
 ===================================================
  XFOIL Version 6.99
  Copyright (C) 2000   Mark Drela, Harold Youngren

  This software comes with ABSOLUTELY NO WARRANTY,
    subject to the GNU General Public License.

  Caveat computor
 ===================================================

 File  xfoil.def  not found

   QUIT    Exit program

  .OPER    Direct operating point(s)
  .MDES    Complex mapping design routine
  .QDES    Surface speed design routine
  .GDES    Geometry design routine

   SAVE f  Write airfoil to labeled coordinate file
   PSAV f  Write airfoil to plain coordinate file
   ISAV f  Write airfoil to ISES coordinate file
   MSAV f  Write airfoil to MSES coordinate file
   REVE    Reverse written-airfoil node ordering

   LOAD f  Read buffer airfoil from coordinate file
   NACA i  Set NACA 4,5-digit airfoil and buffer airfoil
   INTE    Set buffer airfoil by interpolating two airfoils
   NORM    Buffer airfoil normalization toggle
   XYCM rr Change CM reference location, currently  0.25000 0.00000

   BEND    Display structural properties of current airfoil

   PCOP    Set current-airfoil panel nodes directly from buffer airfoil points
   PANE    Set current-airfoil panel nodes ( 160 ) based on curvature
  .PPAR    Show/change paneling

  .PLOP    Plotting options

   WDEF f  Write  current-settings file
   RDEF f  Reread current-settings file
   NAME s  Specify new airfoil name
   NINC    Increment name version number

   Z       Zoom    | (available in all menus)
   U       Unzoom  | 

 XFOIL   c>  
 Labeled airfoil file.  Name:  A18 (smoothed)                                  

 Number of input coordinate points:  79
 Counterclockwise ordering
 Max thickness =     0.072830  at x =   0.271
 Max camber    =     0.038395  at x =   0.493

  LE  x,y  =  -0.00000   0.00004  |   Chord =   1.00000
  TE  x,y  =   1.00000   0.00001  |

 Current airfoil nodes set from buffer airfoil nodes (  79 )

 XFOIL   c>  
 XFOIL   c>  
 Blunt trailing edge.  Gap =  0.00613

 Paneling parameters used...
   Number of panel nodes       160
   Panel bunching parameter    1.000
   TE/LE panel density ratio   0.150
   Refined-area/LE panel density ratio    0.200
   Top    side refined area x/c limits  1.000 1.000
   Bottom side refined area x/c limits  1.000 1.000

 XFOIL   c>  
.OPERi   c>  
 Xtr/c     =  1.0000    top    side
 Xtr/c     =  1.0000    bottom side
 Ncrit     =    9.00   ( 0.070 % turb. level )
 Vacc      =  0.0100

 Klag  =  5.6000     Uxwt  =    1.00
 A     =  6.7000     B     =  0.7500       KCt = 0.01485
 CtiniK=  1.8000     CtiniX=  3.3000

..VPAR   c>  
..VPAR   c>  
.OPERi   c>  
 M  =    0.0000
 Re =    600000

.OPERv   c>  
.OPERv   c>  
.OPERv   c>  
 Polar  1 newly created for accumulation
 Airfoil archived with polar: A18 (smoothed)                                  

Enter  polar save filename  OR  <return> for no file   s>  
 New polar save file available

Enter  polar dump filename  OR  <return> for no file   s>  
 Polar dump file will NOT be written

 Polar accumulation enabled

.OPERva   c>   Calculating unit vorticity distributions ...
 Calculating wake trajectory ...
 Calculating source influence matrix ...

 Solving BL system ...

 Initializing BL ...
    side            1  ...
 MRCHUE: Inverse mode at  66     Hk =   3.869
 MRCHUE: Inverse mode at  67     Hk =   4.395
 MRCHUE: Inverse mode at  68     Hk =   4.913
 MRCHUE: Inverse mode at  69     Hk =   5.425
 MRCHUE: Inverse mode at  70     Hk =   5.931
 MRCHUE: Inverse mode at  71     Hk =   6.432
 MRCHUE: Inverse mode at  72     Hk =   6.929
 MRCHUE: Inverse mode at  73     Hk =   7.420
 MRCHUE: Inverse mode at  74     Hk =   7.901
 MRCHUE: Inverse mode at  75     Hk =   6.790
 MRCHUE: Inverse mode at  76     Hk =   5.252
 MRCHUE: Inverse mode at  77     Hk =   4.656
    side            2  ...
 MRCHUE: Inverse mode at  14     Hk =   5.129
 MRCHUE: Inverse mode at  15     Hk =   6.863
 MRCHUE: Inverse mode at  16     Hk =   8.800
 MRCHUE: Inverse mode at  17     Hk =   5.990
 MRCHUE: Inverse mode at  18     Hk =   2.500

 Side 1  free  transition at x/c =  0.9763   75
 Side 2  free  transition at x/c =  0.0381   17

   1   rms: 0.1030E+00   max: 0.6870E+00   D at   89  2   RLX: 0.864
       a = -4.000      CL =  0.0094
      Cm = -0.1132     CD =  0.00917   =>   CDf =  0.00553    CDp =  0.00364

 Side 1  free  transition at x/c =  0.9796   75
 Side 2  free  transition at x/c =  0.0385   17

   2   rms: 0.3033E-01   max: -.1974E+00   D at   17  2
       a = -4.000      CL =  0.0150
      Cm = -0.1137     CD =  0.00969   =>   CDf =  0.00564    CDp =  0.00405

 Side 1  free  transition at x/c =  0.9745   75
 Side 2  free  transition at x/c =  0.0400   17

   3   rms: 0.5242E-02   max: -.4732E-01   D at   77  1
       a = -4.000      CL =  0.0167
      Cm = -0.1141     CD =  0.00971   =>   CDf =  0.00566    CDp =  0.00404

 Side 1  free  transition at x/c =  0.9756   75
 Side 2  free  transition at x/c =  0.0401   17

   4   rms: 0.2261E-03   max: -.2169E-02   D at   77  1
       a = -4.000      CL =  0.0168
      Cm = -0.1141     CD =  0.00971   =>   CDf =  0.00566    CDp =  0.00404

 Side 1  free  transition at x/c =  0.9757   75
 Side 2  free  transition at x/c =  0.0401   17

   5   rms: 0.1222E-05   max: 0.5188E-05   D at   88  2
       a = -4.000      CL =  0.0168
      Cm = -0.1141     CD =  0.00971   =>   CDf =  0.00566    CDp =  0.00404
 plradd ia,ip,cpol            1           0  3.10733658E-03

 Point added to stored polar  1
 Point written to save file  a18sm_Re600k.base.pol                           
 Dump file unspecified or not available
 Calculating wake trajectory ...
 Calculating source influence matrix ...

 Solving BL system ...

 Side 1  free  transition at x/c =  0.9757   75
 Side 2  free  transition at x/c =  0.0401   17

   1   rms: 0.1090E+00   max: 0.8390E+00   C at   17  2   RLX: 0.617
       a = -3.500      CL =  0.0611
      Cm = -0.1162     CD =  0.00948   =>   CDf =  0.00571    CDp =  0.00376

 MRCHDU: Convergence failed at  17  side 2    Res =  0.4156E+01
 MRCHDU: Convergence failed at  18  side 2    Res =  0.8441E+01
 MRCHDU: Convergence failed at  19  side 2    Res =  0.3415E+01
 MRCHDU: Convergence failed at  20  side 2    Res =  0.3381E+01
 MRCHDU: Convergence failed at  21  side 2    Res =  0.4517E+01
 MRCHDU: Convergence failed at  22  side 2    Res =  0.6614E+01
 MRCHDU: Convergence failed at  23  side 2    Res =  0.1045E+02
 MRCHDU: Convergence failed at  24  side 2    Res =  0.1849E+02
 MRCHDU: Convergence failed at  25  side 2    Res =  0.4640E+02
 MRCHDU: Convergence failed at  26  side 2    Res =  0.1991E+03
 MRCHDU: Convergence failed at  27  side 2    Res =  0.3823E+02
 MRCHDU: Convergence failed at  28  side 2    Res =  0.2485E+02
 MRCHDU: Convergence failed at  29  side 2    Res =  0.1061E+02
 MRCHDU: Convergence failed at  30  side 2    Res =  0.1210E+02
 MRCHDU: Convergence failed at  31  side 2    Res =  0.1321E+02
 MRCHDU: Convergence failed at  32  side 2    Res =  0.1446E+02
 MRCHDU: Convergence failed at  33  side 2    Res =  0.1543E+02
 MRCHDU: Convergence failed at  34  side 2    Res =  0.1623E+02
 MRCHDU: Convergence failed at  35  side 2    Res =  0.1719E+02
 MRCHDU: Convergence failed at  36  side 2    Res =  0.1917E+02
 MRCHDU: Convergence failed at  37  side 2    Res =  0.2074E+02
 MRCHDU: Convergence failed at  38  side 2    Res =  0.1978E+02
 MRCHDU: Convergence failed at  39  side 2    Res =  0.2047E+02
 MRCHDU: Convergence failed at  40  side 2    Res =  0.2130E+02
 MRCHDU: Convergence failed at  41  side 2    Res =  0.2214E+02
 MRCHDU: Convergence failed at  42  side 2    Res =  0.2887E+02
 MRCHDU: Convergence failed at  43  side 2    Res =  0.2339E+02
 MRCHDU: Convergence failed at  44  side 2    Res =  0.2383E+02
 MRCHDU: Convergence failed at  45  side 2    Res =  0.3330E+02
 MRCHDU: Convergence failed at  46  side 2    Res =  0.3465E+02

[TIMEOUT]
