
 ===================================================
  XFOIL Version 6.99
  Copyright (C) 2000   Mark Drela, Harold Youngren

  This software comes with ABSOLUTELY NO WARRANTY,
    subject to the GNU General Public License.

  Caveat computor
 ===================================================

 File  xfoil.def  not found

   QUIT    Exit program

  .OPER    Direct operating point(s)
  .MDES    Complex mapping design routine
  .QDES    Surface speed design routine
  .GDES    Geometry design routine

   SAVE f  Write airfoil to labeled coordinate file
   PSAV f  Write airfoil to plain coordinate file
   ISAV f  Write airfoil to ISES coordinate file
   MSAV f  Write airfoil to MSES coordinate file
   REVE    Reverse written-airfoil node ordering

   LOAD f  Read buffer airfoil from coordinate file
   NACA i  Set NACA 4,5-digit airfoil and buffer airfoil
   INTE    Set buffer airfoil by interpolating two airfoils
   NORM    Buffer airfoil normalization toggle
   XYCM rr Change CM reference location, currently  0.25000 0.00000

   BEND    Display structural properties of current airfoil

   PCOP    Set current-airfoil panel nodes directly from buffer airfoil points
   PANE    Set current-airfoil panel nodes ( 160 ) based on curvature
  .PPAR    Show/change paneling

  .PLOP    Plotting options

   WDEF f  Write  current-settings file
   RDEF f  Reread current-settings file
   NAME s  Specify new airfoil name
   NINC    Increment name version number

   Z       Zoom    | (available in all menus)
   U       Unzoom  | 

 XFOIL   c>  
 Labeled airfoil file.  Name:  AG04                                            

 Number of input coordinate points: 180
 Counterclockwise ordering
 Max thickness =     0.064235  at x =   0.225
 Max camber    =     0.017523  at x =   0.394

  LE  x,y  =   0.00000   0.00000  |   Chord =   1.00000
  TE  x,y  =   1.00000   0.00000  |

 Current airfoil nodes set from buffer airfoil nodes ( 180 )

 XFOIL   c>  
 XFOIL   c>  
 Blunt trailing edge.  Gap =  0.00134

 Paneling parameters used...
   Number of panel nodes       160
   Panel bunching parameter    1.000
   TE/LE panel density ratio   0.150
   Refined-area/LE panel density ratio    0.200
   Top    side refined area x/c limits  1.000 1.000
   Bottom side refined area x/c limits  1.000 1.000

 XFOIL   c>  
.OPERi   c>  
 Xtr/c     =  1.0000    top    side
 Xtr/c     =  1.0000    bottom side
 Ncrit     =    9.00   ( 0.070 % turb. level )
 Vacc      =  0.0100

 Klag  =  5.6000     Uxwt  =    1.00
 A     =  6.7000     B     =  0.7500       KCt = 0.01485
 CtiniK=  1.8000     CtiniX=  3.3000

..VPAR   c>  
..VPAR   c>  
.OPERi   c>  
 M  =    0.0000
 Re =    400000

.OPERv   c>  
.OPERv   c>  
.OPERv   c>  
 Polar  1 newly created for accumulation
 Airfoil archived with polar: AG04                                            

Enter  polar save filename  OR  <return> for no file   s>  
 New polar save file available

Enter  polar dump filename  OR  <return> for no file   s>  
 Polar dump file will NOT be written

 Polar accumulation enabled

.OPERva   c>   Calculating unit vorticity distributions ...
 Calculating wake trajectory ...
 Calculating source influence matrix ...

 Solving BL system ...

 Initializing BL ...
    side            1  ...
 MRCHUE: Inverse mode at  72     Hk =   3.897
 MRCHUE: Inverse mode at  73     Hk =   4.265
 MRCHUE: Inverse mode at  74     Hk =   4.627
 MRCHUE: Inverse mode at  75     Hk =   4.974
 MRCHUE: Inverse mode at  76     Hk =   5.282
 MRCHUE: Inverse mode at  77     Hk =   5.431
    side            2  ...
 MRCHUE: Inverse mode at   9     Hk =   4.446
 MRCHUE: Inverse mode at  10     Hk =   5.759
 MRCHUE: Inverse mode at  11     Hk =   7.123
 MRCHUE: Inverse mode at  12     Hk =   8.733
 MRCHUE: Inverse mode at  13     Hk =  10.024
 MRCHUE: Inverse mode at  14     Hk =   2.500
 MRCHUE: Inverse mode at  15     Hk =   2.500

 Side 1 forced transition at x/c =  1.0000   77
 Side 2  free  transition at x/c =  0.0195   14

   1   rms: 0.4313E+00   max: 0.3097E+01   D at   14  2   RLX: 0.484
       a = -4.000      CL = -0.2836
      Cm = -0.0396     CD =  0.01404   =>   CDf =  0.00608    CDp =  0.00796

 Side 1 forced transition at x/c =  1.0000   77
 Side 2  free  transition at x/c =  0.0174   13

   2   rms: 0.1066E+00   max: -.5184E+00   D at   13  2   RLX: 0.964
       a = -4.000      CL = -0.2809
      Cm = -0.0339     CD =  0.01269   =>   CDf =  0.00567    CDp =  0.00702

 Side 1 forced transition at x/c =  1.0000   77
 Side 2  free  transition at x/c =  0.0171   13

   3   rms: 0.1186E-01   max: 0.1321E+00   D at   14  2
       a = -4.000      CL = -0.2744
      Cm = -0.0352     CD =  0.01229   =>   CDf =  0.00620    CDp =  0.00609

 Side 1 forced transition at x/c =  1.0000   77
 Side 2  free  transition at x/c =  0.0173   13

   4   rms: 0.9413E-03   max: 0.6056E-02   D at   15  2
       a = -4.000      CL = -0.2744
      Cm = -0.0352     CD =  0.01228   =>   CDf =  0.00620    CDp =  0.00608

 Side 1 forced transition at x/c =  1.0000   77
 Side 2  free  transition at x/c =  0.0173   13

   5   rms: 0.1642E-05   max: 0.1340E-04   D at   14  2
       a = -4.000      CL = -0.2744
      Cm = -0.0352     CD =  0.01228   =>   CDf =  0.00620    CDp =  0.00608
 plradd ia,ip,cpol            1           0  2.36119929E-04

 Point added to stored polar  1
 Point written to save file  ag04_Re400k.base.pol                            
 Dump file unspecified or not available
 Calculating wake trajectory ...
 Calculating source influence matrix ...

 Solving BL system ...

 Side 1 forced transition at x/c =  1.0000   77
 Side 2  free  transition at x/c =  0.0173   13

   1   rms: 0.1394E+00   max: -.4304E+00   D at   16  2
       a = -3.500      CL = -0.2220
      Cm = -0.0340     CD =  0.01014   =>   CDf =  0.00620    CDp =  0.00394

 Side 1 forced transition at x/c =  1.0000   77
 Side 2  free  transition at x/c =  0.0223   14

   2   rms: 0.1185E-01   max: 0.2268E+00   D at   14  2
       a = -3.500      CL = -0.2221
      Cm = -0.0340     CD =  0.01019   =>   CDf =  0.00645    CDp =  0.00374

 Side 1 forced transition at x/c =  1.0000   77
 Side 2  free  transition at x/c =  0.0234   14

   3   rms: 0.7943E-02   max: 0.1043E+00   D at   14  2
       a = -3.500      CL = -0.2221
      Cm = -0.0341     CD =  0.01022   =>   CDf =  0.00642    CDp =  0.00380

 Side 1 forced transition at x/c =  1.0000   77
 Side 2  free  transition at x/c =  0.0232   14

   4   rms: 0.4288E-03   max: 0.4675E-02   D at   14  2
       a = -3.500      CL = -0.2222
      Cm = -0.0341     CD =  0.01022   =>   CDf =  0.00641    CDp =  0.00381

 Side 1 forced transition at x/c =  1.0000   77
 Side 2  free  transition at x/c =  0.0232   14

   5   rms: 0.1768E-05   max: 0.1006E-04   D at   96  2
       a = -3.500      CL = -0.2222
      Cm = -0.0341     CD =  0.01022   =>   CDf =  0.00641    CDp =  0.00381
 plradd ia,ip,cpol            2           0  1.11661246E-03

 Point added to stored polar  1
 Point written to save file  ag04_Re400k.base.pol                            
 Dump file unspecified or not available
 Calculating wake trajectory ...
 Calculating source influence matrix ...

 Solving BL system ...

 Side 1 forced transition at x/c =  1.0000   77
 Side 2  free  transition at x/c =  0.0232   14

   1   rms: 0.1311E+00   max: -.1151E+01   T at   14  2   RLX: 0.434
       a = -3.000      CL = -0.1996
      Cm = -0.0337     CD =  0.00977   =>   CDf =  0.00648    CDp =  0.00328

 Side 1 forced transition at x/c =  1.0000   78
 Side 2  free  transition at x/c =  0.0302   14

   2   rms: 0.2894E+00   max: -.1407E+01   T at   14  2   RLX: 0.355
       a = -3.000      CL = -0.1889
      Cm = -0.0335     CD =  0.00879   =>   CDf =  0.00644    CDp =  0.00235

 MRCHDU: Convergence failed at  15  side 2    Res =  0.5236E+01
 Side 1 forced transition at x/c =  1.0000   78
 Side 2  free  transition at x/c =  0.0488   15

   3   rms: 0.6064E-01   max: -.2628E+00   D at   17  2
       a = -3.000      CL = -0.1697
      Cm = -0.0331     CD =  0.00900   =>   CDf =  0.00627    CDp =  0.00273

 MRCHDU: Convergence failed at  17  side 2    Res =  0.1253E+02
 MRCHDU: Convergence failed at  18  side 2    Res =  0.6373E+01
 MRCHDU: Convergence failed at  19  side 2    Res =  0.1035E+05
 MRCHDU: Convergence failed at  20  side 2    Res =  0.2209E+02
 MRCHDU: Convergence failed at  21  side 2    Res =  0.1110E+02
 MRCHDU: Convergence failed at  22  side 2    Res =  0.1494E+02
 MRCHDU: Convergence failed at  23  side 2    Res =  0.1687E+02
 MRCHDU: Convergence failed at  24  side 2    Res =  0.2115E+02
 MRCHDU: Convergence failed at  25  side 2    Res =  0.2995E+02
 MRCHDU: Convergence failed at  26  side 2    Res =  0.4738E+02
 MRCHDU: Convergence failed at  27  side 2    Res =  0.7437E+02
 MRCHDU: Convergence failed at  28  side 2    Res =  0.2092E+03
 MRCHDU: Convergence failed at  29  side 2    Res =  0.2664E+03
 MRCHDU: Convergence failed at  30  side 2    Res =  0.7480E+02
 MRCHDU: Convergence failed at  31  side 2    Res =  0.4916E+02
 MRCHDU: Convergence failed at  32  side 2    Res =  0.3742E+02
 MRCHDU: Convergence failed at  33  side 2    Res =  0.3096E+02
 MRCHDU: Convergence failed at  34  side 2    Res =  0.2442E+02
 MRCHDU: Convergence failed at  35  side 2    Res =  0.2186E+02
 MRCHDU: Convergence failed at  36  side 2    Res =  0.1874E+02
 MRCHDU: Convergence failed at  37  side 2    Res =  0.1637E+02
 MRCHDU: Convergence failed at  38  side 2    Res =  0.1544E+02
 MRCHDU: Convergence failed at  39  side 2    Res =  0.1465E+02
 MRCHDU: Convergence failed at  40  side 2    Res =  0.1339E+02
 MRCHDU: Convergence failed at  41  side 2    Res =  0.1289E+02
 MRCHDU: Convergence failed at  42  side 2    Res =  0.1248E+02
 MRCHDU: Convergence failed at  43  side 2    Res =  0.1216E+02
 MRCHDU: Convergence failed at  44  side 2    Res =  0.1139E+02
 MRCHDU: Convergence failed at  45  side 2    Res =  0.1119E+02
 MRCHDU: Convergence failed at  46  side 2    Res =  0.1068E+02
 MRCHDU: Convergence failed at  47  side 2    Res =  0.1050E+02
 MRCHDU: Convergence failed at  48  side 2    Res =  0.1007E+02
 MRCHDU: Convergence failed at  49  side 2    Res =  0.9965E+01
 MRCHDU: Convergence failed at  50  side 2    Res =  0.9870E+01
 MRCHDU: Convergence failed at  51  side 2    Res =  0.9796E+01
 MRCHDU: Convergence failed at  52  side 2    Res =  0.9550E+01
 MRCHDU: Convergence failed at  53  side 2    Res =  0.9482E+01
 MRCHDU: Convergence failed at  54  side 2    Res =  0.9442E+01
 MRCHDU: Convergence failed at  55  side 2    Res =  0.9374E+01
 MRCHDU: Convergence failed at  56  side 2    Res =  0.9340E+01
 MRCHDU: Convergence failed at  57  side 2    Res =  0.9306E+01
 MRCHDU: Convergence failed at  58  side 2    Res =  0.9263E+01
 MRCHDU: Convergence failed at  59  side 2    Res =  0.9242E+01
 MRCHDU: Convergence failed at  60  side 2    Res =  0.9162E+01
 MRCHDU: Convergence failed at  61  side 2    Res =  0.9149E+01
 MRCHDU: Convergence failed at  62  side 2    Res =  0.9146E+01
 MRCHDU: Convergence failed at  63  side 2    Res =  0.9161E+01
 MRCHDU: Convergence failed at  64  side 2    Res =  0.9172E+01
 MRCHDU: Convergence failed at  65  side 2    Res =  0.9173E+01
 MRCHDU: Convergence failed at  66  side 2    Res =  0.9199E+01
 MRCHDU: Convergence failed at  67  side 2    Res =  0.9207E+01
 MRCHDU: Convergence failed at  68  side 2    Res =  0.9222E+01
 MRCHDU: Convergence failed at  69  side 2    Res =  0.9211E+01
 MRCHDU: Convergence failed at  70  side 2    Res =  0.9213E+01
 MRCHDU: Convergence failed at  71  side 2    Res =  0.7343E+01
 MRCHDU: Convergence failed at  72  side 2    Res =  0.7355E+01
 MRCHDU: Convergence failed at  73  side 2    Res =  0.7381E+01
 MRCHDU: Convergence failed at  74  side 2    Res =  0.7409E+01
 MRCHDU: Convergence failed at  75  side 2    Res =  0.7431E+01
 MRCHDU: Convergence failed at  76  side 2    Res =  0.7477E+01
 MRCHDU: Convergence failed at  77  side 2    Res =  0.7576E+01
 MRCHDU: Convergence failed at  78  side 2    Res =  0.7670E+01
 MRCHDU: Convergence failed at  79  side 2    Res =  0.7841E+01
 MRCHDU: Convergence failed at  80  side 2    Res =  0.7983E+01
 MRCHDU: Convergence failed at  81  side 2    Res =  0.8195E+01
 MRCHDU: Convergence failed at  82  side 2    Res =  0.8384E+01
 MRCHDU: Convergence failed at  83  side 2    Res =  0.8672E+01
 MRCHDU: Convergence failed at  84  side 2    Res =  0.8511E+01
 Side 1 forced transition at x/c =  1.0000   78
 Side 2  free  transition at x/c =  0.0720   17

   4   rms: 0.4557E+00   max: 0.7176E+00   D at   89  2   RLX: 0.858
       a = -3.000      CL = -0.2477
      Cm = -0.0069     CD =  0.00583   =>   CDf =  0.00203    CDp =  0.00380

 Side 1 forced transition at x/c =  1.0000   78
 Side 2  free  transition at x/c =  0.0681   17

   5   rms: 0.7633E-01   max: 0.3487E+00   C at   78  1
       a = -3.000      CL = -0.1687
      Cm = -0.0334     CD =  0.00903   =>   CDf =  0.00677    CDp =  0.00225

 Side 1 forced transition at x/c =  1.0000   78
 Side 2  free  transition at x/c =  0.0612   16

   6   rms: 0.1879E-01   max: -.2356E+00   D at   16  2
       a = -3.000      CL = -0.1698
      Cm = -0.0332     CD =  0.00900   =>   CDf =  0.00633    CDp =  0.00267

 Side 1 forced transition at x/c =  1.0000   78
 Side 2  free  transition at x/c =  0.0612   16

   7   rms: 0.2319E-02   max: 0.3617E-01   C at   16  2
       a = -3.000      CL = -0.1698
      Cm = -0.0332     CD =  0.00903   =>   CDf =  0.00634    CDp =  0.00269

 Side 1 forced transition at x/c =  1.0000   78
 Side 2  free  transition at x/c =  0.0606   16

   8   rms: 0.4627E-04   max: -.7322E-03   D at   16  2
       a = -3.000      CL = -0.1698
      Cm = -0.0332     CD =  0.00903   =>   CDf =  0.00634    CDp =  0.00269
 plradd ia,ip,cpol            3           0  1.11661246E-03

 Point added to stored polar  1
 Point written to save file  ag04_Re400k.base.pol                            
 Dump file unspecified or not available
 Calculating wake trajectory ...
 Calculating source influence matrix ...

 Solving BL system ...

 Side 1 forced transition at x/c =  1.0000   78
 Side 2  free  transition at x/c =  0.0606   16

   1   rms: 0.1858E+00   max: 0.2023E+01   D at   16  2   RLX: 0.313
       a = -2.500      CL = -0.1538
      Cm = -0.0330     CD =  0.00877   =>   CDf =  0.00634    CDp =  0.00242

 Side 1 forced transition at x/c =  1.0000   78
 Side 2  free  transition at x/c =  0.0840   18

   2   rms: 0.1159E+00   max: 0.1185E+01   D at   18  2   RLX: 0.630
       a = -2.500      CL = -0.1322
      Cm = -0.0329     CD =  0.00843   =>   CDf =  0.00627    CDp =  0.00216

 Side 1 forced transition at x/c =  1.0000   78
 Side 2  free  transition at x/c =  0.1038   19

   3   rms: 0.4036E-01   max: -.3711E+00   T at   19  2
       a = -2.500      CL = -0.1182
      Cm = -0.0324     CD =  0.00842   =>   CDf =  0.00621    CDp =  0.00222

 MRCHDU: Convergence failed at  21  side 2    Res =  0.7371E+02
 Side 1 forced transition at x/c =  1.0000   78
 Side 2  free  transition at x/c =  0.1288   21

   4   rms: 0.1177E-01   max: -.1465E+00   D at   21  2
       a = -2.500      CL = -0.1181
      Cm = -0.0325     CD =  0.00833   =>   CDf =  0.00606    CDp =  0.00227

 Side 1 forced transition at x/c =  1.0000   78
 Side 2  free  transition at x/c =  0.1346   22

   5   rms: 0.4048E-02   max: -.6629E-01   D at   21  2
       a = -2.500      CL = -0.1181
      Cm = -0.0325     CD =  0.00831   =>   CDf =  0.00608    CDp =  0.00223

 Side 1 forced transition at x/c =  1.0000   78
 Side 2  free  transition at x/c =  0.1345   22

   6   rms: 0.5018E-03   max: 0.7353E-02   C at   22  2
       a = -2.500      CL = -0.1181
      Cm = -0.0325     CD =  0.00832   =>   CDf =  0.00607    CDp =  0.00225

 Side 1 forced transition at x/c =  1.0000   78
 Side 2  free  transition at x/c =  0.1344   22

   7   rms: 0.4023E-05   max: -.5129E-04   D at   23  2
       a = -2.500      CL = -0.1181
      Cm = -0.0325     CD =  0.00832   =>   CDf =  0.00607    CDp =  0.00224
 plradd ia,ip,cpol            4           0  1.11661246E-03

 Point added to stored polar  1
 Point written to save file  ag04_Re400k.base.pol                            
 Dump file unspecified or not available
 Calculating wake trajectory ...
 Calculating source influence matrix ...

 Solving BL system ...

 Side 1 forced transition at x/c =  1.0000   78
 Side 2  free  transition at x/c =  0.1344   22

   1   rms: 0.2019E+00   max: -.2152E+01   C at   22  2   RLX: 0.232
       a = -2.000      CL = -0.1062
      Cm = -0.0324     CD =  0.00809   =>   CDf =  0.00607    CDp =  0.00202

 Side 1 forced transition at x/c =  1.0000   78
 Side 2  free  transition at x/c =  0.1476   23

   2   rms: 0.1706E+00   max: -.1369E+01   C at   23  2   RLX: 0.365
       a = -2.000      CL = -0.0909
      Cm = -0.0323     CD =  0.00786   =>   CDf =  0.00618    CDp =  0.00168

 Side 1 forced transition at x/c =  1.0000   79
 Side 2  free  transition at x/c =  0.1728   23

   3   rms: 0.2991E+00   max: -.4542E+01   D at    2  1   RLX: 0.110
       a = -2.000      CL = -0.0892
      Cm = -0.0324     CD =  0.00799   =>   CDf =  0.00595    CDp =  0.00204

 Side 1 forced transition at x/c =  1.0000   79
 Side 2  free  transition at x/c =  0.1736   23

   4   rms: 0.5650E-01   max: -.5659E+00   T at   23  2   RLX: 0.884
       a = -2.000      CL = -0.0691
      Cm = -0.0318     CD =  0.00799   =>   CDf =  0.00603    CDp =  0.00196

 MRCHDU: Convergence failed at  25  side 2    Res =  0.8555E+00
 MRCHDU: Convergence failed at  26  side 2    Res =  0.1323E+01
 MRCHDU: Convergence failed at  27  side 2    Res =  0.1605E+01
 MRCHDU: Convergence failed at  28  side 2    Res =  0.1806E+01
 MRCHDU: Convergence failed at  29  side 2    Res =  0.1908E+01
 MRCHDU: Convergence failed at  30  side 2    Res =  0.1853E+01
 MRCHDU: Convergence failed at  31  side 2    Res =  0.1897E+01
 MRCHDU: Convergence failed at  32  side 2    Res =  0.1881E+01
 MRCHDU: Convergence failed at  33  side 2    Res =  0.1863E+01
 MRCHDU: Convergence failed at  34  side 2    Res =  0.1866E+02
 MRCHDU: Convergence failed at  35  side 2    Res =  0.2119E+01
 MRCHDU: Convergence failed at  36  side 2    Res =  0.2033E+01
 MRCHDU: Convergence failed at  37  side 2    Res =  0.1952E+01
 MRCHDU: Convergence failed at  38  side 2    Res =  0.1887E+01
 MRCHDU: Convergence failed at  39  side 2    Res =  0.1843E+01
 MRCHDU: Convergence failed at  40  side 2    Res =  0.1810E+01
 MRCHDU: Convergence failed at  41  side 2    Res =  0.1784E+01
 MRCHDU: Convergence failed at  42  side 2    Res =  0.1765E+01
 MRCHDU: Convergence failed at  43  side 2    Res =  0.1168E+01
 MRCHDU: Convergence failed at  44  side 2    Res =  0.1209E+01
 MRCHDU: Convergence failed at  45  side 2    Res =  0.1252E+01
 MRCHDU: Convergence failed at  46  side 2    Res =  0.1296E+01
 MRCHDU: Convergence failed at  47  side 2    Res =  0.1337E+01
 MRCHDU: Convergence failed at  48  side 2    Res =  0.1377E+01
 MRCHDU: Convergence failed at  49  side 2    Res =  0.1417E+01
 MRCHDU: Convergence failed at  50  side 2    Res =  0.1454E+01
 MRCHDU: Convergence failed at  51  side 2    Res =  0.1493E+01
 MRCHDU: Convergence failed at  52  side 2    Res =  0.1532E+01
 MRCHDU: Convergence failed at  53  side 2    Res =  0.1566E+01
 MRCHDU: Convergence failed at  54  side 2    Res =  0.1604E+01
 MRCHDU: Convergence failed at  55  side 2    Res =  0.1638E+01
 MRCHDU: Convergence failed at  56  side 2    Res =  0.1670E+01
 MRCHDU: Convergence failed at  57  side 2    Res =  0.1704E+01
 MRCHDU: Convergence failed at  58  side 2    Res =  0.1733E+01
 MRCHDU: Convergence failed at  59  side 2    Res =  0.1764E+01
 MRCHDU: Convergence failed at  60  side 2    Res =  0.1792E+01
 MRCHDU: Convergence failed at  61  side 2    Res =  0.1818E+01
 MRCHDU: Convergence failed at  62  side 2    Res =  0.1840E+01
 MRCHDU: Convergence failed at  63  side 2    Res =  0.1862E+01
 MRCHDU: Convergence failed at  64  side 2    Res =  0.1885E+01
 MRCHDU: Convergence failed at  65  side 2    Res =  0.1901E+01
 MRCHDU: Convergence failed at  66  side 2    Res =  0.1921E+01
 MRCHDU: Convergence failed at  67  side 2    Res =  0.1938E+01
 MRCHDU: Convergence failed at  68  side 2    Res =  0.1959E+01
 MRCHDU: Convergence failed at  69  side 2    Res =  0.1977E+01
 MRCHDU: Convergence failed at  70  side 2    Res =  0.2001E+01
 MRCHDU: Convergence failed at  71  side 2    Res =  0.2031E+01
 MRCHDU: Convergence failed at  72  side 2    Res =  0.2052E+01
 MRCHDU: Convergence failed at  73  side 2    Res =  0.2077E+01
 MRCHDU: Convergence failed at  74  side 2    Res =  0.2098E+01
 MRCHDU: Convergence failed at  75  side 2    Res =  0.2142E+01
 MRCHDU: Convergence failed at  76  side 2    Res =  0.2179E+01
 MRCHDU: Convergence failed at  77  side 2    Res =  0.2217E+01
 MRCHDU: Convergence failed at  78  side 2    Res =  0.2277E+01
 MRCHDU: Convergence failed at  79  side 2    Res =  0.2322E+01
 MRCHDU: Convergence failed at  80  side 2    Res =  0.2383E+01
 MRCHDU: Convergence failed at  81  side 2    Res =  0.2459E+01
 MRCHDU: Convergence failed at  82  side 2    Res =  0.2645E+01
 MRCHDU: Convergence failed at  83  side 2    Res =  0.3192E+01
 Side 1 forced transition at x/c =  1.0000   79
 Side 2  free  transition at x/c =  0.3171   34

   5   rms: 0.2281E+00   max: 0.5743E+00   D at   88  2   RLX: 0.969
       a = -2.000      CL = -0.0669
      Cm = -0.0307     CD =  0.00593   =>   CDf =  0.00325    CDp =  0.00268

 Side 1 forced transition at x/c =  1.0000   79
 Side 2  free  transition at x/c =  0.3037   33

   6   rms: 0.4894E-01   max: 0.6043E+00   C at   33  2
       a = -2.000      CL = -0.0652
      Cm = -0.0323     CD =  0.00755   =>   CDf =  0.00554    CDp =  0.00201

 Side 1 forced transition at x/c =  1.0000   79
 Side 2  free  transition at x/c =  0.2510   29

   7   rms: 0.1361E-01   max: -.1415E+00   D at   33  2
       a = -2.000      CL = -0.0664
      Cm = -0.0321     CD =  0.00763   =>   CDf =  0.00567    CDp =  0.00197

 Side 1 forced transition at x/c =  1.0000   79
 Side 2  free  transition at x/c =  0.2467   29

   8   rms: 0.5708E-03   max: 0.6645E-02   C at   29  2
       a = -2.000      CL = -0.0664
      Cm = -0.0321     CD =  0.00765   =>   CDf =  0.00567    CDp =  0.00198

 Side 1 forced transition at x/c =  1.0000   79
 Side 2  free  transition at x/c =  0.2464   29

   9   rms: 0.3117E-05   max: -.5247E-04   C at   29  2
       a = -2.000      CL = -0.0664
      Cm = -0.0321     CD =  0.00765   =>   CDf =  0.00567    CDp =  0.00198
 plradd ia,ip,cpol            5           0  1.11661246E-03

 Point added to stored polar  1
 Point written to save file  ag04_Re400k.base.pol                            
 Dump file unspecified or not available
 Calculating wake trajectory ...
 Calculating source influence matrix ...

 Solving BL system ...

 Side 1 forced transition at x/c =  1.0000   79
 Side 2  free  transition at x/c =  0.2464   29

   1   rms: 0.2551E+00   max: -.4321E+01   C at   29  2   RLX: 0.116
       a = -1.500      CL = -0.0604
      Cm = -0.0320     CD =  0.00755   =>   CDf =  0.00567    CDp =  0.00188

 Side 1 forced transition at x/c =  1.0000   79
 Side 2  free  transition at x/c =  0.2579   29

   2   rms: 0.9161E-01   max: -.4354E+00   C at   29  2
       a = -1.500      CL = -0.0145
      Cm = -0.0312     CD =  0.00751   =>   CDf =  0.00566    CDp =  0.00185

 Side 1  free  transition at x/c =  0.9822   78
 Side 2  free  transition at x/c =  0.3974   40

   3   rms: 0.8677E-01   max: -.1074E+01   C at   40  2   RLX: 0.466
       a = -1.500      CL = -0.0143
      Cm = -0.0325     CD =  0.00726   =>   CDf =  0.00528    CDp =  0.00198

 Side 1  free  transition at x/c =  0.9885   78
 Side 2  free  transition at x/c =  0.4132   41

   4   rms: 0.5440E-01   max: -.8381E+00   C at   41  2   RLX: 0.597
       a = -1.500      CL = -0.0077
      Cm = -0.0335     CD =  0.00702   =>   CDf =  0.00516    CDp =  0.00186

 Side 1  free  transition at x/c =  0.9929   78
 Side 2  free  transition at x/c =  0.4264   42

   5   rms: 0.2017E-01   max: -.3111E+00   C at   42  2
       a = -1.500      CL = -0.0034
      Cm = -0.0342     CD =  0.00686   =>   CDf =  0.00506    CDp =  0.00179

 Side 1  free  transition at x/c =  0.9961   79
 Side 2  free  transition at x/c =  0.4360   42

   6   rms: 0.3768E-02   max: 0.4251E-01   C at   79  1
       a = -1.500      CL = -0.0040
      Cm = -0.0340     CD =  0.00687   =>   CDf =  0.00503    CDp =  0.00185

 Side 1  free  transition at x/c =  0.9950   79
 Side 2  free  transition at x/c =  0.4358   42

   7   rms: 0.1810E-03   max: -.1712E-02   C at   79  1
       a = -1.500      CL = -0.0040
      Cm = -0.0340     CD =  0.00687   =>   CDf =  0.00502    CDp =  0.00185

 Side 1  free  transition at x/c =  0.9951   79
 Side 2  free  transition at x/c =  0.4359   42

   8   rms: 0.2121E-05   max: 0.3405E-04   C at   42  2
       a = -1.500      CL = -0.0040
      Cm = -0.0340     CD =  0.00687   =>   CDf =  0.00502    CDp =  0.00185
 plradd ia,ip,cpol            6           0  1.11661246E-03

 Point added to stored polar  1
 Point written to save file  ag04_Re400k.base.pol                            
 Dump file unspecified or not available
 Calculating wake trajectory ...
 Calculating source influence matrix ...

 Solving BL system ...

 Side 1  free  transition at x/c =  0.9951   79
 Side 2  free  transition at x/c =  0.4359   42

   1   rms: 0.3193E+00   max: -.5529E+01   C at   42  2   RLX: 0.090
       a = -1.000      CL =  0.0035
      Cm = -0.0346     CD =  0.00680   =>   CDf =  0.00502    CDp =  0.00178

 Side 1  free  transition at x/c =  0.9939   78
 Side 2  free  transition at x/c =  0.4576   44

   2   rms: 0.3168E+00   max: -.5499E+01   C at   44  2   RLX: 0.091
       a = -1.000      CL =  0.0097
      Cm = -0.0350     CD =  0.00671   =>   CDf =  0.00495    CDp =  0.00176

 Side 1  free  transition at x/c =  0.9923   78
 Side 2  free  transition at x/c =  0.4763   45

   3   rms: 0.2503E+00   max: -.4246E+01   C at   45  2   RLX: 0.118
       a = -1.000      CL =  0.0174
      Cm = -0.0355     CD =  0.00664   =>   CDf =  0.00489    CDp =  0.00175

 Side 1  free  transition at x/c =  0.9903   78
 Side 2  free  transition at x/c =  0.5046   47

   4   rms: 0.2347E+00   max: -.3981E+01   C at   47  2   RLX: 0.126
       a = -1.000      CL =  0.0243
      Cm = -0.0359     CD =  0.00653   =>   CDf =  0.00479    CDp =  0.00174

 Side 1  free  transition at x/c =  0.9885   78
 Side 2  free  transition at x/c =  0.5364   49

   5   rms: 0.1665E+00   max: -.2599E+01   C at   49  2   RLX: 0.192
       a = -1.000      CL =  0.0338
      Cm = -0.0364     CD =  0.00642   =>   CDf =  0.00474    CDp =  0.00168

 Side 1  free  transition at x/c =  0.9861   79
 Side 2  free  transition at x/c =  0.5895   52

   6   rms: 0.1096E+00   max: -.1316E+01   T at    2  1   RLX: 0.380
       a = -1.000      CL =  0.0492
      Cm = -0.0373     CD =  0.00627   =>   CDf =  0.00455    CDp =  0.00172

 Side 1  free  transition at x/c =  0.9826   79
 Side 2  free  transition at x/c =  0.6654   58

   7   rms: 0.1611E+00   max: -.2781E+01   C at   58  2   RLX: 0.180
       a = -1.000      CL =  0.0515
      Cm = -0.0368     CD =  0.00594   =>   CDf =  0.00430    CDp =  0.00164

 Side 1  free  transition at x/c =  0.9818   78
 Side 2  free  transition at x/c =  0.6748   58

   8   rms: 0.1074E+00   max: -.1825E+01   C at   58  2   RLX: 0.274
       a = -1.000      CL =  0.0565
      Cm = -0.0372     CD =  0.00590   =>   CDf =  0.00425    CDp =  0.00164

 Side 1  free  transition at x/c =  0.9796   78
 Side 2  free  transition at x/c =  0.6930   60

   9   rms: 0.1348E+00   max: -.2327E+01   C at   60  2   RLX: 0.215
       a = -1.000      CL =  0.0590
      Cm = -0.0374     CD =  0.00580   =>   CDf =  0.00415    CDp =  0.00164

 Side 1  free  transition at x/c =  0.9785   78
 Side 2  free  transition at x/c =  0.7068   61

  10   rms: 0.1255E+00   max: -.2151E+01   C at   61  2   RLX: 0.232
       a = -1.000      CL =  0.0611
      Cm = -0.0375     CD =  0.00573   =>   CDf =  0.00409    CDp =  0.00164

 Side 1  free  transition at x/c =  0.9776   78
 Side 2  free  transition at x/c =  0.7234   62

  11   rms: 0.1116E+00   max: -.1879E+01   C at   62  2   RLX: 0.266
       a = -1.000      CL =  0.0628
      Cm = -0.0375     CD =  0.00566   =>   CDf =  0.00401    CDp =  0.00165

 Side 1  free  transition at x/c =  0.9768   78
 Side 2  free  transition at x/c =  0.7426   63

  12   rms: 0.8771E-01   max: -.1437E+01   C at   63  2   RLX: 0.348
       a = -1.000      CL =  0.0642
      Cm = -0.0374     CD =  0.00559   =>   CDf =  0.00394    CDp =  0.00165

 Side 1  free  transition at x/c =  0.9761   78
 Side 2  free  transition at x/c =  0.7658   65

  13   rms: 0.5835E-01   max: -.9639E+00   C at   65  2   RLX: 0.519
       a = -1.000      CL =  0.0652
      Cm = -0.0372     CD =  0.00550   =>   CDf =  0.00385    CDp =  0.00165

 Side 1  free  transition at x/c =  0.9754   78
 Side 2  free  transition at x/c =  0.7876   67

  14   rms: 0.3001E-01   max: -.5070E+00   C at   67  2   RLX: 0.986
       a = -1.000      CL =  0.0659
      Cm = -0.0369     CD =  0.00543   =>   CDf =  0.00378    CDp =  0.00165

 Side 1  free  transition at x/c =  0.9749   78
 Side 2  free  transition at x/c =  0.8067   68

  15   rms: 0.4098E-02   max: -.6760E-01   C at   68  2
       a = -1.000      CL =  0.0660
      Cm = -0.0369     CD =  0.00544   =>   CDf =  0.00371    CDp =  0.00173

 Side 1  free  transition at x/c =  0.9748   78
 Side 2  free  transition at x/c =  0.8102   68

  16   rms: 0.1009E-03   max: -.1634E-02   C at   68  2
       a = -1.000      CL =  0.0660
      Cm = -0.0369     CD =  0.00544   =>   CDf =  0.00370    CDp =  0.00174

 Side 1  free  transition at x/c =  0.9748   78
 Side 2  free  transition at x/c =  0.8103   68

  17   rms: 0.1066E-04   max: -.1721E-03   C at   68  2
       a = -1.000      CL =  0.0660
      Cm = -0.0369     CD =  0.00544   =>   CDf =  0.00370    CDp =  0.00174
 plradd ia,ip,cpol            7           0  7.88421277E-03

 Point added to stored polar  1
 Point written to save file  ag04_Re400k.base.pol                            
 Dump file unspecified or not available
 Calculating wake trajectory ...
 Calculating source influence matrix ...

 Solving BL system ...

 Side 1  free  transition at x/c =  0.9748   78
 Side 2  free  transition at x/c =  0.8103   68

   1   rms: 0.9513E+00   max: -.1537E+02   C at   68  2   RLX: 0.033
       a = -0.500      CL =  0.0673
      Cm = -0.0367     CD =  0.00536   =>   CDf =  0.00370    CDp =  0.00166

 Side 1  free  transition at x/c =  0.9740   78
 Side 2  free  transition at x/c =  0.8337   70

   2   rms: 0.9542E+00   max: -.1561E+02   C at   70  2   RLX: 0.032
       a = -0.500      CL =  0.0684
      Cm = -0.0365     CD =  0.00529   =>   CDf =  0.00362    CDp =  0.00167

 Side 1  free  transition at x/c =  0.9732   78
 Side 2  free  transition at x/c =  0.8571   72

   3   rms: 0.9708E+00   max: -.1615E+02   C at   72  2   RLX: 0.031
       a = -0.500      CL =  0.0695
      Cm = -0.0362     CD =  0.00524   =>   CDf =  0.00356    CDp =  0.00168

 Side 1  free  transition at x/c =  0.9726   78
 Side 2  free  transition at x/c =  0.8783   73

   4   rms: 0.1022E+01   max: -.1637E+02   C at   73  2   RLX: 0.031
       a = -0.500      CL =  0.0710
      Cm = -0.0362     CD =  0.00521   =>   CDf =  0.00350    CDp =  0.00171

 Side 1  free  transition at x/c =  0.9721   78
 Side 2  free  transition at x/c =  0.9043   75

   5   rms: 0.1185E+01   max: -.1904E+02   C at   75  2   RLX: 0.026
       a = -0.500      CL =  0.0735
      Cm = -0.0363     CD =  0.00518   =>   CDf =  0.00346    CDp =  0.00172

 Side 1  free  transition at x/c =  0.9722   78
 Side 2  free  transition at x/c =  0.9317   77

   6   rms: 0.1344E+01   max: -.2142E+02   C at   77  2   RLX: 0.023
       a = -0.500      CL =  0.0778
      Cm = -0.0369     CD =  0.00516   =>   CDf =  0.00343    CDp =  0.00173

 Side 1  free  transition at x/c =  0.9728   78
 Side 2  free  transition at x/c =  0.9619   79

   7   rms: 0.7725E+00   max: -.1210E+02   C at   79  2   RLX: 0.041
       a = -0.500      CL =  0.0848
      Cm = -0.0380     CD =  0.00514   =>   CDf =  0.00342    CDp =  0.00172

 Side 1  free  transition at x/c =  0.9731   78
 Side 2 forced transition at x/c =  1.0000   82

   8   rms: 0.1069E+00   max: -.2708E+00   n at   81  2
       a = -0.500      CL =  0.1531
      Cm = -0.0428     CD =  0.00510   =>   CDf =  0.00350    CDp =  0.00160

 Side 1  free  transition at x/c =  0.9434   77
 Side 2 forced transition at x/c =  1.0000   81

   9   rms: 0.1157E-01   max: 0.1206E+00   T at    2  1
       a = -0.500      CL =  0.1457
      Cm = -0.0410     CD =  0.00511   =>   CDf =  0.00358    CDp =  0.00154

 Side 1  free  transition at x/c =  0.9420   77
 Side 2 forced transition at x/c =  1.0000   81

  10   rms: 0.1881E-02   max: 0.1981E-01   D at    4  1
       a = -0.500      CL =  0.1459
      Cm = -0.0410     CD =  0.00512   =>   CDf =  0.00358    CDp =  0.00154

 Side 1  free  transition at x/c =  0.9422   77
 Side 2 forced transition at x/c =  1.0000   81

  11   rms: 0.1615E-04   max: -.1807E-03   D at    4  1
       a = -0.500      CL =  0.1459
      Cm = -0.0410     CD =  0.00512   =>   CDf =  0.00358    CDp =  0.00154
 plradd ia,ip,cpol            8           0  0.12592185    

 Point added to stored polar  1
 Point written to save file  ag04_Re400k.base.pol                            
 Dump file unspecified or not available
 Calculating wake trajectory ...
 Calculating source influence matrix ...

 Solving BL system ...

 Side 1  free  transition at x/c =  0.9422   77
 Side 2 forced transition at x/c =  1.0000   81

   1   rms: 0.1291E+00   max: 0.1047E+01   D at    3  1
       a =  0.000      CL =  0.2144
      Cm = -0.0430     CD =  0.00511   =>   CDf =  0.00358    CDp =  0.00153

 Side 1  free  transition at x/c =  0.8842   72
 Side 2 forced transition at x/c =  1.0000   81

   2   rms: 0.2804E-01   max: 0.2817E+00   D at   76  1
       a =  0.000      CL =  0.1991
      Cm = -0.0395     CD =  0.00518   =>   CDf =  0.00383    CDp =  0.00135

 Side 1  free  transition at x/c =  0.8849   72
 Side 2 forced transition at x/c =  1.0000   81

   3   rms: 0.3444E-02   max: -.4536E-01   C at   72  1
       a =  0.000      CL =  0.1996
      Cm = -0.0397     CD =  0.00519   =>   CDf =  0.00381    CDp =  0.00138

 Side 1  free  transition at x/c =  0.8840   72
 Side 2 forced transition at x/c =  1.0000   81

   4   rms: 0.9066E-04   max: -.1135E-02   C at   72  1
       a =  0.000      CL =  0.1996
      Cm = -0.0397     CD =  0.00519   =>   CDf =  0.00381    CDp =  0.00138
 plradd ia,ip,cpol            9           0  9.95836258E-02

 Point added to stored polar  1
 Point written to save file  ag04_Re400k.base.pol                            
 Dump file unspecified or not available
 Calculating wake trajectory ...
 Calculating source influence matrix ...

 Solving BL system ...

 Side 1  free  transition at x/c =  0.8841   72
 Side 2 forced transition at x/c =  1.0000   81

   1   rms: 0.9567E-01   max: -.1374E+00   n at   80  2
       a =  0.500      CL =  0.2501
      Cm = -0.0379     CD =  0.00531   =>   CDf =  0.00386    CDp =  0.00144

 Side 1  free  transition at x/c =  0.8066   68
 Side 2 forced transition at x/c =  1.0000   80

   2   rms: 0.2695E-01   max: -.2959E+00   C at   68  1
       a =  0.500      CL =  0.2493
      Cm = -0.0375     CD =  0.00537   =>   CDf =  0.00420    CDp =  0.00117

 Side 1  free  transition at x/c =  0.8210   69
 Side 2 forced transition at x/c =  1.0000   80

   3   rms: 0.6417E-02   max: 0.8866E-01   C at   69  1
       a =  0.500      CL =  0.2497
      Cm = -0.0376     CD =  0.00540   =>   CDf =  0.00409    CDp =  0.00131

 Side 1  free  transition at x/c =  0.8174   69
 Side 2 forced transition at x/c =  1.0000   80

   4   rms: 0.3060E-03   max: -.6481E-02   D at   72  1
       a =  0.500      CL =  0.2497
      Cm = -0.0376     CD =  0.00540   =>   CDf =  0.00411    CDp =  0.00129

 Side 1  free  transition at x/c =  0.8173   69
 Side 2 forced transition at x/c =  1.0000   80

   5   rms: 0.3447E-05   max: -.3245E-04   D at   72  1
       a =  0.500      CL =  0.2497
      Cm = -0.0376     CD =  0.00540   =>   CDf =  0.00411    CDp =  0.00129
 plradd ia,ip,cpol           10           0  8.66414458E-02

 Point added to stored polar  1
 Point written to save file  ag04_Re400k.base.pol                            
 Dump file unspecified or not available
 Calculating wake trajectory ...
 Calculating source influence matrix ...

 Solving BL system ...

 Side 1  free  transition at x/c =  0.8173   69
 Side 2 forced transition at x/c =  1.0000   80

   1   rms: 0.1155E+00   max: 0.1251E+01   C at   69  1   RLX: 0.933
       a =  1.000      CL =  0.2960
      Cm = -0.0357     CD =  0.00571   =>   CDf =  0.00411    CDp =  0.00160

 Side 1  free  transition at x/c =  0.7481   64
 Side 2 forced transition at x/c =  1.0000   80

   2   rms: 0.2552E-01   max: 0.2319E+00   D at   68  1
       a =  1.000      CL =  0.3013
      Cm = -0.0361     CD =  0.00568   =>   CDf =  0.00448    CDp =  0.00120

 Side 1  free  transition at x/c =  0.7496   64
 Side 2 forced transition at x/c =  1.0000   80

   3   rms: 0.4592E-02   max: 0.6867E-01   C at   64  1
       a =  1.000      CL =  0.3013
      Cm = -0.0361     CD =  0.00571   =>   CDf =  0.00443    CDp =  0.00127

 Side 1  free  transition at x/c =  0.7475   64
 Side 2 forced transition at x/c =  1.0000   80

   4   rms: 0.9164E-04   max: -.1404E-02   D at   68  1
       a =  1.000      CL =  0.3013
      Cm = -0.0361     CD =  0.00571   =>   CDf =  0.00445    CDp =  0.00125
 plradd ia,ip,cpol           11           0  7.39182606E-02

 Point added to stored polar  1
 Point written to save file  ag04_Re400k.base.pol                            
 Dump file unspecified or not available
 Calculating wake trajectory ...
 Calculating source influence matrix ...

 Solving BL system ...

 Side 1  free  transition at x/c =  0.7475   64
 Side 2 forced transition at x/c =  1.0000   80

   1   rms: 0.1200E+00   max: 0.1380E+01   C at   64  1   RLX: 0.863
       a =  1.500      CL =  0.3454
      Cm = -0.0348     CD =  0.00609   =>   CDf =  0.00446    CDp =  0.00164

 Side 1  free  transition at x/c =  0.6838   59
 Side 2 forced transition at x/c =  1.0000   80

   2   rms: 0.2597E-01   max: 0.2218E+00   D at   63  1
       a =  1.500      CL =  0.3542
      Cm = -0.0351     CD =  0.00604   =>   CDf =  0.00477    CDp =  0.00127

 Side 1  free  transition at x/c =  0.6781   59
 Side 2 forced transition at x/c =  1.0000   80

   3   rms: 0.1614E-02   max: 0.1959E-01   C at   59  1
       a =  1.500      CL =  0.3540
      Cm = -0.0351     CD =  0.00607   =>   CDf =  0.00477    CDp =  0.00130

 Side 1  free  transition at x/c =  0.6776   59
 Side 2 forced transition at x/c =  1.0000   80

   4   rms: 0.1344E-04   max: -.2393E-03   D at   63  1
       a =  1.500      CL =  0.3540
      Cm = -0.0351     CD =  0.00607   =>   CDf =  0.00478    CDp =  0.00129
 plradd ia,ip,cpol           12           0  6.14663623E-02

 Point added to stored polar  1
 Point written to save file  ag04_Re400k.base.pol                            
 Dump file unspecified or not available
 Calculating wake trajectory ...
 Calculating source influence matrix ...

 Solving BL system ...

 Side 1  free  transition at x/c =  0.6776   59
 Side 2 forced transition at x/c =  1.0000   80

   1   rms: 0.1223E+00   max: 0.1417E+01   C at   59  1   RLX: 0.825
       a =  2.000      CL =  0.3970
      Cm = -0.0342     CD =  0.00649   =>   CDf =  0.00476    CDp =  0.00174

 Side 1  free  transition at x/c =  0.6151   55
 Side 2 forced transition at x/c =  1.0000   79

   2   rms: 0.2711E-01   max: 0.2129E+00   D at   59  1
       a =  2.000      CL =  0.4075
      Cm = -0.0343     CD =  0.00644   =>   CDf =  0.00507    CDp =  0.00137

 Side 1  free  transition at x/c =  0.6060   54
 Side 2 forced transition at x/c =  1.0000   79

   3   rms: 0.1476E-02   max: 0.2513E-01   D at   57  1
       a =  2.000      CL =  0.4073
      Cm = -0.0343     CD =  0.00648   =>   CDf =  0.00508    CDp =  0.00140

 Side 1  free  transition at x/c =  0.6060   54
 Side 2 forced transition at x/c =  1.0000   79

   4   rms: 0.1875E-04   max: -.3869E-03   D at   57  1
       a =  2.000      CL =  0.4073
      Cm = -0.0343     CD =  0.00648   =>   CDf =  0.00508    CDp =  0.00140
 plradd ia,ip,cpol           13           0  4.94004339E-02

 Point added to stored polar  1
 Point written to save file  ag04_Re400k.base.pol                            
 Dump file unspecified or not available
 Calculating wake trajectory ...
 Calculating source influence matrix ...

 Solving BL system ...

 Side 1  free  transition at x/c =  0.6060   54
 Side 2 forced transition at x/c =  1.0000   79

   1   rms: 0.1045E+00   max: 0.1009E+01   C at   54  1
       a =  2.500      CL =  0.4618
      Cm = -0.0338     CD =  0.00678   =>   CDf =  0.00508    CDp =  0.00171

 Side 1  free  transition at x/c =  0.5234   48
 Side 2 forced transition at x/c =  1.0000   79

   2   rms: 0.2501E-01   max: -.2452E+00   C at   48  1
       a =  2.500      CL =  0.4606
      Cm = -0.0336     CD =  0.00694   =>   CDf =  0.00547    CDp =  0.00147

 Side 1  free  transition at x/c =  0.5360   49
 Side 2 forced transition at x/c =  1.0000   79

   3   rms: 0.1033E-01   max: 0.1772E+00   C at   49  1
       a =  2.500      CL =  0.4609
      Cm = -0.0337     CD =  0.00693   =>   CDf =  0.00534    CDp =  0.00159

 Side 1  free  transition at x/c =  0.5314   49
 Side 2 forced transition at x/c =  1.0000   79

   4   rms: 0.4108E-03   max: -.6442E-02   D at   52  1
       a =  2.500      CL =  0.4609
      Cm = -0.0337     CD =  0.00693   =>   CDf =  0.00537    CDp =  0.00156

 Side 1  free  transition at x/c =  0.5312   49
 Side 2 forced transition at x/c =  1.0000   79

   5   rms: 0.1358E-05   max: -.1469E-04   D at   52  1
       a =  2.500      CL =  0.4609
      Cm = -0.0337     CD =  0.00693   =>   CDf =  0.00537    CDp =  0.00156
 plradd ia,ip,cpol           14           0  2.73660216E-02

 Point added to stored polar  1
 Point written to save file  ag04_Re400k.base.pol                            
 Dump file unspecified or not available
 Calculating wake trajectory ...
 Calculating source influence matrix ...

 Solving BL system ...

 Side 1  free  transition at x/c =  0.5312   49
 Side 2 forced transition at x/c =  1.0000   79

   1   rms: 0.1246E+00   max: 0.1551E+01   C at   49  1   RLX: 0.867
       a =  3.000      CL =  0.5073
      Cm = -0.0332     CD =  0.00736   =>   CDf =  0.00528    CDp =  0.00208

 Side 1  free  transition at x/c =  0.4605   45
 Side 2 forced transition at x/c =  1.0000   78

   2   rms: 0.2676E-01   max: 0.1826E+00   D at   49  1
       a =  3.000      CL =  0.5146
      Cm = -0.0332     CD =  0.00742   =>   CDf =  0.00567    CDp =  0.00175

 Side 1  free  transition at x/c =  0.4557   45
 Side 2 forced transition at x/c =  1.0000   78

   3   rms: 0.2895E-02   max: 0.3200E-01   C at   45  1
       a =  3.000      CL =  0.5144
      Cm = -0.0332     CD =  0.00746   =>   CDf =  0.00565    CDp =  0.00181

 Side 1  free  transition at x/c =  0.4549   44
 Side 2 forced transition at x/c =  1.0000   78

   4   rms: 0.6810E-04   max: -.7494E-03   D at   47  1
       a =  3.000      CL =  0.5144
      Cm = -0.0332     CD =  0.00746   =>   CDf =  0.00565    CDp =  0.00181
 plradd ia,ip,cpol           15           0  1.84233040E-02

 Point added to stored polar  1
 Point written to save file  ag04_Re400k.base.pol                            
 Dump file unspecified or not available
 Calculating wake trajectory ...
 Calculating source influence matrix ...

 Solving BL system ...

 Side 1  free  transition at x/c =  0.4549   44
 Side 2 forced transition at x/c =  1.0000   78

   1   rms: 0.1072E+00   max: 0.1107E+01   C at   44  1
       a =  3.500      CL =  0.5692
      Cm = -0.0329     CD =  0.00782   =>   CDf =  0.00565    CDp =  0.00217

 Side 1  free  transition at x/c =  0.3752   39
 Side 2 forced transition at x/c =  1.0000   78

   2   rms: 0.2672E-01   max: -.2840E+00   C at   39  1
       a =  3.500      CL =  0.5681
      Cm = -0.0328     CD =  0.00799   =>   CDf =  0.00600    CDp =  0.00199

 Side 1  free  transition at x/c =  0.3841   39
 Side 2 forced transition at x/c =  1.0000   78

   3   rms: 0.5777E-02   max: 0.9814E-01   C at   39  1
       a =  3.500      CL =  0.5680
      Cm = -0.0328     CD =  0.00803   =>   CDf =  0.00590    CDp =  0.00213

 Side 1  free  transition at x/c =  0.3807   39
 Side 2 forced transition at x/c =  1.0000   78

   4   rms: 0.1847E-03   max: -.3141E-02   C at   39  1
       a =  3.500      CL =  0.5680
      Cm = -0.0328     CD =  0.00803   =>   CDf =  0.00592    CDp =  0.00211

 Side 1  free  transition at x/c =  0.3808   39
 Side 2 forced transition at x/c =  1.0000   78

   5   rms: 0.6913E-06   max: 0.4642E-05   C at   39  1
       a =  3.500      CL =  0.5680
      Cm = -0.0328     CD =  0.00803   =>   CDf =  0.00592    CDp =  0.00211
 plradd ia,ip,cpol           16           0  1.17315827E-02

 Point added to stored polar  1
 Point written to save file  ag04_Re400k.base.pol                            
 Dump file unspecified or not available
 Calculating wake trajectory ...
 Calculating source influence matrix ...

 Solving BL system ...

 Side 1  free  transition at x/c =  0.3808   39
 Side 2 forced transition at x/c =  1.0000   78

   1   rms: 0.1225E+00   max: 0.1541E+01   C at   39  1   RLX: 0.855
       a =  4.000      CL =  0.6141
      Cm = -0.0325     CD =  0.00852   =>   CDf =  0.00575    CDp =  0.00276

 Side 1  free  transition at x/c =  0.3190   36
 Side 2 forced transition at x/c =  1.0000   77

   2   rms: 0.2645E-01   max: -.2819E+00   D at   36  1
       a =  4.000      CL =  0.6215
      Cm = -0.0324     CD =  0.00864   =>   CDf =  0.00617    CDp =  0.00248

 Side 1  free  transition at x/c =  0.3141   35
 Side 2 forced transition at x/c =  1.0000   77

   3   rms: 0.3077E-02   max: 0.4125E-01   C at   35  1
       a =  4.000      CL =  0.6215
      Cm = -0.0324     CD =  0.00866   =>   CDf =  0.00614    CDp =  0.00253

 MRCHDU: Convergence failed at  35  side 1    Res =  0.6915E-05
 Side 1  free  transition at x/c =  0.3126   35
 Side 2 forced transition at x/c =  1.0000   77

   4   rms: 0.6226E-04   max: -.1091E-02   C at   35  1
       a =  4.000      CL =  0.6215
      Cm = -0.0324     CD =  0.00866   =>   CDf =  0.00614    CDp =  0.00252
 plradd ia,ip,cpol           17           0  7.23504322E-03

 Point added to stored polar  1
 Point written to save file  ag04_Re400k.base.pol                            
 Dump file unspecified or not available
 Calculating wake trajectory ...
 Calculating source influence matrix ...

 Solving BL system ...

 Side 1  free  transition at x/c =  0.3126   35
 Side 2 forced transition at x/c =  1.0000   77

   1   rms: 0.1171E+00   max: 0.1382E+01   C at   35  1   RLX: 0.851
       a =  4.500      CL =  0.6674
      Cm = -0.0322     CD =  0.00915   =>   CDf =  0.00614    CDp =  0.00301

 Side 1  free  transition at x/c =  0.2584   31
 Side 2 forced transition at x/c =  1.0000   77

   2   rms: 0.3144E-01   max: -.4506E+00   D at   32  1
       a =  4.500      CL =  0.6751
      Cm = -0.0321     CD =  0.00925   =>   CDf =  0.00635    CDp =  0.00290

 Side 1  free  transition at x/c =  0.2532   31
 Side 2 forced transition at x/c =  1.0000   77

   3   rms: 0.5652E-02   max: 0.9209E-01   C at   31  1
       a =  4.500      CL =  0.6748
      Cm = -0.0321     CD =  0.00933   =>   CDf =  0.00632    CDp =  0.00301

 Side 1  free  transition at x/c =  0.2512   31
 Side 2 forced transition at x/c =  1.0000   77

   4   rms: 0.2124E-03   max: -.4721E-02   D at   32  1
       a =  4.500      CL =  0.6748
      Cm = -0.0321     CD =  0.00933   =>   CDf =  0.00634    CDp =  0.00299

 Side 1  free  transition at x/c =  0.2511   31
 Side 2 forced transition at x/c =  1.0000   77

   5   rms: 0.8636E-06   max: -.7813E-05   C at   31  1
       a =  4.500      CL =  0.6748
      Cm = -0.0321     CD =  0.00933   =>   CDf =  0.00634    CDp =  0.00299
 plradd ia,ip,cpol           18           0  4.29812027E-03

 Point added to stored polar  1
 Point written to save file  ag04_Re400k.base.pol                            
 Dump file unspecified or not available
 Calculating wake trajectory ...
 Calculating source influence matrix ...

 Solving BL system ...

 Side 1  free  transition at x/c =  0.2511   31
 Side 2 forced transition at x/c =  1.0000   77

   1   rms: 0.1354E+00   max: 0.1606E+01   C at   31  1   RLX: 0.559
       a =  5.000      CL =  0.7042
      Cm = -0.0319     CD =  0.00982   =>   CDf =  0.00611    CDp =  0.00371

 Side 1  free  transition at x/c =  0.2199   29
 Side 2 forced transition at x/c =  1.0000   76

   2   rms: 0.6376E-01   max: 0.7381E+00   T at    2  1
       a =  5.000      CL =  0.7288
      Cm = -0.0318     CD =  0.00988   =>   CDf =  0.00644    CDp =  0.00344

 Side 1  free  transition at x/c =  0.1921   27
 Side 2 forced transition at x/c =  1.0000   76

   3   rms: 0.9016E-02   max: -.1523E+00   C at   27  1
       a =  5.000      CL =  0.7277
      Cm = -0.0318     CD =  0.01009   =>   CDf =  0.00655    CDp =  0.00354

 Side 1  free  transition at x/c =  0.1946   28
 Side 2 forced transition at x/c =  1.0000   76

   4   rms: 0.4230E-02   max: -.5767E-01   C at   28  1
       a =  5.000      CL =  0.7279
      Cm = -0.0318     CD =  0.01006   =>   CDf =  0.00652    CDp =  0.00354

 Side 1  free  transition at x/c =  0.1950   28
 Side 2 forced transition at x/c =  1.0000   76

   5   rms: 0.3526E-03   max: 0.5413E-02   C at   28  1
       a =  5.000      CL =  0.7279
      Cm = -0.0318     CD =  0.01007   =>   CDf =  0.00650    CDp =  0.00357

 Side 1  free  transition at x/c =  0.1949   28
 Side 2 forced transition at x/c =  1.0000   76

   6   rms: 0.1827E-05   max: 0.1794E-04   C at   28  1
       a =  5.000      CL =  0.7279
      Cm = -0.0318     CD =  0.01007   =>   CDf =  0.00650    CDp =  0.00356
 plradd ia,ip,cpol           19           0  3.04270448E-04

 Point added to stored polar  1
 Point written to save file  ag04_Re400k.base.pol                            
 Dump file unspecified or not available
 Calculating wake trajectory ...
 Calculating source influence matrix ...

 Solving BL system ...

 Side 1  free  transition at x/c =  0.1949   28
 Side 2 forced transition at x/c =  1.0000   76

   1   rms: 0.1398E+00   max: 0.1421E+01   C at   28  1   RLX: 0.492
       a =  5.500      CL =  0.7533
      Cm = -0.0316     CD =  0.01059   =>   CDf =  0.00650    CDp =  0.00409

 Side 1  free  transition at x/c =  0.1705   26
 Side 2 forced transition at x/c =  1.0000   76

   2   rms: 0.6349E-01   max: -.5180E+00   D at   26  1   RLX: 0.965
       a =  5.500      CL =  0.7796
      Cm = -0.0314     CD =  0.01088   =>   CDf =  0.00656    CDp =  0.00432

 Side 1  free  transition at x/c =  0.1441   24
 Side 2 forced transition at x/c =  1.0000   76

   3   rms: 0.1920E-01   max: -.2361E+00   D at   26  1
       a =  5.500      CL =  0.7805
      Cm = -0.0314     CD =  0.01088   =>   CDf =  0.00665    CDp =  0.00423

 Side 1  free  transition at x/c =  0.1437   24
 Side 2 forced transition at x/c =  1.0000   76

   4   rms: 0.2797E-02   max: 0.4414E-01   C at   24  1
       a =  5.500      CL =  0.7805
      Cm = -0.0314     CD =  0.01088   =>   CDf =  0.00664    CDp =  0.00424

 Side 1  free  transition at x/c =  0.1427   24
 Side 2 forced transition at x/c =  1.0000   76

   5   rms: 0.3260E-04   max: 0.1671E-03   D at   27  1
       a =  5.500      CL =  0.7805
      Cm = -0.0314     CD =  0.01088   =>   CDf =  0.00665    CDp =  0.00423
 plradd ia,ip,cpol           20           0  3.04270448E-04

 Point added to stored polar  1
 Point written to save file  ag04_Re400k.base.pol                            
 Dump file unspecified or not available
 Calculating wake trajectory ...
 Calculating source influence matrix ...

 Solving BL system ...

 Side 1  free  transition at x/c =  0.1427   24
 Side 2 forced transition at x/c =  1.0000   76

   1   rms: 0.1411E+00   max: 0.1409E+01   C at   24  1   RLX: 0.446
       a =  6.000      CL =  0.8034
      Cm = -0.0312     CD =  0.01139   =>   CDf =  0.00665    CDp =  0.00474

 Side 1  free  transition at x/c =  0.1219   22
 Side 2 forced transition at x/c =  1.0000   76

   2   rms: 0.6146E-01   max: -.4768E+00   D at   22  1
       a =  6.000      CL =  0.8332
      Cm = -0.0310     CD =  0.01172   =>   CDf =  0.00643    CDp =  0.00528

 Side 1  free  transition at x/c =  0.0952   21
 Side 2 forced transition at x/c =  1.0000   75

   3   rms: 0.2112E-01   max: -.2605E+00   D at   21  1
       a =  6.000      CL =  0.8323
      Cm = -0.0310     CD =  0.01186   =>   CDf =  0.00680    CDp =  0.00507

 Side 1  free  transition at x/c =  0.0942   21
 Side 2 forced transition at x/c =  1.0000   75

   4   rms: 0.3405E-02   max: 0.5047E-01   C at   21  1
       a =  6.000      CL =  0.8323
      Cm = -0.0310     CD =  0.01186   =>   CDf =  0.00678    CDp =  0.00508

 Side 1  free  transition at x/c =  0.0931   21
 Side 2 forced transition at x/c =  1.0000   75

   5   rms: 0.6301E-04   max: -.8297E-03   C at   21  1
       a =  6.000      CL =  0.8323
      Cm = -0.0310     CD =  0.01186   =>   CDf =  0.00679    CDp =  0.00508
 plradd ia,ip,cpol           21           0  3.04270448E-04

 Point added to stored polar  1
 Point written to save file  ag04_Re400k.base.pol                            
 Dump file unspecified or not available
 Calculating wake trajectory ...
 Calculating source influence matrix ...

 Solving BL system ...

 Side 1  free  transition at x/c =  0.0931   21
 Side 2 forced transition at x/c =  1.0000   75

   1   rms: 0.1343E+00   max: 0.1225E+01   C at   21  1   RLX: 0.443
       a =  6.500      CL =  0.8550
      Cm = -0.0308     CD =  0.01238   =>   CDf =  0.00678    CDp =  0.00559

 Side 1  free  transition at x/c =  0.0758   20
 Side 2 forced transition at x/c =  1.0000   75

   2   rms: 0.9391E-01   max: -.8135E+00   D at   21  1   RLX: 0.615
       a =  6.500      CL =  0.8718
      Cm = -0.0305     CD =  0.01302   =>   CDf =  0.00688    CDp =  0.00614

 Side 1  free  transition at x/c =  0.0624   19
 Side 2 forced transition at x/c =  1.0000   75

   3   rms: 0.5302E-01   max: 0.3964E+00   C at   19  1
       a =  6.500      CL =  0.8819
      Cm = -0.0303     CD =  0.01350   =>   CDf =  0.00696    CDp =  0.00654

 Side 1  free  transition at x/c =  0.0524   18
 Side 2 forced transition at x/c =  1.0000   75

   4   rms: 0.6857E-01   max: -.6570E+00   D at   18  1   RLX: 0.761
       a =  6.500      CL =  0.8827
      Cm = -0.0307     CD =  0.01312   =>   CDf =  0.00686    CDp =  0.00626

 Side 1  free  transition at x/c =  0.0553   18
 Side 2 forced transition at x/c =  1.0000   75

   5   rms: 0.1139E-01   max: -.2151E+00   D at   18  1
       a =  6.500      CL =  0.8832
      Cm = -0.0304     CD =  0.01308   =>   CDf =  0.00687    CDp =  0.00621

 Side 1  free  transition at x/c =  0.0545   18
 Side 2 forced transition at x/c =  1.0000   75

   6   rms: 0.9354E-03   max: 0.4725E-02   T at   19  1
       a =  6.500      CL =  0.8831
      Cm = -0.0304     CD =  0.01312   =>   CDf =  0.00691    CDp =  0.00621

 Side 1  free  transition at x/c =  0.0544   18
 Side 2 forced transition at x/c =  1.0000   75

   7   rms: 0.3321E-05   max: -.5333E-04   D at   18  1
       a =  6.500      CL =  0.8831
      Cm = -0.0304     CD =  0.01312   =>   CDf =  0.00691    CDp =  0.00621
 plradd ia,ip,cpol           22           0  3.04270448E-04

 Point added to stored polar  1
 Point written to save file  ag04_Re400k.base.pol                            
 Dump file unspecified or not available
 Calculating wake trajectory ...
 Calculating source influence matrix ...

 Solving BL system ...

 Side 1  free  transition at x/c =  0.0544   18
 Side 2 forced transition at x/c =  1.0000   75

   1   rms: 0.1418E+00   max: -.1387E+01   D at   18  1   RLX: 0.361
       a =  7.000      CL =  0.9009
      Cm = -0.0301     CD =  0.01370   =>   CDf =  0.00691    CDp =  0.00679

 Side 1  free  transition at x/c =  0.0460   17
 Side 2 forced transition at x/c =  1.0000   75

   2   rms: 0.8048E-01   max: -.6699E+00   D at   17  1   RLX: 0.746
       a =  7.000      CL =  0.9273
      Cm = -0.0300     CD =  0.01380   =>   CDf =  0.00685    CDp =  0.00695

 Side 1  free  transition at x/c =  0.0372   16
 Side 2 forced transition at x/c =  1.0000   75

   3   rms: 0.4359E-01   max: -.4165E+00   C at   16  1
       a =  7.000      CL =  0.9344
      Cm = -0.0297     CD =  0.01421   =>   CDf =  0.00684    CDp =  0.00738

 Side 1  free  transition at x/c =  0.0333   16
 Side 2 forced transition at x/c =  1.0000   75

   4   rms: 0.5058E-02   max: -.4448E-01   D at   17  1
       a =  7.000      CL =  0.9328
      Cm = -0.0296     CD =  0.01460   =>   CDf =  0.00686    CDp =  0.00774

 Side 1  free  transition at x/c =  0.0325   16
 Side 2 forced transition at x/c =  1.0000   75

   5   rms: 0.2459E-03   max: -.3173E-02   D at   16  1
       a =  7.000      CL =  0.9328
      Cm = -0.0296     CD =  0.01461   =>   CDf =  0.00687    CDp =  0.00774

 Side 1  free  transition at x/c =  0.0325   16
 Side 2 forced transition at x/c =  1.0000   75

   6   rms: 0.2176E-05   max: -.6616E-05   C at   35  1
       a =  7.000      CL =  0.9328
      Cm = -0.0296     CD =  0.01461   =>   CDf =  0.00687    CDp =  0.00774
 plradd ia,ip,cpol           23           0  3.92253742E-06

 Point added to stored polar  1
 Point written to save file  ag04_Re400k.base.pol                            
 Dump file unspecified or not available
 Calculating wake trajectory ...
 Calculating source influence matrix ...

 Solving BL system ...

 Side 1  free  transition at x/c =  0.0325   16
 Side 2 forced transition at x/c =  1.0000   75

   1   rms: 0.1167E+00   max: -.9196E+00   D at   16  1   RLX: 0.544
       a =  7.500      CL =  0.9601
      Cm = -0.0292     CD =  0.01533   =>   CDf =  0.00687    CDp =  0.00846

 MRCHDU: Convergence failed at  16  side 1    Res =  0.1750E+01
 MRCHDU: Convergence failed at  17  side 1    Res =  0.1719E+01
 MRCHDU: Convergence failed at  18  side 1    Res =  0.1264E+01
 MRCHDU: Convergence failed at  19  side 1    Res =  0.1677E+01
 MRCHDU: Convergence failed at  20  side 1    Res =  0.2985E+01
 MRCHDU: Convergence failed at  21  side 1    Res =  0.3615E+01
 MRCHDU: Convergence failed at  22  side 1    Res =  0.4048E+01
 MRCHDU: Convergence failed at  23  side 1    Res =  0.4004E+01
 MRCHDU: Convergence failed at  24  side 1    Res =  0.4852E+01
 MRCHDU: Convergence failed at  25  side 1    Res =  0.5861E+01
 MRCHDU: Convergence failed at  26  side 1    Res =  0.7074E+01
 MRCHDU: Convergence failed at  27  side 1    Res =  0.8571E+01
 MRCHDU: Convergence failed at  28  side 1    Res =  0.1928E+02
 MRCHDU: Convergence failed at  29  side 1    Res =  0.2091E+02
 MRCHDU: Convergence failed at  30  side 1    Res =  0.2314E+02
 MRCHDU: Convergence failed at  31  side 1    Res =  0.2589E+02
 MRCHDU: Convergence failed at  32  side 1    Res =  0.2877E+02
 MRCHDU: Convergence failed at  33  side 1    Res =  0.3241E+02
 MRCHDU: Convergence failed at  34  side 1    Res =  0.3616E+02
 MRCHDU: Convergence failed at  35  side 1    Res =  0.4139E+02
 MRCHDU: Convergence failed at  36  side 1    Res =  0.4554E+02
 MRCHDU: Convergence failed at  37  side 1    Res =  0.4373E+02
 MRCHDU: Convergence failed at  38  side 1    Res =  0.4750E+02
 MRCHDU: Convergence failed at  39  side 1    Res =  0.1899E+02
 MRCHDU: Convergence failed at  40  side 1    Res =  0.1940E+02
 MRCHDU: Convergence failed at  41  side 1    Res =  0.1988E+02
 MRCHDU: Convergence failed at  42  side 1    Res =  0.2160E+02
 MRCHDU: Convergence failed at  43  side 1    Res =  0.2205E+02
 MRCHDU: Convergence failed at  44  side 1    Res =  0.2268E+02
 MRCHDU: Convergence failed at  45  side 1    Res =  0.2323E+02
 MRCHDU: Convergence failed at  46  side 1    Res =  0.3173E+02
 MRCHDU: Convergence failed at  47  side 1    Res =  0.5673E+02
 MRCHDU: Convergence failed at  48  side 1    Res =  0.5232E+02
 MRCHDU: Convergence failed at  49  side 1    Res =  0.5718E+02
 MRCHDU: Convergence failed at  50  side 1    Res =  0.5854E+02
 MRCHDU: Convergence failed at  51  side 1    Res =  0.5972E+02
 MRCHDU: Convergence failed at  52  side 1    Res =  0.6571E+02
 MRCHDU: Convergence failed at  53  side 1    Res =  0.6589E+02
 MRCHDU: Convergence failed at  54  side 1    Res =  0.4730E+02
 MRCHDU: Convergence failed at  55  side 1    Res =  0.5130E+02
 MRCHDU: Convergence failed at  56  side 1    Res =  0.5613E+02
 MRCHDU: Convergence failed at  57  side 1    Res =  0.6144E+02
 MRCHDU: Convergence failed at  58  side 1    Res =  0.6796E+02
 MRCHDU: Convergence failed at  59  side 1    Res =  0.7621E+02
 MRCHDU: Convergence failed at  60  side 1    Res =  0.8517E+02
 MRCHDU: Convergence failed at  61  side 1    Res =  0.4333E+02
 MRCHDU: Convergence failed at  62  side 1    Res =  0.4651E+02
 MRCHDU: Convergence failed at  63  side 1    Res =  0.5031E+02
 MRCHDU: Convergence failed at  64  side 1    Res =  0.5443E+02
 MRCHDU: Convergence failed at  65  side 1    Res =  0.5932E+02
 MRCHDU: Convergence failed at  66  side 1    Res =  0.6507E+02
 MRCHDU: Convergence failed at  67  side 1    Res =  0.7203E+02
 MRCHDU: Convergence failed at  68  side 1    Res =  0.8017E+02
 MRCHDU: Convergence failed at  69  side 1    Res =  0.5298E+02
 MRCHDU: Convergence failed at  70  side 1    Res =  0.5765E+02
 MRCHDU: Convergence failed at  71  side 1    Res =  0.6304E+02
 MRCHDU: Convergence failed at  72  side 1    Res =  0.6987E+02
 MRCHDU: Convergence failed at  73  side 1    Res =  0.7808E+02
 MRCHDU: Convergence failed at  74  side 1    Res =  0.8899E+02
 MRCHDU: Convergence failed at  75  side 1    Res =  0.4297E+02
 MRCHDU: Convergence failed at  76  side 1    Res =  0.1139E+03
 MRCHDU: Convergence failed at  77  side 1    Res =  0.1371E+03
 MRCHDU: Convergence failed at  78  side 1    Res =  0.1124E+03
 MRCHDU: Convergence failed at  79  side 1    Res =  0.9549E+02
 MRCHDU: Convergence failed at  80  side 1    Res =  0.8289E+02
 MRCHDU: Convergence failed at  81  side 1    Res =  0.5270E+02
 MRCHDU: Convergence failed at  82  side 1    Res =  0.4582E+02
 MRCHDU: Convergence failed at  83  side 1    Res =  0.5026E+02
 MRCHDU: Convergence failed at  84  side 1    Res =  0.5556E+02
 MRCHDU: Convergence failed at  85  side 1    Res =  0.6350E+02
 MRCHDU: Convergence failed at  86  side 1    Res =  0.7881E+02
 MRCHDU: Convergence failed at  87  side 1    Res =  0.1400E+03
 Side 1  free  transition at x/c =  0.0265   15
 Side 2 forced transition at x/c =  1.0000   75

   2   rms: 0.2225E+01   max: -.8012E+01   C at   75  2   RLX: 0.062
       a =  7.500      CL =  3.0902
      Cm = -0.7223     CD =  0.00364   =>   CDf =  0.00145    CDp =  0.00220

 MRCHDU: Convergence failed at  18  side 1    Res =  0.1211E+00
 MRCHDU: Convergence failed at  19  side 1    Res =  0.1269E+00
 MRCHDU: Convergence failed at  20  side 1    Res =  0.1285E+00
 MRCHDU: Convergence failed at  21  side 1    Res =  0.1306E+00
 MRCHDU: Convergence failed at  22  side 1    Res =  0.1313E+00
 MRCHDU: Convergence failed at  23  side 1    Res =  0.1312E+00
 MRCHDU: Convergence failed at  24  side 1    Res =  0.1305E+00
 MRCHDU: Convergence failed at  25  side 1    Res =  0.1296E+00
 MRCHDU: Convergence failed at  26  side 1    Res =  0.1284E+00
 MRCHDU: Convergence failed at  27  side 1    Res =  0.1270E+00
 MRCHDU: Convergence failed at  28  side 1    Res =  0.1255E+00
 MRCHDU: Convergence failed at  29  side 1    Res =  0.1237E+00
 MRCHDU: Convergence failed at  30  side 1    Res =  0.1219E+00
 MRCHDU: Convergence failed at  31  side 1    Res =  0.1199E+00
 MRCHDU: Convergence failed at  32  side 1    Res =  0.1178E+00
 MRCHDU: Convergence failed at  33  side 1    Res =  0.1157E+00
 MRCHDU: Convergence failed at  34  side 1    Res =  0.1134E+00
 MRCHDU: Convergence failed at  35  side 1    Res =  0.1112E+00
 MRCHDU: Convergence failed at  36  side 1    Res =  0.1089E+00
 MRCHDU: Convergence failed at  37  side 1    Res =  0.1065E+00
 MRCHDU: Convergence failed at  38  side 1    Res =  0.1045E+00
 MRCHDU: Convergence failed at  39  side 1    Res =  0.1018E+00
 MRCHDU: Convergence failed at  40  side 1    Res =  0.9922E-01
 MRCHDU: Convergence failed at  41  side 1    Res =  0.9796E+00
 MRCHDU: Convergence failed at  42  side 1    Res =  0.9018E+00
 MRCHDU: Convergence failed at  43  side 1    Res =  0.6144E+01
 MRCHDU: Convergence failed at  44  side 1    Res =  0.5289E+01
 MRCHDU: Convergence failed at  45  side 1    Res =  0.4651E+01
 MRCHDU: Convergence failed at  46  side 1    Res =  0.4149E+01
 MRCHDU: Convergence failed at  47  side 1    Res =  0.3743E+01
 MRCHDU: Convergence failed at  48  side 1    Res =  0.3320E+01
 MRCHDU: Convergence failed at  49  side 1    Res =  0.2576E+01
 MRCHDU: Convergence failed at  50  side 1    Res =  0.2144E+01
 MRCHDU: Convergence failed at  51  side 1    Res =  0.1557E+01
 MRCHDU: Convergence failed at  52  side 1    Res =  0.9857E+00
 MRCHDU: Convergence failed at  53  side 1    Res =  0.8574E+00
 MRCHDU: Convergence failed at  54  side 1    Res =  0.8474E+00
 MRCHDU: Convergence failed at  55  side 1    Res =  0.6905E+01
 MRCHDU: Convergence failed at  56  side 1    Res =  0.7542E+00
 MRCHDU: Convergence failed at  57  side 1    Res =  0.1475E+01
 MRCHDU: Convergence failed at  62  side 1    Res =  0.2293E+00
 MRCHDU: Convergence failed at  63  side 1    Res =  0.2236E+00
 MRCHDU: Convergence failed at  64  side 1    Res =  0.2181E+00
 MRCHDU: Convergence failed at  65  side 1    Res =  0.2131E+00
 MRCHDU: Convergence failed at  66  side 1    Res =  0.2082E+00
 MRCHDU: Convergence failed at  67  side 1    Res =  0.2040E+00
 MRCHDU: Convergence failed at  68  side 1    Res =  0.2002E+00
 MRCHDU: Convergence failed at  69  side 1    Res =  0.1975E+00
 MRCHDU: Convergence failed at  70  side 1    Res =  0.1959E+00
 MRCHDU: Convergence failed at  71  side 1    Res =  0.1957E+00
 MRCHDU: Convergence failed at  72  side 1    Res =  0.1970E+00
 MRCHDU: Convergence failed at  73  side 1    Res =  0.1992E+00
 MRCHDU: Convergence failed at  74  side 1    Res =  0.2029E+00
 MRCHDU: Convergence failed at  75  side 1    Res =  0.2072E+00
 MRCHDU: Convergence failed at  76  side 1    Res =  0.2129E+00
 MRCHDU: Convergence failed at  77  side 1    Res =  0.2200E+00
 MRCHDU: Convergence failed at  78  side 1    Res =  0.2281E+00
 MRCHDU: Convergence failed at  79  side 1    Res =  0.2385E+00
 MRCHDU: Convergence failed at  80  side 1    Res =  0.2504E+00
 MRCHDU: Convergence failed at  81  side 1    Res =  0.2627E+00
 MRCHDU: Convergence failed at  82  side 1    Res =  0.2762E+00
 MRCHDU: Convergence failed at  83  side 1    Res =  0.2910E+00
 MRCHDU: Convergence failed at  84  side 1    Res =  0.3070E+00
 MRCHDU: Convergence failed at  85  side 1    Res =  0.3220E+00
 MRCHDU: Convergence failed at  86  side 1    Res =  0.3320E+00
 MRCHDU: Convergence failed at  87  side 1    Res =  0.2677E+00
 Side 1  free  transition at x/c =  0.0253   15
 Side 2 forced transition at x/c =  1.0000   75

   3   rms: 0.7683E+00   max: 0.7512E+00   D at   82  2   RLX: 0.235
       a =  7.500      CL =  1.9816
      Cm = -0.3809     CD =  0.01135   =>   CDf =  0.00841    CDp =  0.00294

 MRCHDU: Convergence failed at  40  side 1    Res =  0.2431E+00
 MRCHDU: Convergence failed at  41  side 1    Res =  0.2134E+00
 MRCHDU: Convergence failed at  42  side 1    Res =  0.2064E+00
 MRCHDU: Convergence failed at  43  side 1    Res =  0.2046E+00
 MRCHDU: Convergence failed at  44  side 1    Res =  0.2034E+00
 MRCHDU: Convergence failed at  45  side 1    Res =  0.2024E+00
 MRCHDU: Convergence failed at  46  side 1    Res =  0.2010E+00
 MRCHDU: Convergence failed at  47  side 1    Res =  0.1993E+00
 MRCHDU: Convergence failed at  48  side 1    Res =  0.1977E+00
 MRCHDU: Convergence failed at  49  side 1    Res =  0.1962E+00
 MRCHDU: Convergence failed at  50  side 1    Res =  0.1946E+00
 MRCHDU: Convergence failed at  51  side 1    Res =  0.1933E+00
 MRCHDU: Convergence failed at  52  side 1    Res =  0.1929E+00
 MRCHDU: Convergence failed at  53  side 1    Res =  0.1941E+00
 MRCHDU: Convergence failed at  54  side 1    Res =  0.1973E+00
 MRCHDU: Convergence failed at  55  side 1    Res =  0.2054E+00
 MRCHDU: Convergence failed at  56  side 1    Res =  0.2278E+00
 MRCHDU: Convergence failed at  57  side 1    Res =  0.2987E+00
 Side 1  free  transition at x/c =  0.0269   15
 Side 2 forced transition at x/c =  1.0000   75

   4   rms: 0.4572E+00   max: 0.7190E+00   C at   75  2   RLX: 0.388
       a =  7.500      CL =  1.3688
      Cm = -0.1624     CD =  0.02019   =>   CDf =  0.00470    CDp =  0.01549

 Side 1  free  transition at x/c =  0.0264   16
 Side 2 forced transition at x/c =  1.0000   74

   5   rms: 0.4228E+00   max: 0.4268E+01   T at    2  1   RLX: 0.233
       a =  7.500      CL =  1.2707
      Cm = -0.1232     CD =  0.01491   =>   CDf =  0.00725    CDp =  0.00766

 Side 1  free  transition at x/c =  0.0231   16
 Side 2 forced transition at x/c =  1.0000   74

   6   rms: 0.3893E+00   max: -.2046E+01   D at   18  1   RLX: 0.244
       a =  7.500      CL =  1.2159
      Cm = -0.1030     CD =  0.01425   =>   CDf =  0.00684    CDp =  0.00742

 Side 1  free  transition at x/c =  0.0224   16
 Side 2 forced transition at x/c =  1.0000   74

   7   rms: 0.2934E+00   max: -.1598E+01   D at   17  1   RLX: 0.313
       a =  7.500      CL =  1.1698
      Cm = -0.0837     CD =  0.01388   =>   CDf =  0.00697    CDp =  0.00691

 MRCHDU: Convergence failed at  36  side 1    Res =  0.2440E+00
 Side 1  free  transition at x/c =  0.0199   16
 Side 2 forced transition at x/c =  1.0000   74

   8   rms: 0.4267E+00   max: 0.3624E+01   C at   74  2   RLX: 0.414
       a =  7.500      CL =  1.1858
      Cm = -0.0768     CD =  0.01663   =>   CDf =  0.00708    CDp =  0.00955

 MRCHDU: Convergence failed at  16  side 1    Res =  0.5110E+02
 MRCHDU: Convergence failed at  17  side 1    Res =  0.3052E+02
 MRCHDU: Convergence failed at  18  side 1    Res =  0.4410E+02
 MRCHDU: Convergence failed at  19  side 1    Res =  0.4824E+02
 MRCHDU: Convergence failed at  20  side 1    Res =  0.2044E+03
 MRCHDU: Convergence failed at  21  side 1    Res =  0.1436E+03
 MRCHDU: Convergence failed at  22  side 1    Res =  0.7365E+02
 MRCHDU: Convergence failed at  23  side 1    Res =  0.5541E+02
 MRCHDU: Convergence failed at  24  side 1    Res =  0.1603E+03
 MRCHDU: Convergence failed at  25  side 1    Res =  0.6120E+03
 MRCHDU: Convergence failed at  26  side 1    Res =  0.1594E+03
 MRCHDU: Convergence failed at  27  side 1    Res =  0.1076E+03
 MRCHDU: Convergence failed at  28  side 1    Res =  0.5607E+02
 MRCHDU: Convergence failed at  29  side 1    Res =  0.5003E+02
 MRCHDU: Convergence failed at  30  side 1    Res =  0.4690E+02
 MRCHDU: Convergence failed at  31  side 1    Res =  0.4526E+02
 MRCHDU: Convergence failed at  32  side 1    Res =  0.4535E+02
 MRCHDU: Convergence failed at  33  side 1    Res =  0.4797E+02
 MRCHDU: Convergence failed at  34  side 1    Res =  0.2357E+04
 MRCHDU: Convergence failed at  35  side 1    Res =  0.1098E+03
 MRCHDU: Convergence failed at  36  side 1    Res =  0.7304E+03
 MRCHDU: Convergence failed at  37  side 1    Res =  0.4630E+02
 MRCHDU: Convergence failed at  38  side 1    Res =  0.4663E+02
 MRCHDU: Convergence failed at  39  side 1    Res =  0.4307E+02
 MRCHDU: Convergence failed at  40  side 1    Res =  0.4677E+02
 MRCHDU: Convergence failed at  41  side 1    Res =  0.4276E+02
 MRCHDU: Convergence failed at  42  side 1    Res =  0.4848E+02
 MRCHDU: Convergence failed at  43  side 1    Res =  0.4708E+02
 MRCHDU: Convergence failed at  44  side 1    Res =  0.6074E+02
 MRCHDU: Convergence failed at  45  side 1    Res =  0.4616E+02
 MRCHDU: Convergence failed at  46  side 1    Res =  0.4406E+02
 MRCHDU: Convergence failed at  47  side 1    Res =  0.4006E+02
 MRCHDU: Convergence failed at  48  side 1    Res =  0.4292E+02
 MRCHDU: Convergence failed at  49  side 1    Res =  0.4580E+02
 MRCHDU: Convergence failed at  50  side 1    Res =  0.5317E+02
 MRCHDU: Convergence failed at  51  side 1    Res =  0.5549E+02
 MRCHDU: Convergence failed at  52  side 1    Res =  0.5786E+02
 MRCHDU: Convergence failed at  53  side 1    Res =  0.6033E+02
 MRCHDU: Convergence failed at  54  side 1    Res =  0.6278E+02
 MRCHDU: Convergence failed at  55  side 1    Res =  0.4760E+02
 MRCHDU: Convergence failed at  56  side 1    Res =  0.4919E+02
 MRCHDU: Convergence failed at  57  side 1    Res =  0.4683E+02
 MRCHDU: Convergence failed at  58  side 1    Res =  0.4827E+02
 MRCHDU: Convergence failed at  59  side 1    Res =  0.5102E+02
 MRCHDU: Convergence failed at  60  side 1    Res =  0.5334E+02
 MRCHDU: Convergence failed at  61  side 1    Res =  0.5578E+02
 MRCHDU: Convergence failed at  62  side 1    Res =  0.5846E+02
 MRCHDU: Convergence failed at  63  side 1    Res =  0.6109E+02
 MRCHDU: Convergence failed at  64  side 1    Res =  0.6386E+02
 MRCHDU: Convergence failed at  65  side 1    Res =  0.6832E+02
 MRCHDU: Convergence failed at  66  side 1    Res =  0.7096E+02
 MRCHDU: Convergence failed at  67  side 1    Res =  0.7340E+02
 MRCHDU: Convergence failed at  68  side 1    Res =  0.7547E+02
 MRCHDU: Convergence failed at  69  side 1    Res =  0.7687E+02
 MRCHDU: Convergence failed at  70  side 1    Res =  0.7725E+02
 MRCHDU: Convergence failed at  71  side 1    Res =  0.7622E+02
 MRCHDU: Convergence failed at  72  side 1    Res =  0.7268E+02
 MRCHDU: Convergence failed at  73  side 1    Res =  0.6160E+02
 MRCHDU: Convergence failed at  74  side 1    Res =  0.3746E+02
 MRCHDU: Convergence failed at  75  side 1    Res =  0.1154E+03
 MRCHDU: Convergence failed at  76  side 1    Res =  0.1393E+03
 MRCHDU: Convergence failed at  77  side 1    Res =  0.1206E+03
 MRCHDU: Convergence failed at  78  side 1    Res =  0.1144E+03
 MRCHDU: Convergence failed at  79  side 1    Res =  0.1189E+03
 MRCHDU: Convergence failed at  80  side 1    Res =  0.1337E+03
 MRCHDU: Convergence failed at  81  side 1    Res =  0.1608E+03
 MRCHDU: Convergence failed at  82  side 1    Res =  0.1006E+03
 MRCHDU: Convergence failed at  83  side 1    Res =  0.9685E+02
 MRCHDU: Convergence failed at  84  side 1    Res =  0.9385E+02
 MRCHDU: Convergence failed at  85  side 1    Res =  0.5276E+02
 MRCHDU: Convergence failed at  86  side 1    Res =  0.5817E+02
 MRCHDU: Convergence failed at  87  side 1    Res =  0.2079E+03
 MRCHDU: Convergence failed at  88  side 1    Res =  0.1126E+03
 MRCHDU: Convergence failed at  76  side 2    Res =  0.4064E+00
 MRCHDU: Convergence failed at  77  side 2    Res =  0.3981E+00
 MRCHDU: Convergence failed at  78  side 2    Res =  0.3999E+00
 MRCHDU: Convergence failed at  79  side 2    Res =  0.3934E+00
 MRCHDU: Convergence failed at  80  side 2    Res =  0.3871E+00
 MRCHDU: Convergence failed at  81  side 2    Res =  0.3812E+00
 MRCHDU: Convergence failed at  82  side 2    Res =  0.3704E+00
 MRCHDU: Convergence failed at  83  side 2    Res =  0.3393E+00
 MRCHDU: Convergence failed at  84  side 2    Res =  0.2833E+00
 MRCHDU: Convergence failed at  85  side 2    Res =  0.2029E+00
 MRCHDU: Convergence failed at  86  side 2    Res =  0.1007E+00
 Side 1  free  transition at x/c =  0.0145   15
 Side 2 forced transition at x/c =  1.0000   74

   9   rms: 0.1694E+01   max: 0.4944E+01   D at   87  2   RLX: 0.102
       a =  7.500      CL =  3.7238
      Cm = -0.8846     CD =  0.00327   =>   CDf =  0.00132    CDp =  0.00195

 Side 1  free  transition at x/c =  0.0179   15
 Side 2 forced transition at x/c =  1.0000   74

  10   rms: 0.9768E+00   max: 0.4673E+01   D at   87  2   RLX: 0.187
       a =  7.500      CL =  2.4525
      Cm = -0.5231     CD =  0.04551   =>   CDf =  0.00202    CDp =  0.04349

 Side 1  free  transition at x/c =  0.0171   15
 Side 2 forced transition at x/c =  1.0000   74

  11   rms: 0.3577E+01   max: 0.3181E+02   T at   15  1   RLX: 0.016
       a =  7.500      CL =  2.4432
      Cm = -0.5057     CD =  0.05922   =>   CDf =  0.00208    CDp =  0.05714

 Side 1  free  transition at x/c =  0.0153   15
 Side 2 forced transition at x/c =  1.0000   74
 idif Ue xi dudx           1  0.25569394      8.41021538E-03   30.402782    
 Uenew xinew           2  3.62574384E-02  1.19256973E-03

  12   rms: 0.7815E+00   max: 0.1502E+01   D at   88  2   RLX: 0.241
       a =  7.500      CL =  2.0158
      Cm = -0.3898     CD =  0.06153   =>   CDf =  0.00230    CDp =  0.05923

 Side 1  free  transition at x/c =  0.0197   15
 Side 2 forced transition at x/c =  1.0000   75

  13   rms: 0.6789E+00   max: -.2973E+01   T at   15  1   RLX: 0.168
       a =  7.500      CL =  1.7824
      Cm = -0.3200     CD =  0.07781   =>   CDf =  0.00222    CDp =  0.07559

 Side 1  free  transition at x/c =  0.0219   15
 Side 2 forced transition at x/c =  1.0000   75

  14   rms: 0.5990E+00   max: -.4275E+01   T at   15  1   RLX: 0.117
       a =  7.500      CL =  1.6425
      Cm = -0.2832     CD =  0.08745   =>   CDf =  0.00228    CDp =  0.08517

 Side 1  free  transition at x/c =  0.0238   15
 Side 2 forced transition at x/c =  1.0000   75

  15   rms: 0.5574E+00   max: -.2568E+01   T at   15  1   RLX: 0.195
       a =  7.500      CL =  1.4383
      Cm = -0.2323     CD =  0.08809   =>   CDf =  0.00232    CDp =  0.08577

 Side 1  free  transition at x/c =  0.0241   15
 Side 2 forced transition at x/c =  1.0000   75

  16   rms: 0.4894E+00   max: 0.1899E+01   C at   75  2   RLX: 0.306
       a =  7.500      CL =  1.1784
      Cm = -0.1651     CD =  0.08400   =>   CDf =  0.00242    CDp =  0.08157

 Side 1  free  transition at x/c =  0.0259   15
 Side 2 forced transition at x/c =  1.0000   75
 idif Ue xi dudx           1  0.21274239      5.03563881E-03   42.247349    
 Uenew xinew           2  5.10174781E-03  1.20759010E-04

  17   rms: 0.4125E+00   max: 0.1781E+01   C at   75  2   RLX: 0.490
       a =  7.500      CL =  0.9129
      Cm = -0.0925     CD =  0.07048   =>   CDf =  0.00287    CDp =  0.06761

 MRCHDU: Convergence failed at  19  side 1    Res =  0.1208E+01
 MRCHDU: Convergence failed at  20  side 1    Res =  0.1893E+01
 MRCHDU: Convergence failed at  21  side 1    Res =  0.1981E+01
 MRCHDU: Convergence failed at  22  side 1    Res =  0.1669E+01
 MRCHDU: Convergence failed at  23  side 1    Res =  0.2936E+01
 MRCHDU: Convergence failed at  24  side 1    Res =  0.1567E+02
 MRCHDU: Convergence failed at  25  side 1    Res =  0.1497E+01
 MRCHDU: Convergence failed at  26  side 1    Res =  0.2450E+01
 MRCHDU: Convergence failed at  27  side 1    Res =  0.2338E+01
 MRCHDU: Convergence failed at  28  side 1    Res =  0.1976E+01
 MRCHDU: Convergence failed at  29  side 1    Res =  0.2631E+01
 MRCHDU: Convergence failed at  30  side 1    Res =  0.3845E+01
 MRCHDU: Convergence failed at  31  side 1    Res =  0.1095E+02
 MRCHDU: Convergence failed at  32  side 1    Res =  0.1835E+01
 MRCHDU: Convergence failed at  33  side 1    Res =  0.1710E+01
 MRCHDU: Convergence failed at  34  side 1    Res =  0.1824E+01
 MRCHDU: Convergence failed at  35  side 1    Res =  0.1949E+01
 MRCHDU: Convergence failed at  36  side 1    Res =  0.2089E+01
 MRCHDU: Convergence failed at  37  side 1    Res =  0.3260E+01
 MRCHDU: Convergence failed at  38  side 1    Res =  0.3785E+01
 MRCHDU: Convergence failed at  39  side 1    Res =  0.4840E+01
[...]
 Side 2 forced transition at x/c =  1.0000   74

 144   rms: 0.6222E+07   max: -.5971E+08   T at   47  1   RLX: 0.000
       a = 13.250      CL =  3.4307
      Cm = -0.7869     CD =*********   =>   CDf =  0.00255    CDp =*********

 MRCHDU: Convergence failed at  18  side 1    Res =  0.1833E+01
 MRCHDU: Convergence failed at  19  side 1    Res =  0.1295E+00
 MRCHDU: Convergence failed at  20  side 1    Res =  0.3261E+00
 MRCHDU: Convergence failed at  21  side 1    Res =  0.3784E+00
 MRCHDU: Convergence failed at  22  side 1    Res =  0.8850E+00
 MRCHDU: Convergence failed at  23  side 1    Res =  0.1806E+00
 MRCHDU: Convergence failed at  24  side 1    Res =  0.1836E+00
 MRCHDU: Convergence failed at  25  side 1    Res =  0.2624E+00
 MRCHDU: Convergence failed at  26  side 1    Res =  0.2274E+00
 MRCHDU: Convergence failed at  27  side 1    Res =  0.2460E+00
 MRCHDU: Convergence failed at  28  side 1    Res =  0.8849E-01
 MRCHDU: Convergence failed at  29  side 1    Res =  0.2970E-01
 MRCHDU: Convergence failed at  30  side 1    Res =  0.1776E-01
 MRCHDU: Convergence failed at  31  side 1    Res =  0.1195E-01
 MRCHDU: Convergence failed at  32  side 1    Res =  0.1996E-02
 MRCHDU: Convergence failed at  33  side 1    Res =  0.1417E-03
 MRCHDU: Convergence failed at  34  side 1    Res =  0.2268E-04
 MRCHDU: Convergence failed at  40  side 1    Res =  0.1368E-03
 MRCHDU: Convergence failed at  41  side 1    Res =  0.2273E-03
 MRCHDU: Convergence failed at  49  side 1    Res =  0.4624E-04
 MRCHDU: Convergence failed at  52  side 1    Res =  0.3620E-04
 Side 1  free  transition at x/c =  0.0202   16
 Side 2 forced transition at x/c =  1.0000   74

 145   rms: 0.7702E+07   max: -.6412E+08   T at   47  1   RLX: 0.000
       a = 13.250      CL =  3.4327
      Cm = -0.7875     CD =*********   =>   CDf =  0.00255    CDp =*********

 MRCHDU: Convergence failed at  18  side 1    Res =  0.1832E+01
 MRCHDU: Convergence failed at  19  side 1    Res =  0.1295E+00
 MRCHDU: Convergence failed at  20  side 1    Res =  0.3260E+00
 MRCHDU: Convergence failed at  21  side 1    Res =  0.3795E+00
 MRCHDU: Convergence failed at  22  side 1    Res =  0.8886E+00
 MRCHDU: Convergence failed at  23  side 1    Res =  0.1791E+00
 MRCHDU: Convergence failed at  24  side 1    Res =  0.1837E+00
 MRCHDU: Convergence failed at  25  side 1    Res =  0.2624E+00
 MRCHDU: Convergence failed at  26  side 1    Res =  0.2273E+00
 MRCHDU: Convergence failed at  27  side 1    Res =  0.7882E-01
 MRCHDU: Convergence failed at  28  side 1    Res =  0.3065E-01
 MRCHDU: Convergence failed at  29  side 1    Res =  0.1923E-01
 MRCHDU: Convergence failed at  30  side 1    Res =  0.1329E-01
 MRCHDU: Convergence failed at  31  side 1    Res =  0.9395E-02
 MRCHDU: Convergence failed at  32  side 1    Res =  0.1579E-02
 MRCHDU: Convergence failed at  33  side 1    Res =  0.1232E-03
 MRCHDU: Convergence failed at  34  side 1    Res =  0.2142E-04
 MRCHDU: Convergence failed at  40  side 1    Res =  0.1368E-03
 MRCHDU: Convergence failed at  41  side 1    Res =  0.2275E-03
 MRCHDU: Convergence failed at  49  side 1    Res =  0.4858E-04
 MRCHDU: Convergence failed at  52  side 1    Res =  0.3627E-04
 Side 1  free  transition at x/c =  0.0202   16
 Side 2 forced transition at x/c =  1.0000   74

 146   rms: 0.5949E+08   max: -.7640E+09   T at   47  1   RLX: 0.000
       a = 13.250      CL =  3.4304
      Cm = -0.7868     CD =*********   =>   CDf =  0.00255    CDp =*********

 MRCHDU: Convergence failed at  18  side 1    Res =  0.1832E+01
 MRCHDU: Convergence failed at  19  side 1    Res =  0.1295E+00
 MRCHDU: Convergence failed at  20  side 1    Res =  0.3260E+00
 MRCHDU: Convergence failed at  21  side 1    Res =  0.3797E+00
 MRCHDU: Convergence failed at  22  side 1    Res =  0.8891E+00
 MRCHDU: Convergence failed at  23  side 1    Res =  0.1789E+00
 MRCHDU: Convergence failed at  24  side 1    Res =  0.1837E+00
 MRCHDU: Convergence failed at  25  side 1    Res =  0.2624E+00
 MRCHDU: Convergence failed at  26  side 1    Res =  0.2273E+00
 MRCHDU: Convergence failed at  27  side 1    Res =  0.2473E+00
 MRCHDU: Convergence failed at  28  side 1    Res =  0.8824E-01
 MRCHDU: Convergence failed at  29  side 1    Res =  0.2954E-01
 MRCHDU: Convergence failed at  30  side 1    Res =  0.1738E-01
 MRCHDU: Convergence failed at  31  side 1    Res =  0.1135E-01
 MRCHDU: Convergence failed at  32  side 1    Res =  0.1810E-02
 MRCHDU: Convergence failed at  33  side 1    Res =  0.1362E-03
 MRCHDU: Convergence failed at  34  side 1    Res =  0.2167E-04
 MRCHDU: Convergence failed at  40  side 1    Res =  0.1368E-03
 MRCHDU: Convergence failed at  41  side 1    Res =  0.2275E-03
 MRCHDU: Convergence failed at  49  side 1    Res =  0.4899E-04
 MRCHDU: Convergence failed at  52  side 1    Res =  0.3629E-04
 Side 1  free  transition at x/c =  0.0202   16
 Side 2 forced transition at x/c =  1.0000   74

 147   rms: 0.1416E+08   max: -.1863E+09   T at   47  1   RLX: 0.000
       a = 13.250      CL =  3.4326
      Cm = -0.7875     CD =*********   =>   CDf =  0.00255    CDp =*********

 MRCHDU: Convergence failed at  18  side 1    Res =  0.1832E+01
 MRCHDU: Convergence failed at  19  side 1    Res =  0.1295E+00
 MRCHDU: Convergence failed at  20  side 1    Res =  0.3259E+00
 MRCHDU: Convergence failed at  21  side 1    Res =  0.3805E+00
 MRCHDU: Convergence failed at  22  side 1    Res =  0.8921E+00
 MRCHDU: Convergence failed at  23  side 1    Res =  0.1776E+00
 MRCHDU: Convergence failed at  24  side 1    Res =  0.1838E+00
 MRCHDU: Convergence failed at  25  side 1    Res =  0.2624E+00
 MRCHDU: Convergence failed at  26  side 1    Res =  0.2273E+00
 MRCHDU: Convergence failed at  27  side 1    Res =  0.7882E-01
 MRCHDU: Convergence failed at  28  side 1    Res =  0.3063E-01
 MRCHDU: Convergence failed at  29  side 1    Res =  0.1914E-01
 MRCHDU: Convergence failed at  30  side 1    Res =  0.1308E-01
 MRCHDU: Convergence failed at  31  side 1    Res =  0.9051E-02
 MRCHDU: Convergence failed at  32  side 1    Res =  0.1476E-02
 MRCHDU: Convergence failed at  33  side 1    Res =  0.1200E-03
 MRCHDU: Convergence failed at  34  side 1    Res =  0.2074E-04
 MRCHDU: Convergence failed at  40  side 1    Res =  0.1369E-03
 MRCHDU: Convergence failed at  41  side 1    Res =  0.2276E-03
 MRCHDU: Convergence failed at  49  side 1    Res =  0.5071E-04
 MRCHDU: Convergence failed at  52  side 1    Res =  0.3635E-04
 Side 1  free  transition at x/c =  0.0202   16
 Side 2 forced transition at x/c =  1.0000   74

 148   rms: 0.3518E+07   max: -.5793E+08   T at   47  1   RLX: 0.000
       a = 13.250      CL =  3.4304
      Cm = -0.7868     CD =*********   =>   CDf =  0.00255    CDp =*********

 MRCHDU: Convergence failed at  18  side 1    Res =  0.1832E+01
 MRCHDU: Convergence failed at  19  side 1    Res =  0.1295E+00
 MRCHDU: Convergence failed at  20  side 1    Res =  0.3257E+00
 MRCHDU: Convergence failed at  21  side 1    Res =  0.3826E+00
 MRCHDU: Convergence failed at  22  side 1    Res =  0.8990E+00
 MRCHDU: Convergence failed at  23  side 1    Res =  0.1745E+00
 MRCHDU: Convergence failed at  24  side 1    Res =  0.1840E+00
 MRCHDU: Convergence failed at  25  side 1    Res =  0.2623E+00
 MRCHDU: Convergence failed at  26  side 1    Res =  0.2272E+00
 MRCHDU: Convergence failed at  27  side 1    Res =  0.2475E+00
 MRCHDU: Convergence failed at  28  side 1    Res =  0.8700E-01
 MRCHDU: Convergence failed at  29  side 1    Res =  0.2909E-01
 MRCHDU: Convergence failed at  30  side 1    Res =  0.1644E-01
 MRCHDU: Convergence failed at  31  side 1    Res =  0.1010E-01
 MRCHDU: Convergence failed at  32  side 1    Res =  0.1473E-02
 MRCHDU: Convergence failed at  33  side 1    Res =  0.1255E-03
 MRCHDU: Convergence failed at  34  side 1    Res =  0.1964E-04
 MRCHDU: Convergence failed at  40  side 1    Res =  0.1375E-03
 MRCHDU: Convergence failed at  41  side 1    Res =  0.2278E-03
 MRCHDU: Convergence failed at  49  side 1    Res =  0.5534E-04
 MRCHDU: Convergence failed at  52  side 1    Res =  0.3681E-04
 Side 1  free  transition at x/c =  0.0202   16
 Side 2 forced transition at x/c =  1.0000   74

 149   rms: 0.1169E+08   max: 0.2452E+09   T at   47  1   RLX: 0.000
       a = 13.250      CL =  3.4324
      Cm = -0.7874     CD =*********   =>   CDf =  0.00255    CDp =*********

 MRCHDU: Convergence failed at  18  side 1    Res =  0.1832E+01
 MRCHDU: Convergence failed at  19  side 1    Res =  0.1295E+00
 MRCHDU: Convergence failed at  20  side 1    Res =  0.3258E+00
 MRCHDU: Convergence failed at  21  side 1    Res =  0.3811E+00
 MRCHDU: Convergence failed at  22  side 1    Res =  0.8941E+00
 MRCHDU: Convergence failed at  23  side 1    Res =  0.1767E+00
 MRCHDU: Convergence failed at  24  side 1    Res =  0.1838E+00
 MRCHDU: Convergence failed at  25  side 1    Res =  0.2623E+00
 MRCHDU: Convergence failed at  26  side 1    Res =  0.2273E+00
 MRCHDU: Convergence failed at  27  side 1    Res =  0.7883E-01
 MRCHDU: Convergence failed at  28  side 1    Res =  0.3054E-01
 MRCHDU: Convergence failed at  29  side 1    Res =  0.1897E-01
 MRCHDU: Convergence failed at  30  side 1    Res =  0.1281E-01
 MRCHDU: Convergence failed at  31  side 1    Res =  0.8741E-02
 MRCHDU: Convergence failed at  32  side 1    Res =  0.1375E-02
 MRCHDU: Convergence failed at  33  side 1    Res =  0.1178E-03
 MRCHDU: Convergence failed at  34  side 1    Res =  0.2009E-04
 MRCHDU: Convergence failed at  40  side 1    Res =  0.1377E-03
 MRCHDU: Convergence failed at  41  side 1    Res =  0.2283E-03
 MRCHDU: Convergence failed at  49  side 1    Res =  0.5173E-04
 MRCHDU: Convergence failed at  52  side 1    Res =  0.3661E-04
 Side 1  free  transition at x/c =  0.0202   16
 Side 2 forced transition at x/c =  1.0000   74

 150   rms: 0.1360E+07   max: -.1402E+08   T at   47  1   RLX: 0.000
       a = 13.250      CL =  3.4302
      Cm = -0.7868     CD =*********   =>   CDf =  0.00255    CDp =*********

 MRCHDU: Convergence failed at  18  side 1    Res =  0.1832E+01
 MRCHDU: Convergence failed at  19  side 1    Res =  0.1295E+00
 MRCHDU: Convergence failed at  20  side 1    Res =  0.3259E+00
 MRCHDU: Convergence failed at  21  side 1    Res =  0.3801E+00
 MRCHDU: Convergence failed at  22  side 1    Res =  0.8912E+00
 MRCHDU: Convergence failed at  23  side 1    Res =  0.1782E+00
 MRCHDU: Convergence failed at  24  side 1    Res =  0.1837E+00
 MRCHDU: Convergence failed at  25  side 1    Res =  0.2624E+00
 MRCHDU: Convergence failed at  26  side 1    Res =  0.2273E+00
 MRCHDU: Convergence failed at  27  side 1    Res =  0.2477E+00
 MRCHDU: Convergence failed at  28  side 1    Res =  0.8798E-01
 MRCHDU: Convergence failed at  29  side 1    Res =  0.2944E-01
 MRCHDU: Convergence failed at  30  side 1    Res =  0.1719E-01
 MRCHDU: Convergence failed at  31  side 1    Res =  0.1112E-01
 MRCHDU: Convergence failed at  32  side 1    Res =  0.1728E-02
 MRCHDU: Convergence failed at  33  side 1    Res =  0.1342E-03
 MRCHDU: Convergence failed at  34  side 1    Res =  0.2150E-04
 MRCHDU: Convergence failed at  40  side 1    Res =  0.1383E-03
 MRCHDU: Convergence failed at  41  side 1    Res =  0.2260E-03
 MRCHDU: Convergence failed at  46  side 1    Res =  0.5322E-05
 MRCHDU: Convergence failed at  49  side 1    Res =  0.5318E-04
 MRCHDU: Convergence failed at  52  side 1    Res =  0.3935E-04
 MRCHDU: Convergence failed at  60  side 1    Res =  0.3306E-02
 MRCHDU: Convergence failed at  64  side 1    Res =  0.2288E-04
 MRCHDU: Convergence failed at  65  side 1    Res =  0.1388E-04
 MRCHDU: Convergence failed at  88  side 1    Res =  0.9804E-04
 MRCHDU: Convergence failed at  76  side 2    Res =  0.6499E-03
 MRCHDU: Convergence failed at  77  side 2    Res =  0.1259E-04
 MRCHDU: Convergence failed at  78  side 2    Res =  0.6317E-05
 MRCHDU: Convergence failed at  82  side 2    Res =  0.2745E-04
 MRCHDU: Convergence failed at  83  side 2    Res =  0.4188E-04
 MRCHDU: Convergence failed at  95  side 2    Res =  0.6074E-04
 Side 1  free  transition at x/c =  0.0202   16
 Side 2 forced transition at x/c =  1.0000   74

 151   rms: 0.6153E+07   max: -.1588E+09   T at   47  1   RLX: 0.000
       a = 13.250      CL =  3.4326
      Cm = -0.7875     CD =*********   =>   CDf =  0.00255    CDp =*********

 MRCHDU: Convergence failed at  18  side 1    Res =  0.1832E+01
 MRCHDU: Convergence failed at  19  side 1    Res =  0.1295E+00
 MRCHDU: Convergence failed at  20  side 1    Res =  0.3258E+00
 MRCHDU: Convergence failed at  21  side 1    Res =  0.3811E+00
 MRCHDU: Convergence failed at  22  side 1    Res =  0.8943E+00
 MRCHDU: Convergence failed at  23  side 1    Res =  0.1767E+00
 MRCHDU: Convergence failed at  24  side 1    Res =  0.1838E+00
 MRCHDU: Convergence failed at  25  side 1    Res =  0.2624E+00
 MRCHDU: Convergence failed at  26  side 1    Res =  0.2272E+00
 MRCHDU: Convergence failed at  27  side 1    Res =  0.7882E-01
 MRCHDU: Convergence failed at  28  side 1    Res =  0.3059E-01
 MRCHDU: Convergence failed at  29  side 1    Res =  0.1906E-01
 MRCHDU: Convergence failed at  30  side 1    Res =  0.1290E-01
 MRCHDU: Convergence failed at  31  side 1    Res =  0.8822E-02
 MRCHDU: Convergence failed at  32  side 1    Res =  0.1403E-02
 MRCHDU: Convergence failed at  33  side 1    Res =  0.1170E-03
 MRCHDU: Convergence failed at  34  side 1    Res =  0.2053E-04
 MRCHDU: Convergence failed at  40  side 1    Res =  0.1383E-03
 MRCHDU: Convergence failed at  41  side 1    Res =  0.2260E-03
 MRCHDU: Convergence failed at  46  side 1    Res =  0.5361E-05
 MRCHDU: Convergence failed at  49  side 1    Res =  0.5536E-04
 MRCHDU: Convergence failed at  52  side 1    Res =  0.3964E-04
 MRCHDU: Convergence failed at  60  side 1    Res =  0.9109E-02
 MRCHDU: Convergence failed at  64  side 1    Res =  0.2139E-04
 MRCHDU: Convergence failed at  65  side 1    Res =  0.1340E-04
 MRCHDU: Convergence failed at  88  side 1    Res =  0.9514E-04
 MRCHDU: Convergence failed at  76  side 2    Res =  0.6501E-03
 MRCHDU: Convergence failed at  77  side 2    Res =  0.1260E-04
 MRCHDU: Convergence failed at  78  side 2    Res =  0.6334E-05
 MRCHDU: Convergence failed at  82  side 2    Res =  0.2754E-04
 MRCHDU: Convergence failed at  83  side 2    Res =  0.4191E-04
 MRCHDU: Convergence failed at  95  side 2    Res =  0.6227E-04
 Side 1  free  transition at x/c =  0.0202   16
 Side 2 forced transition at x/c =  1.0000   74

 152   rms: 0.5109E+07   max: -.7136E+08   T at   47  1   RLX: 0.000
       a = 13.250      CL =  3.4304
      Cm = -0.7868     CD =*********   =>   CDf =  0.00255    CDp =*********

 MRCHDU: Convergence failed at  18  side 1    Res =  0.1832E+01
 MRCHDU: Convergence failed at  19  side 1    Res =  0.1295E+00
 MRCHDU: Convergence failed at  20  side 1    Res =  0.3257E+00
 MRCHDU: Convergence failed at  21  side 1    Res =  0.3828E+00
 MRCHDU: Convergence failed at  22  side 1    Res =  0.9000E+00
 MRCHDU: Convergence failed at  23  side 1    Res =  0.1742E+00
 MRCHDU: Convergence failed at  24  side 1    Res =  0.1840E+00
 MRCHDU: Convergence failed at  25  side 1    Res =  0.2623E+00
 MRCHDU: Convergence failed at  26  side 1    Res =  0.2272E+00
 MRCHDU: Convergence failed at  27  side 1    Res =  0.2468E+00
 MRCHDU: Convergence failed at  28  side 1    Res =  0.8695E-01
 MRCHDU: Convergence failed at  29  side 1    Res =  0.2907E-01
 MRCHDU: Convergence failed at  30  side 1    Res =  0.1640E-01
 MRCHDU: Convergence failed at  31  side 1    Res =  0.1006E-01
 MRCHDU: Convergence failed at  32  side 1    Res =  0.1530E-02
 MRCHDU: Convergence failed at  33  side 1    Res =  0.1231E-03
 MRCHDU: Convergence failed at  34  side 1    Res =  0.1994E-04
 MRCHDU: Convergence failed at  40  side 1    Res =  0.1381E-03
 MRCHDU: Convergence failed at  41  side 1    Res =  0.2256E-03
 MRCHDU: Convergence failed at  46  side 1    Res =  0.5337E-05
 MRCHDU: Convergence failed at  49  side 1    Res =  0.5912E-04
 MRCHDU: Convergence failed at  52  side 1    Res =  0.3973E-04
 MRCHDU: Convergence failed at  60  side 1    Res =  0.1546E+00
 Side 1  free  transition at x/c =  0.0202   16
 Side 2 forced transition at x/c =  1.0000   74

 153   rms: 0.2414E+07   max: -.5334E+08   T at   47  1   RLX: 0.000
       a = 13.250      CL =  3.4325
      Cm = -0.7874     CD =*********   =>   CDf =  0.00255    CDp =*********

 MRCHDU: Convergence failed at  18  side 1    Res =  0.1832E+01
 MRCHDU: Convergence failed at  19  side 1    Res =  0.1295E+00
 MRCHDU: Convergence failed at  20  side 1    Res =  0.3257E+00
 MRCHDU: Convergence failed at  21  side 1    Res =  0.3824E+00
 MRCHDU: Convergence failed at  22  side 1    Res =  0.8986E+00
 MRCHDU: Convergence failed at  23  side 1    Res =  0.1748E+00
 MRCHDU: Convergence failed at  24  side 1    Res =  0.1840E+00
 MRCHDU: Convergence failed at  25  side 1    Res =  0.2623E+00
 MRCHDU: Convergence failed at  26  side 1    Res =  0.2272E+00
 MRCHDU: Convergence failed at  27  side 1    Res =  0.7882E-01
 MRCHDU: Convergence failed at  28  side 1    Res =  0.3051E-01
 MRCHDU: Convergence failed at  29  side 1    Res =  0.1886E-01
 MRCHDU: Convergence failed at  30  side 1    Res =  0.1256E-01
 MRCHDU: Convergence failed at  31  side 1    Res =  0.8389E-02
 MRCHDU: Convergence failed at  32  side 1    Res =  0.1489E-02
 MRCHDU: Convergence failed at  33  side 1    Res =  0.1247E-03
 MRCHDU: Convergence failed at  34  side 1    Res =  0.1898E-04
 MRCHDU: Convergence failed at  40  side 1    Res =  0.1392E-03
 MRCHDU: Convergence failed at  41  side 1    Res =  0.2272E-03
 MRCHDU: Convergence failed at  46  side 1    Res =  0.5199E-05
 MRCHDU: Convergence failed at  49  side 1    Res =  0.5763E-04
 MRCHDU: Convergence failed at  52  side 1    Res =  0.3990E-04
 Side 1  free  transition at x/c =  0.0202   16
 Side 2 forced transition at x/c =  1.0000   74

 154   rms: 0.1175E+07   max: 0.1965E+08   T at   47  1   RLX: 0.000
       a = 13.250      CL =  3.4305
      Cm = -0.7868     CD =*********   =>   CDf =  0.00255    CDp =*********

 MRCHDU: Convergence failed at  18  side 1    Res =  0.1830E+01
 MRCHDU: Convergence failed at  19  side 1    Res =  0.1296E+00
 MRCHDU: Convergence failed at  20  side 1    Res =  0.3252E+00
 MRCHDU: Convergence failed at  21  side 1    Res =  0.3885E+00
 MRCHDU: Convergence failed at  22  side 1    Res =  0.9190E+00
 MRCHDU: Convergence failed at  23  side 1    Res =  0.1655E+00
 MRCHDU: Convergence failed at  24  side 1    Res =  0.1846E+00
 MRCHDU: Convergence failed at  25  side 1    Res =  0.2619E+00
 MRCHDU: Convergence failed at  26  side 1    Res =  0.2274E+00
 MRCHDU: Convergence failed at  27  side 1    Res =  0.2437E+00
 MRCHDU: Convergence failed at  28  side 1    Res =  0.8414E-01
 MRCHDU: Convergence failed at  29  side 1    Res =  0.2790E-01
 MRCHDU: Convergence failed at  30  side 1    Res =  0.1435E-01
 MRCHDU: Convergence failed at  31  side 1    Res =  0.7703E-02
 MRCHDU: Convergence failed at  32  side 1    Res =  0.9871E-03
 MRCHDU: Convergence failed at  33  side 1    Res =  0.1025E-03
 MRCHDU: Convergence failed at  34  side 1    Res =  0.1522E-04
 MRCHDU: Convergence failed at  40  side 1    Res =  0.1457E-03
 MRCHDU: Convergence failed at  41  side 1    Res =  0.2360E-03
 MRCHDU: Convergence failed at  46  side 1    Res =  0.5161E-05
 MRCHDU: Convergence failed at  49  side 1    Res =  0.6573E-04
 MRCHDU: Convergence failed at  52  side 1    Res =  0.3704E-04
 Side 1  free  transition at x/c =  0.0202   16
 Side 2 forced transition at x/c =  1.0000   74

 155   rms: 0.1685E+07   max: -.1099E+08   T at   32  1   RLX: 0.000
       a = 13.250      CL =  3.4322
      Cm = -0.7873     CD =*********   =>   CDf =  0.00254    CDp =*********
 VISCAL:  Convergence failed

 Sequence halted since previous  4 points did not converge
 Last-converged  alpha =  12.250    CL =   1.03270

.OPERva   c>  
 Polar accumulation disabled

.OPERv   c>  
 XFOIL   c>  
 XFOIL   c>  