
 ===================================================
  XFOIL Version 6.99
  Copyright (C) 2000   Mark Drela, Harold Youngren

  This software comes with ABSOLUTELY NO WARRANTY,
    subject to the GNU General Public License.

  Caveat computor
 ===================================================

 File  xfoil.def  not found

   QUIT    Exit program

  .OPER    Direct operating point(s)
  .MDES    Complex mapping design routine
  .QDES    Surface speed design routine
  .GDES    Geometry design routine

   SAVE f  Write airfoil to labeled coordinate file
   PSAV f  Write airfoil to plain coordinate file
   ISAV f  Write airfoil to ISES coordinate file
   MSAV f  Write airfoil to MSES coordinate file
   REVE    Reverse written-airfoil node ordering

   LOAD f  Read buffer airfoil from coordinate file
   NACA i  Set NACA 4,5-digit airfoil and buffer airfoil
   INTE    Set buffer airfoil by interpolating two airfoils
   NORM    Buffer airfoil normalization toggle
   XYCM rr Change CM reference location, currently  0.25000 0.00000

   BEND    Display structural properties of current airfoil

   PCOP    Set current-airfoil panel nodes directly from buffer airfoil points
   PANE    Set current-airfoil panel nodes ( 160 ) based on curvature
  .PPAR    Show/change paneling

  .PLOP    Plotting options

   WDEF f  Write  current-settings file
   RDEF f  Reread current-settings file
   NAME s  Specify new airfoil name
   NINC    Increment name version number

   Z       Zoom    | (available in all menus)
   U       Unzoom  | 

 XFOIL   c>  
 Labeled airfoil file.  Name:  AG11                                            

 Number of input coordinate points: 183
 Counterclockwise ordering
 Max thickness =     0.058123  at x =   0.260
 Max camber    =     0.022861  at x =   0.291

  LE  x,y  =  -0.00000   0.00000  |   Chord =   1.00000
  TE  x,y  =   1.00000   0.00006  |

 Current airfoil nodes set from buffer airfoil nodes ( 183 )

 XFOIL   c>  
 XFOIL   c>  
 Blunt trailing edge.  Gap =  0.00232

 Paneling parameters used...
   Number of panel nodes       160
   Panel bunching parameter    1.000
   TE/LE panel density ratio   0.150
   Refined-area/LE panel density ratio    0.200
   Top    side refined area x/c limits  1.000 1.000
   Bottom side refined area x/c limits  1.000 1.000

 XFOIL   c>  
.OPERi   c>  
 Xtr/c     =  1.0000    top    side
 Xtr/c     =  1.0000    bottom side
 Ncrit     =    9.00   ( 0.070 % turb. level )
 Vacc      =  0.0100

 Klag  =  5.6000     Uxwt  =    1.00
 A     =  6.7000     B     =  0.7500       KCt = 0.01485
 CtiniK=  1.8000     CtiniX=  3.3000

..VPAR   c>  
..VPAR   c>  
.OPERi   c>  
 M  =    0.0000
 Re =    400000

.OPERv   c>  
.OPERv   c>  
.OPERv   c>  
 Polar  1 newly created for accumulation
 Airfoil archived with polar: AG11                                            

Enter  polar save filename  OR  <return> for no file   s>  
 New polar save file available

Enter  polar dump filename  OR  <return> for no file   s>  
 Polar dump file will NOT be written

 Polar accumulation enabled

.OPERva   c>   Calculating unit vorticity distributions ...
 Calculating wake trajectory ...
 Calculating source influence matrix ...

 Solving BL system ...

 Initializing BL ...
    side            1  ...
 MRCHUE: Inverse mode at  71     Hk =   4.085
 MRCHUE: Inverse mode at  72     Hk =   4.466
 MRCHUE: Inverse mode at  73     Hk =   4.841
 MRCHUE: Inverse mode at  74     Hk =   5.207
 MRCHUE: Inverse mode at  75     Hk =   5.549
 MRCHUE: Inverse mode at  76     Hk =   5.833
 MRCHUE: Inverse mode at  77     Hk =   5.970
    side            2  ...
 MRCHUE: Inverse mode at  10     Hk =   4.403
 MRCHUE: Convergence failed at  11  side 2    Res =  0.5115E+02
 MRCHUE: Convergence failed at  12  side 2    Res =  0.7224E+01
 MRCHUE: Inverse mode at  13     Hk =   6.595
 MRCHUE: Inverse mode at  14     Hk =   7.798
 MRCHUE: Inverse mode at  15     Hk =   2.500
 MRCHUE: Inverse mode at  16     Hk =   2.500

 MRCHDU: Convergence failed at  11  side 2    Res =  0.1279E+01
 MRCHDU: Convergence failed at  12  side 2    Res =  0.2630E+02
 MRCHDU: Convergence failed at  13  side 2    Res =  0.8074E+01
 MRCHDU: Convergence failed at  14  side 2    Res =  0.5955E+01
 MRCHDU: Convergence failed at  15  side 2    Res =  0.6381E+01
 MRCHDU: Convergence failed at  16  side 2    Res =  0.7980E+02
 MRCHDU: Convergence failed at  17  side 2    Res =  0.7493E+02
 MRCHDU: Convergence failed at  18  side 2    Res =  0.1081E+03
 MRCHDU: Convergence failed at  19  side 2    Res =  0.3647E+02
 MRCHDU: Convergence failed at  20  side 2    Res =  0.7144E+02
 MRCHDU: Convergence failed at  21  side 2    Res =  0.2000E+02
 MRCHDU: Convergence failed at  22  side 2    Res =  0.3593E+02
 MRCHDU: Convergence failed at  23  side 2    Res =  0.5370E+02
 MRCHDU: Convergence failed at  24  side 2    Res =  0.8835E+02
 MRCHDU: Convergence failed at  25  side 2    Res =  0.1402E+03
 MRCHDU: Convergence failed at  26  side 2    Res =  0.1364E+02
 MRCHDU: Convergence failed at  27  side 2    Res =  0.3733E+02
 MRCHDU: Convergence failed at  28  side 2    Res =  0.4441E+02
 MRCHDU: Convergence failed at  29  side 2    Res =  0.7995E+02
 MRCHDU: Convergence failed at  30  side 2    Res =  0.3231E+02
 MRCHDU: Convergence failed at  31  side 2    Res =  0.1498E+04
 MRCHDU: Convergence failed at  32  side 2    Res =  0.1070E+03
 MRCHDU: Convergence failed at  33  side 2    Res =  0.8409E+02
 MRCHDU: Convergence failed at  34  side 2    Res =  0.5025E+02
 MRCHDU: Convergence failed at  35  side 2    Res =  0.4004E+02
 MRCHDU: Convergence failed at  36  side 2    Res =  0.3279E+02
 MRCHDU: Convergence failed at  37  side 2    Res =  0.2987E+02
 MRCHDU: Convergence failed at  38  side 2    Res =  0.2597E+02
 MRCHDU: Convergence failed at  39  side 2    Res =  0.2438E+02
 MRCHDU: Convergence failed at  40  side 2    Res =  0.2319E+02
 MRCHDU: Convergence failed at  41  side 2    Res =  0.2141E+02
 MRCHDU: Convergence failed at  42  side 2    Res =  0.2050E+02
 MRCHDU: Convergence failed at  43  side 2    Res =  0.1934E+02
 MRCHDU: Convergence failed at  44  side 2    Res =  0.1878E+02
 MRCHDU: Convergence failed at  45  side 2    Res =  0.1835E+02
 MRCHDU: Convergence failed at  46  side 2    Res =  0.1754E+02
 MRCHDU: Convergence failed at  47  side 2    Res =  0.1692E+02
 MRCHDU: Convergence failed at  48  side 2    Res =  0.1660E+02
 MRCHDU: Convergence failed at  49  side 2    Res =  0.1635E+02
 MRCHDU: Convergence failed at  50  side 2    Res =  0.1583E+02
 MRCHDU: Convergence failed at  51  side 2    Res =  0.1546E+02
 MRCHDU: Convergence failed at  52  side 2    Res =  0.1525E+02
 MRCHDU: Convergence failed at  53  side 2    Res =  0.1504E+02
 MRCHDU: Convergence failed at  54  side 2    Res =  0.1473E+02
 MRCHDU: Convergence failed at  55  side 2    Res =  0.1442E+02
 MRCHDU: Convergence failed at  56  side 2    Res =  0.1428E+02
 MRCHDU: Convergence failed at  57  side 2    Res =  0.1418E+02
 MRCHDU: Convergence failed at  58  side 2    Res =  0.1391E+02
 MRCHDU: Convergence failed at  59  side 2    Res =  0.1363E+02
 MRCHDU: Convergence failed at  60  side 2    Res =  0.1342E+02
 MRCHDU: Convergence failed at  61  side 2    Res =  0.1333E+02
 MRCHDU: Convergence failed at  62  side 2    Res =  0.1324E+02
 MRCHDU: Convergence failed at  63  side 2    Res =  0.1303E+02
 MRCHDU: Convergence failed at  64  side 2    Res =  0.1283E+02
 MRCHDU: Convergence failed at  65  side 2    Res =  0.1877E+02
 MRCHDU: Convergence failed at  66  side 2    Res =  0.1856E+02
 MRCHDU: Convergence failed at  67  side 2    Res =  0.1847E+02
 MRCHDU: Convergence failed at  68  side 2    Res =  0.1830E+02
 MRCHDU: Convergence failed at  69  side 2    Res =  0.1814E+02
 MRCHDU: Convergence failed at  70  side 2    Res =  0.1797E+02
 MRCHDU: Convergence failed at  71  side 2    Res =  0.1775E+02
 MRCHDU: Convergence failed at  72  side 2    Res =  0.1759E+02
 MRCHDU: Convergence failed at  73  side 2    Res =  0.1737E+02
 MRCHDU: Convergence failed at  74  side 2    Res =  0.1720E+02
 MRCHDU: Convergence failed at  75  side 2    Res =  0.1701E+02
 MRCHDU: Convergence failed at  76  side 2    Res =  0.1676E+02
 MRCHDU: Convergence failed at  77  side 2    Res =  0.1662E+02
 MRCHDU: Convergence failed at  78  side 2    Res =  0.1633E+02
 MRCHDU: Convergence failed at  79  side 2    Res =  0.1606E+02
 MRCHDU: Convergence failed at  80  side 2    Res =  0.1572E+02
 MRCHDU: Convergence failed at  81  side 2    Res =  0.1534E+02
 MRCHDU: Convergence failed at  82  side 2    Res =  0.1487E+02
 MRCHDU: Convergence failed at  83  side 2    Res =  0.2005E+02
 MRCHDU: Convergence failed at  84  side 2    Res =  0.1476E+02
 MRCHDU: Convergence failed at  85  side 2    Res =  0.1097E+02
 Side 1 forced transition at x/c =  1.0000   77
 Side 2  free  transition at x/c =  0.0137   14

   1   rms: 0.2513E+01   max: 0.2160E+01   D at   87  2   RLX: 0.189
       a = -4.000      CL = -5.7836
      Cm =  1.4070     CD =  0.00223   =>   CDf =  0.00117    CDp =  0.00106

 Side 1 forced transition at x/c =  1.0000   77
 Side 2  free  transition at x/c =  0.0173   15

   2   rms: 0.3182E+02   max: 0.7279E+03   C at   15  2   RLX: 0.002
       a = -4.000      CL = -5.6952
      Cm =  1.3909     CD =  0.00460   =>   CDf =  0.02891    CDp = -0.02431

 Side 1 forced transition at x/c =  1.0000   77
 Side 2  free  transition at x/c =  0.0143   15

   3   rms: 0.2156E+01   max: 0.9635E+01   D at   13  2   RLX: 0.093
       a = -4.000      CL = -4.9999
      Cm =  1.2037     CD =  0.00485   =>   CDf =  0.02880    CDp = -0.02395

 Side 1 forced transition at x/c =  1.0000   77
 Side 2  free  transition at x/c =  0.0113   14

   4   rms: 0.1757E+01   max: -.1448E+01   U at   85  2   RLX: 0.105
       a = -4.000      CL = -4.3185
      Cm =  1.0259     CD =  0.00530   =>   CDf =  0.02523    CDp = -0.01993

 Side 1 forced transition at x/c =  1.0000   77
 Side 2  free  transition at x/c =  0.0113   14

   5   rms: 0.1577E+01   max: -.1296E+01   U at   85  2   RLX: 0.123
       a = -4.000      CL = -3.6602
      Cm =  0.8501     CD =  0.00566   =>   CDf =  0.02244    CDp = -0.01678

 Side 1 forced transition at x/c =  1.0000   77
 Side 2  free  transition at x/c =  0.0118   14

   6   rms: 0.1407E+01   max: -.1136E+01   U at   85  2   RLX: 0.147
       a = -4.000      CL = -3.0189
      Cm =  0.6794     CD =  0.00614   =>   CDf =  0.01972    CDp = -0.01358

 Side 1 forced transition at x/c =  1.0000   77
 Side 2  free  transition at x/c =  0.0129   14

   7   rms: 0.1300E+01   max: -.4061E+01   T at   14  2   RLX: 0.123
       a = -4.000      CL = -2.5902
      Cm =  0.5658     CD =  0.00677   =>   CDf =  0.01705    CDp = -0.01028

 Side 1 forced transition at x/c =  1.0000   77
 Side 2  free  transition at x/c =  0.0142   15

   8   rms: 0.1017E+01   max: -.8496E+00   U at   85  2   RLX: 0.213
       a = -4.000      CL = -1.9814
      Cm =  0.4076     CD =  0.00742   =>   CDf =  0.01538    CDp = -0.00796

 Side 1 forced transition at x/c =  1.0000   77
 Side 2  free  transition at x/c =  0.0155   15

   9   rms: 0.9046E+00   max: 0.2830E+01   D at   16  2   RLX: 0.185
       a = -4.000      CL = -1.6057
      Cm =  0.3072     CD =  0.00835   =>   CDf =  0.01297    CDp = -0.00462

 MRCHDU: Convergence failed at  16  side 2    Res =  0.1236E+02
 MRCHDU: Convergence failed at  17  side 2    Res =  0.1067E+03
 MRCHDU: Convergence failed at  18  side 2    Res =  0.4718E+02
 MRCHDU: Convergence failed at  19  side 2    Res =  0.1196E+03
 MRCHDU: Convergence failed at  20  side 2    Res =  0.1567E+03
 MRCHDU: Convergence failed at  21  side 2    Res =  0.8270E+02
 MRCHDU: Convergence failed at  22  side 2    Res =  0.6525E+02
 MRCHDU: Convergence failed at  23  side 2    Res =  0.7057E+02
 MRCHDU: Convergence failed at  24  side 2    Res =  0.6991E+02
 MRCHDU: Convergence failed at  25  side 2    Res =  0.6223E+02
 MRCHDU: Convergence failed at  26  side 2    Res =  0.6280E+02
 MRCHDU: Convergence failed at  27  side 2    Res =  0.8354E+02
 MRCHDU: Convergence failed at  28  side 2    Res =  0.6454E+02
 MRCHDU: Convergence failed at  29  side 2    Res =  0.6609E+02
 MRCHDU: Convergence failed at  30  side 2    Res =  0.8483E+02
 MRCHDU: Convergence failed at  31  side 2    Res =  0.6611E+02
 MRCHDU: Convergence failed at  32  side 2    Res =  0.6752E+02
 MRCHDU: Convergence failed at  33  side 2    Res =  0.6902E+02
 MRCHDU: Convergence failed at  34  side 2    Res =  0.7069E+02
 MRCHDU: Convergence failed at  35  side 2    Res =  0.7234E+02
 MRCHDU: Convergence failed at  36  side 2    Res =  0.8027E+02
 MRCHDU: Convergence failed at  37  side 2    Res =  0.8660E+02
 MRCHDU: Convergence failed at  38  side 2    Res =  0.7977E+02
 MRCHDU: Convergence failed at  39  side 2    Res =  0.8162E+02
 MRCHDU: Convergence failed at  40  side 2    Res =  0.8363E+02
 MRCHDU: Convergence failed at  41  side 2    Res =  0.8537E+02
 MRCHDU: Convergence failed at  42  side 2    Res =  0.8725E+02
 MRCHDU: Convergence failed at  43  side 2    Res =  0.8905E+02
 MRCHDU: Convergence failed at  44  side 2    Res =  0.9094E+02
 MRCHDU: Convergence failed at  45  side 2    Res =  0.9274E+02
 MRCHDU: Convergence failed at  46  side 2    Res =  0.9445E+02
 MRCHDU: Convergence failed at  47  side 2    Res =  0.1928E+03
 MRCHDU: Convergence failed at  48  side 2    Res =  0.1764E+03
 MRCHDU: Convergence failed at  49  side 2    Res =  0.1643E+03
 MRCHDU: Convergence failed at  50  side 2    Res =  0.1526E+03
 MRCHDU: Convergence failed at  51  side 2    Res =  0.1436E+03
 MRCHDU: Convergence failed at  52  side 2    Res =  0.1359E+03
 MRCHDU: Convergence failed at  53  side 2    Res =  0.1288E+03
 MRCHDU: Convergence failed at  54  side 2    Res =  0.1080E+03
 MRCHDU: Convergence failed at  55  side 2    Res =  0.1086E+03
 MRCHDU: Convergence failed at  56  side 2    Res =  0.1096E+03
 MRCHDU: Convergence failed at  57  side 2    Res =  0.1108E+03
 MRCHDU: Convergence failed at  58  side 2    Res =  0.1119E+03
 MRCHDU: Convergence failed at  59  side 2    Res =  0.1130E+03
 MRCHDU: Convergence failed at  60  side 2    Res =  0.1109E+03
 MRCHDU: Convergence failed at  61  side 2    Res =  0.1120E+03
 MRCHDU: Convergence failed at  62  side 2    Res =  0.1130E+03
 MRCHDU: Convergence failed at  63  side 2    Res =  0.1141E+03
 MRCHDU: Convergence failed at  64  side 2    Res =  0.1150E+03
 MRCHDU: Convergence failed at  65  side 2    Res =  0.1160E+03
 MRCHDU: Convergence failed at  66  side 2    Res =  0.1121E+03
 MRCHDU: Convergence failed at  67  side 2    Res =  0.1127E+03
 MRCHDU: Convergence failed at  68  side 2    Res =  0.1137E+03
 MRCHDU: Convergence failed at  69  side 2    Res =  0.1146E+03
 MRCHDU: Convergence failed at  70  side 2    Res =  0.1158E+03
 MRCHDU: Convergence failed at  71  side 2    Res =  0.1169E+03
 MRCHDU: Convergence failed at  72  side 2    Res =  0.1180E+03
 MRCHDU: Convergence failed at  73  side 2    Res =  0.1131E+03
 MRCHDU: Convergence failed at  74  side 2    Res =  0.1141E+03
 MRCHDU: Convergence failed at  75  side 2    Res =  0.1154E+03
 MRCHDU: Convergence failed at  76  side 2    Res =  0.1166E+03
 MRCHDU: Convergence failed at  77  side 2    Res =  0.1179E+03
 MRCHDU: Convergence failed at  78  side 2    Res =  0.1142E+03
 MRCHDU: Convergence failed at  79  side 2    Res =  0.1157E+03
 MRCHDU: Convergence failed at  80  side 2    Res =  0.1176E+03
 MRCHDU: Convergence failed at  81  side 2    Res =  0.1197E+03
 MRCHDU: Convergence failed at  82  side 2    Res =  0.1222E+03
 MRCHDU: Convergence failed at  83  side 2    Res =  0.1264E+03
 MRCHDU: Convergence failed at  84  side 2    Res =  0.1352E+03
 MRCHDU: Convergence failed at  85  side 2    Res =  0.1556E+03
 Side 1 forced transition at x/c =  1.0000   77
 Side 2  free  transition at x/c =  0.0238   16

  10   rms: 0.3636E+01   max: -.6479E+02   T at   16  2   RLX: 0.008
       a = -4.000      CL = -4.3898
      Cm =  1.0870     CD =  0.00290   =>   CDf =  0.00115    CDp =  0.00176

 Side 1 forced transition at x/c =  1.0000   77
 Side 2  free  transition at x/c =  0.0242   16

  11   rms: 0.4180E+01   max: -.5988E+02   C at   77  1   RLX: 0.008
       a = -4.000      CL = -3.5143
      Cm =  0.8119     CD =  0.06950   =>   CDf =  0.00212    CDp =  0.06739

 Side 1 forced transition at x/c =  1.0000   77
 Side 2  free  transition at x/c =  0.0244   16

  12   rms: 0.4185E+01   max: -.5204E+02   C at   77  1   RLX: 0.010
       a = -4.000      CL = -3.5357
      Cm =  0.8152     CD =  0.07485   =>   CDf =  0.00218    CDp =  0.07267

 Side 1 forced transition at x/c =  1.0000   77
 Side 2  free  transition at x/c =  0.0246   16

  13   rms: 0.3039E+01   max: -.3270E+02   C at   77  1   RLX: 0.015
       a = -4.000      CL = -3.5608
      Cm =  0.8192     CD =  0.08204   =>   CDf =  0.00222    CDp =  0.07981

 Side 1 forced transition at x/c =  1.0000   77
 Side 2  free  transition at x/c =  0.0249   16

  14   rms: 0.2059E+01   max: -.1968E+02   C at   77  1   RLX: 0.025
       a = -4.000      CL = -3.5590
      Cm =  0.8159     CD =  0.09097   =>   CDf =  0.00227    CDp =  0.08870

 Side 1 forced transition at x/c =  1.0000   77
 Side 2  free  transition at x/c =  0.0245   16

  15   rms: 0.1466E+01   max: -.1124E+02   C at   77  1   RLX: 0.044
       a = -4.000      CL = -3.5082
      Cm =  0.8002     CD =  0.10125   =>   CDf =  0.00233    CDp =  0.09892

 Side 1 forced transition at x/c =  1.0000   77
 Side 2  free  transition at x/c =  0.0240   16

  16   rms: 0.1355E+01   max: 0.3748E+01   D at   93  2   RLX: 0.155
       a = -4.000      CL = -3.0037
      Cm =  0.6765     CD =  0.09687   =>   CDf =  0.00241    CDp =  0.09447

 MRCHDU: Convergence failed at 101  side 2    Res =  0.2291E+01
 MRCHDU: Convergence failed at 102  side 2    Res =  0.9491E+00
 MRCHDU: Convergence failed at 103  side 2    Res =  0.2546E+01
 MRCHDU: Convergence failed at 104  side 2    Res =  0.5238E+01
 Side 1 forced transition at x/c =  1.0000   77
 Side 2  free  transition at x/c =  0.0233   16

  17   rms: 0.1208E+01   max: -.4711E+01   D at  107  2   RLX: 0.106
       a = -4.000      CL = -2.7091
      Cm =  0.6002     CD =  0.11609   =>   CDf =  0.00259    CDp =  0.11350

 Side 1 forced transition at x/c =  1.0000   77
 Side 2  free  transition at x/c =  0.0226   16

  18   rms: 0.1229E+01   max: -.9171E+01   D at  107  2   RLX: 0.055
       a = -4.000      CL = -2.5882
      Cm =  0.5674     CD =  0.17503   =>   CDf =  0.00272    CDp =  0.17231

 Side 1 forced transition at x/c =  1.0000   77
 Side 2  free  transition at x/c =  0.0221   16

  19   rms: 0.1162E+01   max: -.8996E+01   D at  107  2   RLX: 0.056
       a = -4.000      CL = -2.4731
      Cm =  0.5373     CD =  0.17886   =>   CDf =  0.00279    CDp =  0.17606

 Side 1 forced transition at x/c =  1.0000   77
 Side 2  free  transition at x/c =  0.0215   16

  20   rms: 0.1147E+01   max: -.8326E+01   D at  107  2   RLX: 0.060
       a = -4.000      CL = -2.3446
      Cm =  0.5050     CD =  0.17668   =>   CDf =  0.00286    CDp =  0.17382

 MRCHDU: Convergence failed at 107  side 2    Res =  0.5960E-01
 Side 1 forced transition at x/c =  1.0000   77
 Side 2  free  transition at x/c =  0.0212   16

  21   rms: 0.1160E+01   max: -.9891E+01   D at  107  2   RLX: 0.051
       a = -4.000      CL = -2.2436
      Cm =  0.4786     CD =  0.18018   =>   CDf =  0.00291    CDp =  0.17727

 MRCHDU: Convergence failed at 107  side 2    Res =  0.2494E+00
 Side 1 forced transition at x/c =  1.0000   77
 Side 2  free  transition at x/c =  0.0209   16

  22   rms: 0.2591E+01   max: -.1706E+02   T at   16  2   RLX: 0.029
       a = -4.000      CL = -2.1396
      Cm =  0.4594     CD =  0.38968   =>   CDf =  0.00296    CDp =  0.38672

 Side 1 forced transition at x/c =  1.0000   77
 Side 2  free  transition at x/c =  0.0211   16

  23   rms: 0.1792E+01   max: -.1140E+02   T at   16  2   RLX: 0.044
       a = -4.000      CL = -2.0297
      Cm =  0.4404     CD =  0.41543   =>   CDf =  0.00293    CDp =  0.41249

 Side 1 forced transition at x/c =  1.0000   77
 Side 2  free  transition at x/c =  0.0212   16

  24   rms: 0.1570E+01   max: -.7579E+01   T at   16  2   RLX: 0.066
       a = -4.000      CL = -1.8514
      Cm =  0.4049     CD =  0.44560   =>   CDf =  0.00299    CDp =  0.44261

 Side 1 forced transition at x/c =  1.0000   78
 Side 2  free  transition at x/c =  0.0213   15

  25   rms: 0.1532E+01   max: -.9277E+01   D at    2  1   RLX: 0.054
       a = -4.000      CL = -1.7206
      Cm =  0.3781     CD =  0.56430   =>   CDf =  0.00288    CDp =  0.56142

 Side 1 forced transition at x/c =  1.0000   78
 Side 2  free  transition at x/c =  0.0214   15

  26   rms: 0.1520E+01   max: -.2095E+02   C at   15  2   RLX: 0.024
       a = -4.000      CL = -1.6606
      Cm =  0.3645     CD =  0.70096   =>   CDf =  0.00285    CDp =  0.69812

 MRCHDU: Convergence failed at  15  side 2    Res =  0.1031E+01
 Side 1 forced transition at x/c =  1.0000   78
 Side 2  free  transition at x/c =  0.0241   15

  27   rms: 0.1197E+01   max: -.4159E+01   T at  106  2   RLX: 0.120
       a = -4.000      CL = -1.2212
      Cm =  0.2537     CD =  0.79828   =>   CDf =  0.00281    CDp =  0.79547

 Side 1 forced transition at x/c =  1.0000   78
 Side 2  free  transition at x/c =  0.0266   15

  28   rms: 0.1031E+01   max: -.3773E+01   T at  104  2   RLX: 0.133
       a = -4.000      CL = -1.0081
      Cm =  0.2086     CD =  2.15557   =>   CDf =  0.00275    CDp =  2.15282

 Side 1 forced transition at x/c =  1.0000   78
 Side 2  free  transition at x/c =  0.0268   15

  29   rms: 0.6910E+00   max: 0.1945E+01   T at   85  2   RLX: 0.284
       a = -4.000      CL = -0.6851
      Cm =  0.1350     CD =  1.08449   =>   CDf =  0.00270    CDp =  1.08179

 MRCHDU: Convergence failed at  80  side 2    Res =  0.3738E-01
 MRCHDU: Convergence failed at  81  side 2    Res =  0.3545E-01
 MRCHDU: Convergence failed at  82  side 2    Res =  0.2834E-01
 MRCHDU: Convergence failed at  83  side 2    Res =  0.8177E-02
 Side 1 forced transition at x/c =  1.0000   79
 Side 2  free  transition at x/c =  0.0274   14

  30   rms: 0.6115E+00   max: -.4263E+01   T at   83  2   RLX: 0.117
       a = -4.000      CL = -0.6131
      Cm =  0.1150     CD =  0.97204   =>   CDf =  0.00259    CDp =  0.96945

 MRCHDU: Convergence failed at  80  side 2    Res =  0.5073E-01
 MRCHDU: Convergence failed at  81  side 2    Res =  0.3503E-01
 MRCHDU: Convergence failed at  82  side 2    Res =  0.8241E-01
 MRCHDU: Convergence failed at  83  side 2    Res =  0.2397E-02
 Side 1 forced transition at x/c =  1.0000   79
 Side 2  free  transition at x/c =  0.0275   14

  31   rms: 0.7605E+00   max: -.5896E+01   C at   84  2   RLX: 0.085
       a = -4.000      CL = -0.5404
      Cm =  0.0982     CD =  1.06541   =>   CDf =  0.00258    CDp =  1.06283

 MRCHDU: Convergence failed at  80  side 2    Res =  0.5382E-01
 MRCHDU: Convergence failed at  81  side 2    Res =  0.3167E-01
 MRCHDU: Convergence failed at  82  side 2    Res =  0.3066E-01
 MRCHDU: Convergence failed at  83  side 2    Res =  0.1504E-02
 Side 1 forced transition at x/c =  1.0000   79
 Side 2  free  transition at x/c =  0.0277   14

  32   rms: 0.1241E+01   max: -.7924E+01   T at  103  2   RLX: 0.063
       a = -4.000      CL = -0.4765
      Cm =  0.0844     CD =  2.57127   =>   CDf =  0.00255    CDp =  2.56872

 MRCHDU: Convergence failed at  80  side 2    Res =  0.6390E-01
 MRCHDU: Convergence failed at  81  side 2    Res =  0.3106E-01
 MRCHDU: Convergence failed at  82  side 2    Res =  0.3537E-01
 MRCHDU: Convergence failed at  83  side 2    Res =  0.1499E-02
 Side 1 forced transition at x/c =  1.0000   79
 Side 2  free  transition at x/c =  0.0278   14

  33   rms: 0.4398E+01   max: -.3505E+02   T at  103  2   RLX: 0.014
       a = -4.000      CL = -0.4452
      Cm =  0.0780     CD = 15.95678   =>   CDf =  0.00251    CDp = 15.95427

 MRCHDU: Convergence failed at  80  side 2    Res =  0.6340E-01
 MRCHDU: Convergence failed at  81  side 2    Res =  0.2924E-01
 MRCHDU: Convergence failed at  82  side 2    Res =  0.2765E-01
 MRCHDU: Convergence failed at  83  side 2    Res =  0.9332E-03
 Side 1 forced transition at x/c =  1.0000   79
 Side 2  free  transition at x/c =  0.0279   14

  34   rms: 0.1951E+02   max: -.1849E+03   T at  103  2   RLX: 0.003
       a = -4.000      CL = -0.4271
      Cm =  0.0747     CD =104.07204   =>   CDf =  0.00249    CDp =104.06954

 Side 1 forced transition at x/c =  1.0000   79
 Side 2  free  transition at x/c =  0.0279   14

  35   rms: 0.3301E+01   max: -.2591E+02   T at  101  2   RLX: 0.019
       a = -4.000      CL = -0.4044
      Cm =  0.0701     CD = 63.66885   =>   CDf =  0.00248    CDp = 63.66637

 MRCHDU: Convergence failed at  82  side 2    Res =  0.4884E-02
 MRCHDU: Convergence failed at  83  side 2    Res =  0.5498E-03
 Side 1 forced transition at x/c =  1.0000   79
 Side 2  free  transition at x/c =  0.0279   14

  36   rms: 0.6387E+02   max: 0.9559E+03   C at  102  2   RLX: 0.001
       a = -4.000      CL = -0.4024
      Cm =  0.0695     CD =131.66570   =>   CDf =  0.00246    CDp =131.66324

 MRCHDU: Convergence failed at  82  side 2    Res =  0.2175E-02
 MRCHDU: Convergence failed at  83  side 2    Res =  0.4822E-03
 Side 1 forced transition at x/c =  1.0000   79
 Side 2  free  transition at x/c =  0.0280   14

  37   rms: 0.1696E+03   max: -.2368E+04   C at  104  2   RLX: 0.000
       a = -4.000      CL = -0.4015
      Cm =  0.0692     CD =*********   =>   CDf =  0.00246    CDp =*********

 MRCHDU: Convergence failed at 102  side 2    Res =  0.1161E+00
 Side 1 forced transition at x/c =  1.0000   79
 Side 2  free  transition at x/c =  0.0280   14

  38   rms: 0.2404E+02   max: 0.4603E+03   C at  103  2   RLX: 0.003
       a = -4.000      CL = -0.3987
      Cm =  0.0687     CD =166.63135   =>   CDf =  0.00246    CDp =166.62889

 MRCHDU: Convergence failed at  82  side 2    Res =  0.8740E-02
 MRCHDU: Convergence failed at  83  side 2    Res =  0.4134E-03
 MRCHDU: Convergence failed at 102  side 2    Res =  0.4283E-01
 MRCHDU: Convergence failed at 103  side 2    Res =  0.1466E+00
 Side 1 forced transition at x/c =  1.0000   79
 Side 2  free  transition at x/c =  0.0280   14

  39   rms: 0.6649E+01   max: 0.1205E+03   T at  105  2   RLX: 0.012
       a = -4.000      CL = -0.3882
      Cm =  0.0667     CD =  5.31652   =>   CDf =  0.00246    CDp =  5.31406

 MRCHDU: Convergence failed at  79  side 2    Res =  0.3575E-02
 MRCHDU: Convergence failed at 102  side 2    Res =  0.2897E-01
 MRCHDU: Convergence failed at 103  side 2    Res =  0.9600E-01
 Side 1 forced transition at x/c =  1.0000   79
 Side 2  free  transition at x/c =  0.0280   14

  40   rms: 0.9561E+01   max: 0.1611E+03   C at  103  2   RLX: 0.009
       a = -4.000      CL = -0.3812
      Cm =  0.0653     CD =  2.34161   =>   CDf =  0.00245    CDp =  2.33917

 MRCHDU: Convergence failed at  79  side 2    Res =  0.4270E-02
 MRCHDU: Convergence failed at 102  side 2    Res =  0.2429E-01
 MRCHDU: Convergence failed at 103  side 2    Res =  0.3580E+00
 Side 1 forced transition at x/c =  1.0000   79
 Side 2  free  transition at x/c =  0.0280   14

  41   rms: 0.2773E+01   max: 0.3442E+02   T at  105  2   RLX: 0.044
       a = -4.000      CL = -0.3482
      Cm =  0.0589     CD =  1.25927   =>   CDf =  0.00244    CDp =  1.25683

 MRCHDU: Convergence failed at 102  side 2    Res =  0.4139E-01
 Side 1 forced transition at x/c =  1.0000   79
 Side 2  free  transition at x/c =  0.0281   14

  42   rms: 0.3685E+01   max: 0.4035E+02   C at  103  2   RLX: 0.037
       a = -4.000      CL = -0.3170
      Cm =  0.0531     CD =  1.00715   =>   CDf =  0.00239    CDp =  1.00475

 MRCHDU: Convergence failed at  82  side 2    Res =  0.2786E-01
 MRCHDU: Convergence failed at  83  side 2    Res =  0.7901E-03
 Side 1 forced transition at x/c =  1.0000   79
 Side 2  free  transition at x/c =  0.0281   14

  43   rms: 0.4348E+01   max: -.4271E+02   T at  100  2   RLX: 0.012
       a = -4.000      CL = -0.3035
      Cm =  0.0501     CD =  0.49802   =>   CDf =  0.00234    CDp =  0.49568

 MRCHDU: Convergence failed at  82  side 2    Res =  0.1631E-01
 MRCHDU: Convergence failed at  83  side 2    Res =  0.5195E-03
 MRCHDU: Convergence failed at 100  side 2    Res =  0.1063E+00
 MRCHDU: Convergence failed at 102  side 2    Res =  0.6422E-01
 Side 1 forced transition at x/c =  1.0000   79
 Side 2  free  transition at x/c =  0.0281   14

  44   rms: 0.1938E+01   max: 0.2716E+02   C at  101  2   RLX: 0.048
       a = -4.000      CL = -0.2616
      Cm =  0.0423     CD =  0.65464   =>   CDf =  0.00233    CDp =  0.65231

 MRCHDU: Convergence failed at  82  side 2    Res =  0.2305E-01
 MRCHDU: Convergence failed at  83  side 2    Res =  0.3076E-03
 Side 1 forced transition at x/c =  1.0000   79
 Side 2  free  transition at x/c =  0.0281   14

  45   rms: 0.9553E+00   max: 0.1256E+02   T at   84  2   RLX: 0.119
       a = -4.000      CL = -0.1908
      Cm =  0.0283     CD =  0.39971   =>   CDf =  0.00227    CDp =  0.39744

 MRCHDU: Convergence failed at  80  side 2    Res =  0.1475E-01
 MRCHDU: Convergence failed at  82  side 2    Res =  0.2903E+00
 Side 1 forced transition at x/c =  1.0000   79
 Side 2  free  transition at x/c =  0.0282   14

  46   rms: 0.4682E+02   max: -.7428E+03   C at  101  2   RLX: 0.001
       a = -4.000      CL = -0.1872
      Cm =  0.0267     CD =  0.11791   =>   CDf =  0.00217    CDp =  0.11575

 MRCHDU: Convergence failed at  80  side 2    Res =  0.2675E-01
 MRCHDU: Convergence failed at  81  side 2    Res =  0.8432E+00
 MRCHDU: Convergence failed at  82  side 2    Res =  0.4327E+00
 Side 1 forced transition at x/c =  1.0000   79
 Side 2  free  transition at x/c =  0.0282   14

  47   rms: 0.6857E+02   max: 0.8983E+03   C at  100  2   RLX: 0.001
       a = -4.000      CL = -0.1864
      Cm =  0.0265     CD =  0.14037   =>   CDf =  0.00217    CDp =  0.13821

 MRCHDU: Convergence failed at  80  side 2    Res =  0.9500E+00
 MRCHDU: Convergence failed at  81  side 2    Res =  0.1241E+01
 Side 1 forced transition at x/c =  1.0000   79
 Side 2  free  transition at x/c =  0.0282   14

  48   rms: 0.3503E+03   max: -.4748E+04   C at  105  2   RLX: 0.000
       a = -4.000      CL = -0.1863
      Cm =  0.0265     CD =  0.14326   =>   CDf =  0.00217    CDp =  0.14109

 MRCHDU: Convergence failed at  81  side 2    Res =  0.1581E-01
 MRCHDU: Convergence failed at  82  side 2    Res =  0.4966E+00
 MRCHDU: Convergence failed at  83  side 2    Res =  0.3754E-03
 Side 1 forced transition at x/c =  1.0000   79
 Side 2  free  transition at x/c =  0.0282   14

  49   rms: 0.6528E+03   max: -.8855E+04   C at  103  2   RLX: 0.000
       a = -4.000      CL = -0.1863
      Cm =  0.0265     CD =  0.18035   =>   CDf =  0.00217    CDp =  0.17818

 MRCHDU: Convergence failed at  81  side 2    Res =  0.1586E-01
 MRCHDU: Convergence failed at  82  side 2    Res =  0.1703E+00
 MRCHDU: Convergence failed at  83  side 2    Res =  0.3741E-03
 Side 1 forced transition at x/c =  1.0000   79
 Side 2  free  transition at x/c =  0.0282   14

  50   rms: 0.1006E+04   max: -.1364E+05   C at  104  2   RLX: 0.000
       a = -4.000      CL = -0.1862
      Cm =  0.0265     CD =  0.18069   =>   CDf =  0.00217    CDp =  0.17852

 MRCHDU: Convergence failed at  81  side 2    Res =  0.1589E-01
 MRCHDU: Convergence failed at  82  side 2    Res =  0.1704E+00
 MRCHDU: Convergence failed at  83  side 2    Res =  0.3731E-03
 Side 1 forced transition at x/c =  1.0000   79
 Side 2  free  transition at x/c =  0.0282   14

  51   rms: 0.8979E+03   max: -.1218E+05   C at  104  2   RLX: 0.000
       a = -4.000      CL = -0.1862
      Cm =  0.0265     CD =  0.18095   =>   CDf =  0.00217    CDp =  0.17879

 MRCHDU: Convergence failed at  81  side 2    Res =  0.1592E-01
 MRCHDU: Convergence failed at  82  side 2    Res =  0.1704E+00
 MRCHDU: Convergence failed at  83  side 2    Res =  0.3721E-03
 Side 1 forced transition at x/c =  1.0000   79
 Side 2  free  transition at x/c =  0.0282   14

  52   rms: 0.9571E+03   max: -.1298E+05   C at  105  2   RLX: 0.000
       a = -4.000      CL = -0.1862
      Cm =  0.0265     CD =  0.18117   =>   CDf =  0.00217    CDp =  0.17900

 MRCHDU: Convergence failed at  81  side 2    Res =  0.1594E-01
 MRCHDU: Convergence failed at  82  side 2    Res =  0.1705E+00
 MRCHDU: Convergence failed at  83  side 2    Res =  0.3714E-03
 Side 1 forced transition at x/c =  1.0000   79
 Side 2  free  transition at x/c =  0.0282   14

  53   rms: 0.1108E+04   max: -.1503E+05   C at  105  2   RLX: 0.000
       a = -4.000      CL = -0.1861
      Cm =  0.0265     CD =  0.18135   =>   CDf =  0.00217    CDp =  0.17919

 MRCHDU: Convergence failed at  81  side 2    Res =  0.1594E-01
 MRCHDU: Convergence failed at  82  side 2    Res =  0.1705E+00
 MRCHDU: Convergence failed at  83  side 2    Res =  0.3710E-03
 Side 1 forced transition at x/c =  1.0000   79
 Side 2  free  transition at x/c =  0.0282   14

  54   rms: 0.1147E+04   max: -.1556E+05   C at  105  2   RLX: 0.000
       a = -4.000      CL = -0.1861
      Cm =  0.0265     CD =  0.18153   =>   CDf =  0.00217    CDp =  0.17936

 MRCHDU: Convergence failed at  81  side 2    Res =  0.1595E-01
 MRCHDU: Convergence failed at  82  side 2    Res =  0.1706E+00
 MRCHDU: Convergence failed at  83  side 2    Res =  0.3706E-03
 Side 1 forced transition at x/c =  1.0000   79
 Side 2  free  transition at x/c =  0.0282   14

  55   rms: 0.1444E+04   max: -.1958E+05   C at  105  2   RLX: 0.000
       a = -4.000      CL = -0.1861
      Cm =  0.0265     CD =  0.18167   =>   CDf =  0.00217    CDp =  0.17951

 MRCHDU: Convergence failed at  81  side 2    Res =  0.1596E-01
 MRCHDU: Convergence failed at  82  side 2    Res =  0.1706E+00
 MRCHDU: Convergence failed at  83  side 2    Res =  0.3703E-03
 Side 1 forced transition at x/c =  1.0000   79
 Side 2  free  transition at x/c =  0.0282   14

  56   rms: 0.1866E+04   max: -.2532E+05   C at  105  2   RLX: 0.000
       a = -4.000      CL = -0.1861
      Cm =  0.0265     CD =  0.18181   =>   CDf =  0.00217    CDp =  0.17964

 MRCHDU: Convergence failed at  81  side 2    Res =  0.1597E-01
 MRCHDU: Convergence failed at  82  side 2    Res =  0.1707E+00
 MRCHDU: Convergence failed at  83  side 2    Res =  0.3698E-03
 Side 1 forced transition at x/c =  1.0000   79
 Side 2  free  transition at x/c =  0.0282   14

  57   rms: 0.2240E+04   max: -.3038E+05   C at  105  2   RLX: 0.000
       a = -4.000      CL = -0.1861
      Cm =  0.0265     CD =  0.18191   =>   CDf =  0.00217    CDp =  0.17974

 MRCHDU: Convergence failed at  81  side 2    Res =  0.1597E-01
 MRCHDU: Convergence failed at  82  side 2    Res =  0.1707E+00
 MRCHDU: Convergence failed at  83  side 2    Res =  0.3695E-03
 Side 1 forced transition at x/c =  1.0000   79
 Side 2  free  transition at x/c =  0.0282   14

  58   rms: 0.2293E+04   max: -.3111E+05   C at  105  2   RLX: 0.000
       a = -4.000      CL = -0.1861
      Cm =  0.0265     CD =  0.18200   =>   CDf =  0.00217    CDp =  0.17984

 MRCHDU: Convergence failed at  81  side 2    Res =  0.1598E-01
 MRCHDU: Convergence failed at  82  side 2    Res =  0.1707E+00
 MRCHDU: Convergence failed at  83  side 2    Res =  0.3692E-03
 Side 1 forced transition at x/c =  1.0000   79
 Side 2  free  transition at x/c =  0.0282   14

  59   rms: 0.3843E+04   max: -.5213E+05   C at  105  2   RLX: 0.000
       a = -4.000      CL = -0.1860
      Cm =  0.0265     CD =  0.18209   =>   CDf =  0.00217    CDp =  0.17993

 MRCHDU: Convergence failed at  81  side 2    Res =  0.1598E-01
 MRCHDU: Convergence failed at  82  side 2    Res =  0.1708E+00
 MRCHDU: Convergence failed at  83  side 2    Res =  0.3690E-03
 Side 1 forced transition at x/c =  1.0000   79
 Side 2  free  transition at x/c =  0.0282   14

  60   rms: 0.3640E+04   max: -.4938E+05   C at  105  2   RLX: 0.000
       a = -4.000      CL = -0.1860
      Cm =  0.0265     CD =  0.18217   =>   CDf =  0.00217    CDp =  0.18000

 MRCHDU: Convergence failed at  81  side 2    Res =  0.1599E-01
 MRCHDU: Convergence failed at  82  side 2    Res =  0.1708E+00
 MRCHDU: Convergence failed at  83  side 2    Res =  0.3688E-03
 Side 1 forced transition at x/c =  1.0000   79
 Side 2  free  transition at x/c =  0.0282   14

  61   rms: 0.3815E+04   max: -.5175E+05   C at  105  2   RLX: 0.000
       a = -4.000      CL = -0.1860
      Cm =  0.0265     CD =  0.18224   =>   CDf =  0.00217    CDp =  0.18008

 MRCHDU: Convergence failed at  81  side 2    Res =  0.1599E-01
 MRCHDU: Convergence failed at  82  side 2    Res =  0.1708E+00
 MRCHDU: Convergence failed at  83  side 2    Res =  0.3686E-03
 Side 1 forced transition at x/c =  1.0000   79
 Side 2  free  transition at x/c =  0.0282   14

  62   rms: 0.2208E+04   max: -.2995E+05   C at  105  2   RLX: 0.000
       a = -4.000      CL = -0.1860
      Cm =  0.0264     CD =  0.18231   =>   CDf =  0.00217    CDp =  0.18014

 MRCHDU: Convergence failed at  81  side 2    Res =  0.1599E-01
 MRCHDU: Convergence failed at  82  side 2    Res =  0.1708E+00
 MRCHDU: Convergence failed at  83  side 2    Res =  0.3684E-03
 Side 1 forced transition at x/c =  1.0000   79
 Side 2  free  transition at x/c =  0.0282   14

  63   rms: 0.3233E+04   max: -.4386E+05   C at  105  2   RLX: 0.000
       a = -4.000      CL = -0.1860
      Cm =  0.0264     CD =  0.18237   =>   CDf =  0.00217    CDp =  0.18020

 MRCHDU: Convergence failed at  81  side 2    Res =  0.1600E-01
 MRCHDU: Convergence failed at  82  side 2    Res =  0.1708E+00
 MRCHDU: Convergence failed at  83  side 2    Res =  0.3683E-03
 Side 1 forced transition at x/c =  1.0000   79
 Side 2  free  transition at x/c =  0.0282   14

  64   rms: 0.2011E+04   max: -.2727E+05   C at  105  2   RLX: 0.000
       a = -4.000      CL = -0.1860
      Cm =  0.0264     CD =  0.18242   =>   CDf =  0.00217    CDp =  0.18026

 MRCHDU: Convergence failed at  81  side 2    Res =  0.1600E-01
 MRCHDU: Convergence failed at  82  side 2    Res =  0.1708E+00
 MRCHDU: Convergence failed at  83  side 2    Res =  0.3682E-03
 MRCHDU: Convergence failed at 102  side 2    Res =  0.2805E-01
 Side 1 forced transition at x/c =  1.0000   79
 Side 2  free  transition at x/c =  0.0282   14

  65   rms: 0.2411E+04   max: -.3271E+05   C at  105  2   RLX: 0.000
       a = -4.000      CL = -0.1860
      Cm =  0.0264     CD =  0.18248   =>   CDf =  0.00217    CDp =  0.18031

 MRCHDU: Convergence failed at  81  side 2    Res =  0.1600E-01
 MRCHDU: Convergence failed at  82  side 2    Res =  0.1709E+00
 MRCHDU: Convergence failed at  83  side 2    Res =  0.3681E-03
 MRCHDU: Convergence failed at 102  side 2    Res =  0.7963E-01
 Side 1 forced transition at x/c =  1.0000   79
 Side 2  free  transition at x/c =  0.0282   14

  66   rms: 0.2570E+04   max: -.3486E+05   C at  105  2   RLX: 0.000
       a = -4.000      CL = -0.1860
      Cm =  0.0264     CD =  0.18253   =>   CDf =  0.00217    CDp =  0.18036

 MRCHDU: Convergence failed at  81  side 2    Res =  0.1600E-01
 MRCHDU: Convergence failed at  82  side 2    Res =  0.1709E+00
 MRCHDU: Convergence failed at  83  side 2    Res =  0.3680E-03
 MRCHDU: Convergence failed at 102  side 2    Res =  0.1311E+00
 Side 1 forced transition at x/c =  1.0000   79
 Side 2  free  transition at x/c =  0.0282   14

  67   rms: 0.1607E+01   max: 0.1909E+02   C at  103  2   RLX: 0.079
       a = -4.000      CL = -0.1383
      Cm =  0.0184     CD =  0.19771   =>   CDf =  0.00217    CDp =  0.19554

 MRCHDU: Convergence failed at  81  side 2    Res =  0.7628E-02
 MRCHDU: Convergence failed at  82  side 2    Res =  0.1651E+00
 MRCHDU: Convergence failed at  83  side 2    Res =  0.8551E-03
 Side 1 forced transition at x/c =  1.0000   79
 Side 2  free  transition at x/c =  0.0282   14

  68   rms: 0.6132E+02   max: -.8501E+03   C at  103  2   RLX: 0.001
       a = -4.000      CL = -0.1346
      Cm =  0.0169     CD =  0.17862   =>   CDf =  0.00206    CDp =  0.17656

 MRCHDU: Convergence failed at  81  side 2    Res =  0.7960E-02
 MRCHDU: Convergence failed at  82  side 2    Res =  0.2033E+01
 MRCHDU: Convergence failed at  83  side 2    Res =  0.8259E-03
 Side 1 forced transition at x/c =  1.0000   79
 Side 2  free  transition at x/c =  0.0282   14

  69   rms: 0.5694E+03   max: 0.8920E+04   C at  103  2   RLX: 0.000
       a = -4.000      CL = -0.1347
      Cm =  0.0168     CD =  0.18020   =>   CDf =  0.00206    CDp =  0.17814

 MRCHDU: Convergence failed at  81  side 2    Res =  0.7829E-02
 MRCHDU: Convergence failed at  82  side 2    Res =  0.1210E+01
 MRCHDU: Convergence failed at  83  side 2    Res =  0.8333E-03
 Side 1 forced transition at x/c =  1.0000   79
 Side 2  free  transition at x/c =  0.0282   14

  70   rms: 0.1205E+03   max: -.1886E+04   C at  103  2   RLX: 0.000
       a = -4.000      CL = -0.1346
      Cm =  0.0168     CD =  0.18018   =>   CDf =  0.00206    CDp =  0.17812

 MRCHDU: Convergence failed at  81  side 2    Res =  0.7767E-02
 MRCHDU: Convergence failed at  82  side 2    Res =  0.1268E+01
 MRCHDU: Convergence failed at  83  side 2    Res =  0.8175E-03
 Side 1 forced transition at x/c =  1.0000   79
 Side 2  free  transition at x/c =  0.0282   14

  71   rms: 0.3448E+03   max: 0.5402E+04   C at  103  2   RLX: 0.000
       a = -4.000      CL = -0.1346
      Cm =  0.0168     CD =  0.17928   =>   CDf =  0.00206    CDp =  0.17722

 MRCHDU: Convergence failed at  81  side 2    Res =  0.7592E-02
 MRCHDU: Convergence failed at  82  side 2    Res =  0.1245E+01
 MRCHDU: Convergence failed at  83  side 2    Res =  0.8265E-03
 Side 1 forced transition at x/c =  1.0000   79
 Side 2  free  transition at x/c =  0.0282   14

  72   rms: 0.2263E+02   max: -.3538E+03   C at  103  2   RLX: 0.001
       a = -4.000      CL = -0.1344
      Cm =  0.0167     CD =  0.17911   =>   CDf =  0.00206    CDp =  0.17705

 MRCHDU: Convergence failed at  81  side 2    Res =  0.7341E-02
 MRCHDU: Convergence failed at  82  side 2    Res =  0.1350E+01
 MRCHDU: Convergence failed at  83  side 2    Res =  0.8152E-03
 Side 1 forced transition at x/c =  1.0000   79
 Side 2  free  transition at x/c =  0.0282   14

  73   rms: 0.2206E+03   max: -.3455E+04   C at  103  2   RLX: 0.000
       a = -4.000      CL = -0.1343
      Cm =  0.0167     CD =  0.18000   =>   CDf =  0.00206    CDp =  0.17794

 MRCHDU: Convergence failed at  81  side 2    Res =  0.7344E-02
 MRCHDU: Convergence failed at  82  side 2    Res =  0.1241E+01
 MRCHDU: Convergence failed at  83  side 2    Res =  0.8087E-03
 Side 1 forced transition at x/c =  1.0000   79
 Side 2  free  transition at x/c =  0.0282   14

  74   rms: 0.8988E+03   max: 0.1408E+05   C at  103  2   RLX: 0.000
       a = -4.000      CL = -0.1344
      Cm =  0.0167     CD =  0.17949   =>   CDf =  0.00206    CDp =  0.17743

 MRCHDU: Convergence failed at  81  side 2    Res =  0.7212E-02
 MRCHDU: Convergence failed at  82  side 2    Res =  0.1165E+01
 MRCHDU: Convergence failed at  83  side 2    Res =  0.8145E-03
 Side 1 forced transition at x/c =  1.0000   79
 Side 2  free  transition at x/c =  0.0282   14

  75   rms: 0.8694E+02   max: 0.1361E+04   C at  103  2   RLX: 0.001
       a = -4.000      CL = -0.1344
      Cm =  0.0167     CD =  0.17732   =>   CDf =  0.00206    CDp =  0.17526

 MRCHDU: Convergence failed at  81  side 2    Res =  0.6869E-02
 MRCHDU: Convergence failed at  82  side 2    Res =  0.1096E+01
 MRCHDU: Convergence failed at  83  side 2    Res =  0.8449E-03
 Side 1 forced transition at x/c =  1.0000   79
 Side 2  free  transition at x/c =  0.0282   14

  76   rms: 0.2395E+03   max: 0.3669E+04   C at  103  2   RLX: 0.000
       a = -4.000      CL = -0.1346
      Cm =  0.0167     CD =  0.17243   =>   CDf =  0.00206    CDp =  0.17036

 MRCHDU: Convergence failed at  81  side 2    Res =  0.6173E-02
 MRCHDU: Convergence failed at  82  side 2    Res =  0.1106E+01
 MRCHDU: Convergence failed at  83  side 2    Res =  0.8837E-03
 Side 1 forced transition at x/c =  1.0000   79
 Side 2  free  transition at x/c =  0.0282   14

  77   rms: 0.6797E+02   max: -.8721E+03   C at  100  2   RLX: 0.001
       a = -4.000      CL = -0.1350
      Cm =  0.0167     CD =  0.16558   =>   CDf =  0.00206    CDp =  0.16352

 MRCHDU: Convergence failed at  81  side 2    Res =  0.5413E-02
 MRCHDU: Convergence failed at  82  side 2    Res =  0.1425E+01
 MRCHDU: Convergence failed at  83  side 2    Res =  0.9151E-03
 Side 1 forced transition at x/c =  1.0000   79
 Side 2  free  transition at x/c =  0.0282   14

  78   rms: 0.1229E+04   max: -.1303E+05   C at  102  2   RLX: 0.000
       a = -4.000      CL = -0.1352
      Cm =  0.0167     CD =  0.16409   =>   CDf =  0.00207    CDp =  0.16203

 MRCHDU: Convergence failed at  81  side 2    Res =  0.5198E-02
 MRCHDU: Convergence failed at  82  side 2    Res =  0.2868E+01
 MRCHDU: Convergence failed at  83  side 2    Res =  0.9245E-03
 Side 1 forced transition at x/c =  1.0000   79
 Side 2  free  transition at x/c =  0.0282   14

  79   rms: 0.1107E+04   max: -.1152E+05   C at  102  2   RLX: 0.000
       a = -4.000      CL = -0.1353
      Cm =  0.0167     CD =  0.16371   =>   CDf =  0.00207    CDp =  0.16164

 MRCHDU: Convergence failed at  81  side 2    Res =  0.5087E-02
 MRCHDU: Convergence failed at  82  side 2    Res =  0.3997E+01
 MRCHDU: Convergence failed at  83  side 2    Res =  0.9291E-03
 Side 1 forced transition at x/c =  1.0000   79
 Side 2  free  transition at x/c =  0.0282   14

  80   rms: 0.6615E+03   max: -.6886E+04   C at  103  2   RLX: 0.000
       a = -4.000      CL = -0.1353
      Cm =  0.0167     CD =  0.16355   =>   CDf =  0.00207    CDp =  0.16148

 MRCHDU: Convergence failed at  81  side 2    Res =  0.5015E-02
 MRCHDU: Convergence failed at  82  side 2    Res =  0.4912E+01
 MRCHDU: Convergence failed at  83  side 2    Res =  0.9316E-03
 Side 1 forced transition at x/c =  1.0000   79
 Side 2  free  transition at x/c =  0.0282   14

  81   rms: 0.1483E+04   max: -.1540E+05   C at  103  2   RLX: 0.000
       a = -4.000      CL = -0.1354
      Cm =  0.0167     CD =  0.16347   =>   CDf =  0.00207    CDp =  0.16141

 MRCHDU: Convergence failed at  81  side 2    Res =  0.4965E-02
 MRCHDU: Convergence failed at  82  side 2    Res =  0.5673E+01
 MRCHDU: Convergence failed at  83  side 2    Res =  0.9334E-03
 Side 1 forced transition at x/c =  1.0000   79
 Side 2  free  transition at x/c =  0.0282   14

  82   rms: 0.3078E+04   max: -.3187E+05   C at  103  2   RLX: 0.000
       a = -4.000      CL = -0.1354
      Cm =  0.0167     CD =  0.16343   =>   CDf =  0.00207    CDp =  0.16136

 MRCHDU: Convergence failed at  81  side 2    Res =  0.4932E-02
 MRCHDU: Convergence failed at  82  side 2    Res =  0.6545E+01
 MRCHDU: Convergence failed at  83  side 2    Res =  0.9351E-03
 Side 1 forced transition at x/c =  1.0000   79
 Side 2  free  transition at x/c =  0.0282   14

  83   rms: 0.5865E+04   max: -.6060E+05   C at  103  2   RLX: 0.000
       a = -4.000      CL = -0.1354
      Cm =  0.0167     CD =  0.16340   =>   CDf =  0.00207    CDp =  0.16133

 MRCHDU: Convergence failed at  81  side 2    Res =  0.4907E-02
 MRCHDU: Convergence failed at  82  side 2    Res =  0.7134E+01
 MRCHDU: Convergence failed at  83  side 2    Res =  0.9364E-03
 Side 1 forced transition at x/c =  1.0000   79
 Side 2  free  transition at x/c =  0.0282   14

  84   rms: 0.3872E+04   max: -.3995E+05   C at  103  2   RLX: 0.000
       a = -4.000      CL = -0.1354
      Cm =  0.0167     CD =  0.16338   =>   CDf =  0.00207    CDp =  0.16132

 MRCHDU: Convergence failed at  81  side 2    Res =  0.4887E-02
 MRCHDU: Convergence failed at  82  side 2    Res =  0.7716E+01
 MRCHDU: Convergence failed at  83  side 2    Res =  0.9373E-03
 Side 1 forced transition at x/c =  1.0000   79
 Side 2  free  transition at x/c =  0.0282   14

  85   rms: 0.5430E+04   max: -.5595E+05   C at  104  2   RLX: 0.000
       a = -4.000      CL = -0.1354
      Cm =  0.0167     CD =  0.16337   =>   CDf =  0.00207    CDp =  0.16130

 MRCHDU: Convergence failed at  81  side 2    Res =  0.4870E-02
 MRCHDU: Convergence failed at  82  side 2    Res =  0.8262E+01
 MRCHDU: Convergence failed at  83  side 2    Res =  0.9381E-03
 Side 1 forced transition at x/c =  1.0000   79
 Side 2  free  transition at x/c =  0.0282   14

  86   rms: 0.2111E+04   max: -.2173E+05   C at  104  2   RLX: 0.000
       a = -4.000      CL = -0.1354
      Cm =  0.0167     CD =  0.16335   =>   CDf =  0.00207    CDp =  0.16129

 MRCHDU: Convergence failed at  81  side 2    Res =  0.4853E-02
 MRCHDU: Convergence failed at  82  side 2    Res =  0.8663E+01
 MRCHDU: Convergence failed at  83  side 2    Res =  0.9387E-03
 Side 1 forced transition at x/c =  1.0000   79
 Side 2  free  transition at x/c =  0.0282   14

  87   rms: 0.9574E+04   max: -.9850E+05   C at  105  2   RLX: 0.000
       a = -4.000      CL = -0.1355
      Cm =  0.0167     CD =  0.16334   =>   CDf =  0.00207    CDp =  0.16128

 MRCHDU: Convergence failed at  81  side 2    Res =  0.4843E-02
 MRCHDU: Convergence failed at  82  side 2    Res =  0.9240E+01
 MRCHDU: Convergence failed at  83  side 2    Res =  0.9394E-03
 Side 1 forced transition at x/c =  1.0000   79
 Side 2  free  transition at x/c =  0.0282   14

  88   rms: 0.4486E+04   max: -.4613E+05   C at  105  2   RLX: 0.000
       a = -4.000      CL = -0.1355
      Cm =  0.0167     CD =  0.16334   =>   CDf =  0.00207    CDp =  0.16127

 MRCHDU: Convergence failed at  81  side 2    Res =  0.4832E-02
 MRCHDU: Convergence failed at  82  side 2    Res =  0.9595E+01
 MRCHDU: Convergence failed at  83  side 2    Res =  0.9399E-03
 Side 1 forced transition at x/c =  1.0000   79
 Side 2  free  transition at x/c =  0.0282   14

  89   rms: 0.8963E+04   max: -.9213E+05   C at  105  2   RLX: 0.000
       a = -4.000      CL = -0.1355
      Cm =  0.0167     CD =  0.16333   =>   CDf =  0.00207    CDp =  0.16126

 MRCHDU: Convergence failed at  81  side 2    Res =  0.4822E-02
 MRCHDU: Convergence failed at  82  side 2    Res =  0.1002E+02
 MRCHDU: Convergence failed at  83  side 2    Res =  0.9403E-03
 Side 1 forced transition at x/c =  1.0000   79
 Side 2  free  transition at x/c =  0.0282   14

  90   rms: 0.9545E+04   max: -.9808E+05   C at  105  2   RLX: 0.000
       a = -4.000      CL = -0.1355
      Cm =  0.0167     CD =  0.16333   =>   CDf =  0.00207    CDp =  0.16126

 MRCHDU: Convergence failed at  81  side 2    Res =  0.4814E-02
 MRCHDU: Convergence failed at  82  side 2    Res =  0.1041E+02
 MRCHDU: Convergence failed at  83  side 2    Res =  0.9406E-03
 Side 1 forced transition at x/c =  1.0000   79
 Side 2  free  transition at x/c =  0.0282   14

  91   rms: 0.9717E+04   max: -.9983E+05   C at  105  2   RLX: 0.000
       a = -4.000      CL = -0.1355
      Cm =  0.0167     CD =  0.16332   =>   CDf =  0.00207    CDp =  0.16125

 MRCHDU: Convergence failed at  81  side 2    Res =  0.4806E-02
 MRCHDU: Convergence failed at  82  side 2    Res =  0.1078E+02
 MRCHDU: Convergence failed at  83  side 2    Res =  0.9408E-03
 Side 1 forced transition at x/c =  1.0000   79
 Side 2  free  transition at x/c =  0.0282   14

  92   rms: 0.1341E+05   max: -.1378E+06   C at  105  2   RLX: 0.000
       a = -4.000      CL = -0.1355
      Cm =  0.0167     CD =  0.16332   =>   CDf =  0.00207    CDp =  0.16125

 MRCHDU: Convergence failed at  81  side 2    Res =  0.4800E-02
 MRCHDU: Convergence failed at  82  side 2    Res =  0.1115E+02
 MRCHDU: Convergence failed at  83  side 2    Res =  0.9411E-03
 Side 1 forced transition at x/c =  1.0000   79
 Side 2  free  transition at x/c =  0.0282   14

  93   rms: 0.2150E+05   max: -.2208E+06   C at  105  2   RLX: 0.000
       a = -4.000      CL = -0.1355
      Cm =  0.0167     CD =  0.16331   =>   CDf =  0.00207    CDp =  0.16124

 MRCHDU: Convergence failed at  81  side 2    Res =  0.4794E-02
 MRCHDU: Convergence failed at  82  side 2    Res =  0.1151E+02
 MRCHDU: Convergence failed at  83  side 2    Res =  0.9414E-03
 Side 1 forced transition at x/c =  1.0000   79
 Side 2  free  transition at x/c =  0.0282   14

  94   rms: 0.2456E+05   max: -.2522E+06   C at  105  2   RLX: 0.000
       a = -4.000      CL = -0.1355
      Cm =  0.0167     CD =  0.16331   =>   CDf =  0.00207    CDp =  0.16124

 MRCHDU: Convergence failed at  81  side 2    Res =  0.4790E-02
 MRCHDU: Convergence failed at  82  side 2    Res =  0.1181E+02
 MRCHDU: Convergence failed at  83  side 2    Res =  0.9417E-03
 MRCHDU: Convergence failed at  99  side 2    Res =  0.6254E-05
 Side 1 forced transition at x/c =  1.0000   79
 Side 2  free  transition at x/c =  0.0282   14

  95   rms: 0.2383E+05   max: -.2447E+06   C at  105  2   RLX: 0.000
       a = -4.000      CL = -0.1355
      Cm =  0.0167     CD =  0.16331   =>   CDf =  0.00207    CDp =  0.16124

 MRCHDU: Convergence failed at  81  side 2    Res =  0.4785E-02
 MRCHDU: Convergence failed at  82  side 2    Res =  0.1207E+02
 MRCHDU: Convergence failed at  83  side 2    Res =  0.9419E-03
 Side 1 forced transition at x/c =  1.0000   79
 Side 2  free  transition at x/c =  0.0282   14

  96   rms: 0.2106E+05   max: -.2162E+06   C at  105  2   RLX: 0.000
       a = -4.000      CL = -0.1355
      Cm =  0.0167     CD =  0.16331   =>   CDf =  0.00207    CDp =  0.16124

 MRCHDU: Convergence failed at  81  side 2    Res =  0.4780E-02
 MRCHDU: Convergence failed at  82  side 2    Res =  0.1234E+02
 MRCHDU: Convergence failed at  83  side 2    Res =  0.9421E-03
 Side 1 forced transition at x/c =  1.0000   79
 Side 2  free  transition at x/c =  0.0282   14

  97   rms: 0.2058E+05   max: -.2113E+06   C at  105  2   RLX: 0.000
       a = -4.000      CL = -0.1355
      Cm =  0.0167     CD =  0.16330   =>   CDf =  0.00207    CDp =  0.16124

 MRCHDU: Convergence failed at  81  side 2    Res =  0.4777E-02
 MRCHDU: Convergence failed at  82  side 2    Res =  0.1261E+02
 MRCHDU: Convergence failed at  83  side 2    Res =  0.9423E-03
 Side 1 forced transition at x/c =  1.0000   79
 Side 2  free  transition at x/c =  0.0282   14

  98   rms: 0.2658E+05   max: -.2728E+06   C at  105  2   RLX: 0.000
       a = -4.000      CL = -0.1355
      Cm =  0.0167     CD =  0.16330   =>   CDf =  0.00207    CDp =  0.16123

 MRCHDU: Convergence failed at  81  side 2    Res =  0.4774E-02
 MRCHDU: Convergence failed at  82  side 2    Res =  0.1284E+02
 MRCHDU: Convergence failed at  83  side 2    Res =  0.9424E-03
 MRCHDU: Convergence failed at 102  side 2    Res =  0.1854E-01
 MRCHDU: Convergence failed at 103  side 2    Res =  0.2927E-01
 Side 1 forced transition at x/c =  1.0000   79
 Side 2  free  transition at x/c =  0.0282   14

  99   rms: 0.2756E+05   max: -.2829E+06   C at  105  2   RLX: 0.000
       a = -4.000      CL = -0.1355
      Cm =  0.0167     CD =  0.16330   =>   CDf =  0.00207    CDp =  0.16123

 MRCHDU: Convergence failed at  81  side 2    Res =  0.4770E-02
 MRCHDU: Convergence failed at  82  side 2    Res =  0.1303E+02
 MRCHDU: Convergence failed at  83  side 2    Res =  0.9426E-03
 MRCHDU: Convergence failed at 101  side 2    Res =  0.2130E-01
 MRCHDU: Convergence failed at 102  side 2    Res =  0.4936E-01
 MRCHDU: Convergence failed at 103  side 2    Res =  0.2931E-01
 Side 1 forced transition at x/c =  1.0000   79
 Side 2  free  transition at x/c =  0.0282   14

 100   rms: 0.8485E+04   max: -.8711E+05   C at  105  2   RLX: 0.000
       a = -4.000      CL = -0.1355
      Cm =  0.0167     CD =  0.16330   =>   CDf =  0.00207    CDp =  0.16123

 MRCHDU: Convergence failed at  81  side 2    Res =  0.4765E-02
 MRCHDU: Convergence failed at  82  side 2    Res =  0.1321E+02
 MRCHDU: Convergence failed at  83  side 2    Res =  0.9427E-03
 MRCHDU: Convergence failed at 100  side 2    Res =  0.2828E-01
 MRCHDU: Convergence failed at 101  side 2    Res =  0.4495E-01
 MRCHDU: Convergence failed at 102  side 2    Res =  0.4937E-01
 MRCHDU: Convergence failed at 103  side 2    Res =  0.2936E-01
 Side 1 forced transition at x/c =  1.0000   79
 Side 2  free  transition at x/c =  0.0282   14

 101   rms: 0.3413E+05   max: -.3504E+06   C at  105  2   RLX: 0.000
       a = -4.000      CL = -0.1355
      Cm =  0.0167     CD =  0.16330   =>   CDf =  0.00207    CDp =  0.16123

 MRCHDU: Convergence failed at  81  side 2    Res =  0.4762E-02
 MRCHDU: Convergence failed at  82  side 2    Res =  0.1355E+02
 MRCHDU: Convergence failed at  83  side 2    Res =  0.9428E-03
 MRCHDU: Convergence failed at  99  side 2    Res =  0.8276E-02
 MRCHDU: Convergence failed at 100  side 2    Res =  0.7191E-01
 MRCHDU: Convergence failed at 101  side 2    Res =  0.4497E-01
 MRCHDU: Convergence failed at 102  side 2    Res =  0.4938E-01
 MRCHDU: Convergence failed at 103  side 2    Res =  0.2940E-01
 Side 1 forced transition at x/c =  1.0000   79
 Side 2  free  transition at x/c =  0.0282   14

 102   rms: 0.4280E+05   max: -.4394E+06   C at  105  2   RLX: 0.000
       a = -4.000      CL = -0.1355
      Cm =  0.0167     CD =  0.16330   =>   CDf =  0.00207    CDp =  0.16123

 MRCHDU: Convergence failed at  81  side 2    Res =  0.4760E-02
 MRCHDU: Convergence failed at  82  side 2    Res =  0.1373E+02
 MRCHDU: Convergence failed at  83  side 2    Res =  0.9430E-03
 MRCHDU: Convergence failed at  99  side 2    Res =  0.5994E-01
 MRCHDU: Convergence failed at 100  side 2    Res =  0.7196E-01
 MRCHDU: Convergence failed at 101  side 2    Res =  0.4499E-01
 MRCHDU: Convergence failed at 102  side 2    Res =  0.4939E-01
 MRCHDU: Convergence failed at 103  side 2    Res =  0.2943E-01
 Side 1 forced transition at x/c =  1.0000   79
 Side 2  free  transition at x/c =  0.0282   14

 103   rms: 0.4808E+05   max: -.4935E+06   C at  105  2   RLX: 0.000
       a = -4.000      CL = -0.1355
      Cm =  0.0167     CD =  0.16330   =>   CDf =  0.00207    CDp =  0.16123

 MRCHDU: Convergence failed at  81  side 2    Res =  0.4758E-02
 MRCHDU: Convergence failed at  82  side 2    Res =  0.1396E+02
 MRCHDU: Convergence failed at  83  side 2    Res =  0.9431E-03
 MRCHDU: Convergence failed at  99  side 2    Res =  0.1116E+00
 Side 1 forced transition at x/c =  1.0000   79
 Side 2  free  transition at x/c =  0.0282   14

 104   rms: 0.9389E+02   max: 0.1250E+04   T at  102  2   RLX: 0.001
       a = -4.000      CL = -0.1298
      Cm =  0.0162     CD =  0.21529   =>   CDf =  0.00207    CDp =  0.21322

 MRCHDU: Convergence failed at  81  side 2    Res =  0.5665E-02
 MRCHDU: Convergence failed at  82  side 2    Res =  0.1667E+00
 MRCHDU: Convergence failed at  83  side 2    Res =  0.7499E-03
 Side 1 forced transition at x/c =  1.0000   79
 Side 2  free  transition at x/c =  0.0282   14

 105   rms: 0.1070E+01   max: -.8584E+01   T at   97  2   RLX: 0.058
       a = -4.000      CL = -0.1163
      Cm =  0.0125     CD =  0.30288   =>   CDf =  0.00205    CDp =  0.30084

 MRCHDU: Convergence failed at  82  side 2    Res =  0.6513E+00
 MRCHDU: Convergence failed at 102  side 2    Res =  0.4302E-02
 Side 1 forced transition at x/c =  1.0000   79
 Side 2  free  transition at x/c =  0.0283   14

 106   rms: 0.2763E+01   max: 0.2650E+02   C at   79  1   RLX: 0.057
       a = -4.000      CL = -0.0769
      Cm =  0.0103     CD =  0.56751   =>   CDf =  0.00198    CDp =  0.56552

 MRCHDU: Convergence failed at 104  side 2    Res =  0.1565E+01
 Side 1  free  transition at x/c =  0.9520   76
 Side 2  free  transition at x/c =  0.0281   13

 107   rms: 0.1401E+02   max: 0.2087E+03   T at  100  2   RLX: 0.007
       a = -4.000      CL = -0.0639
      Cm =  0.0074     CD =  0.39514   =>   CDf =  0.00184    CDp =  0.39330

 MRCHDU: Convergence failed at  97  side 2    Res =  0.6384E-02
 MRCHDU: Convergence failed at  98  side 2    Res =  0.1046E+00
 MRCHDU: Convergence failed at  99  side 2    Res =  0.4525E+00
 Side 1  free  transition at x/c =  0.9444   76
 Side 2  free  transition at x/c =  0.0280   13

 108   rms: 0.1680E+01   max: 0.1798E+02   C at  100  2   RLX: 0.079
       a = -4.000      CL =  0.0020
      Cm = -0.0052     CD =  0.27462   =>   CDf =  0.00182    CDp =  0.27280

 MRCHDU: Convergence failed at  98  side 2    Res =  0.2611E-01
 MRCHDU: Convergence failed at  99  side 2    Res =  0.3812E-01
 Side 1  free  transition at x/c =  0.9327   75
 Side 2  free  transition at x/c =  0.0258   13

 109   rms: 0.1171E+01   max: 0.1579E+02   T at   83  2   RLX: 0.095
       a = -4.000      CL =  0.0622
      Cm = -0.0171     CD =  0.33929   =>   CDf =  0.00178    CDp =  0.33751

 MRCHDU: Convergence failed at  97  side 2    Res =  0.9806E-02
 MRCHDU: Convergence failed at  98  side 2    Res =  0.6494E-01
 MRCHDU: Convergence failed at  99  side 2    Res =  0.4547E+00
 Side 1  free  transition at x/c =  0.9054   73
 Side 2  free  transition at x/c =  0.0273   13

 110   rms: 0.1270E+01   max: 0.1424E+02   T at   83  2   RLX: 0.036
       a = -4.000      CL =  0.0530
      Cm = -0.0163     CD =  0.24830   =>   CDf =  0.00174    CDp =  0.24656

 MRCHDU: Convergence failed at  98  side 2    Res =  0.7141E-01
 MRCHDU: Convergence failed at  99  side 2    Res =  0.4454E-01
 Side 1  free  transition at x/c =  0.9156   74
 Side 2  free  transition at x/c =  0.0274   13

 111   rms: 0.1431E+01   max: 0.1151E+02   T at   83  2   RLX: 0.130
       a = -4.000      CL =  0.1245
      Cm = -0.0270     CD =  0.36854   =>   CDf =  0.00175    CDp =  0.36679

 MRCHDU: Convergence failed at  97  side 2    Res =  0.1951E-01
 MRCHDU: Convergence failed at  98  side 2    Res =  0.9480E-01
 MRCHDU: Convergence failed at 104  side 2    Res =  0.1353E+01
 Side 1  free  transition at x/c =  0.8369   68
 Side 2  free  transition at x/c =  0.0264   13

 112   rms: 0.1304E+01   max: 0.1160E+02   C at   99  2   RLX: 0.107
       a = -4.000      CL =  0.1261
      Cm = -0.0291     CD =  0.33429   =>   CDf =  0.00190    CDp =  0.33239

 Side 1  free  transition at x/c =  0.8356   68
 Side 2  free  transition at x/c =  0.0264   13

 113   rms: 0.6863E+00   max: -.7795E+01   T at   82  2   RLX: 0.064
       a = -4.000      CL =  0.1235
      Cm = -0.0315     CD =  0.12598   =>   CDf =  0.00189    CDp =  0.12410

 Side 1  free  transition at x/c =  0.8465   69
 Side 2  free  transition at x/c =  0.0269   13

 114   rms: 0.7797E+00   max: -.1261E+02   T at   82  2   RLX: 0.040
       a = -4.000      CL =  0.1261
      Cm = -0.0330     CD =  0.16984   =>   CDf =  0.00190    CDp =  0.16795

 MRCHDU: Convergence failed at  98  side 2    Res =  0.2610E-01
 Side 1  free  transition at x/c =  0.8467   69
 Side 2  free  transition at x/c =  0.0271   13

 115   rms: 0.9492E+00   max: 0.1011E+02   T at   83  2   RLX: 0.110
       a = -4.000      CL =  0.1428
      Cm = -0.0375     CD =  0.23492   =>   CDf =  0.00189    CDp =  0.23302

 MRCHDU: Convergence failed at 104  side 2    Res =  0.3051E+01
 Side 1  free  transition at x/c =  0.8307   68
 Side 2  free  transition at x/c =  0.0267   13

 116   rms: 0.9761E+00   max: -.9581E+01   T at   97  2   RLX: 0.052
       a = -4.000      CL =  0.1339
      Cm = -0.0384     CD =  0.05133   =>   CDf =  0.00189    CDp =  0.04944

 Side 1  free  transition at x/c =  0.8418   68
 Side 2  free  transition at x/c =  0.0276   13

 117   rms: 0.1064E+01   max: 0.1094E+02   T at   83  2   RLX: 0.050
       a = -4.000      CL =  0.1194
      Cm = -0.0375     CD =  0.05480   =>   CDf =  0.00195    CDp =  0.05285

 Side 1  free  transition at x/c =  0.8631   70
 Side 2  free  transition at x/c =  0.0263   13

 118   rms: 0.1286E+01   max: 0.2027E+02   T at   13  2   RLX: 0.074
       a = -4.000      CL =  0.1007
      Cm = -0.0398     CD =  0.05239   =>   CDf =  0.00187    CDp =  0.05052

 Side 1  free  transition at x/c =  0.8856   72
 Side 2  free  transition at x/c =  0.0221   13
 idif Ue xi dudx           1  0.29839742      2.94864178E-03   101.19827    
 Uenew xinew           2  9.12503824E-02  9.01699066E-04

 119   rms: 0.1133E+01   max: 0.1296E+02   T at   83  2   RLX: 0.116
       a = -4.000      CL =  0.0246
      Cm = -0.0310     CD =  0.05936   =>   CDf =  0.00188    CDp =  0.05748

 MRCHDU: Convergence failed at  14  side 2    Res =  0.3568E+01
 MRCHDU: Convergence failed at  15  side 2    Res =  0.7037E+02
 MRCHDU: Convergence failed at  16  side 2    Res =  0.2074E+02
 MRCHDU: Convergence failed at  17  side 2    Res =  0.2165E+02
 MRCHDU: Convergence failed at  18  side 2    Res =  0.2109E+02
 MRCHDU: Convergence failed at  19  side 2    Res =  0.3211E+02
 MRCHDU: Convergence failed at  20  side 2    Res =  0.4471E+02
 MRCHDU: Convergence failed at  21  side 2    Res =  0.6046E+02
 MRCHDU: Convergence failed at  22  side 2    Res =  0.8535E+02
 MRCHDU: Convergence failed at  23  side 2    Res =  0.1696E+03
 MRCHDU: Convergence failed at  24  side 2    Res =  0.3458E+03
 MRCHDU: Convergence failed at  25  side 2    Res =  0.5085E+03
 MRCHDU: Convergence failed at  26  side 2    Res =  0.3958E+03
 MRCHDU: Convergence failed at  27  side 2    Res =  0.2563E+03
 MRCHDU: Convergence failed at  28  side 2    Res =  0.1677E+03
 MRCHDU: Convergence failed at  29  side 2    Res =  0.1144E+03
 MRCHDU: Convergence failed at  30  side 2    Res =  0.7066E+02
 MRCHDU: Convergence failed at  31  side 2    Res =  0.8784E+02
 MRCHDU: Convergence failed at  32  side 2    Res =  0.6974E+02
 MRCHDU: Convergence failed at  33  side 2    Res =  0.5772E+02
 MRCHDU: Convergence failed at  34  side 2    Res =  0.4620E+02
 MRCHDU: Convergence failed at  35  side 2    Res =  0.3385E+02
 MRCHDU: Convergence failed at  36  side 2    Res =  0.3483E+02
 MRCHDU: Convergence failed at  37  side 2    Res =  0.4105E+02
 MRCHDU: Convergence failed at  38  side 2    Res =  0.4856E+02
 MRCHDU: Convergence failed at  39  side 2    Res =  0.6045E+02
 MRCHDU: Convergence failed at  40  side 2    Res =  0.1033E+03
 MRCHDU: Convergence failed at  41  side 2    Res =  0.3480E+03
 MRCHDU: Convergence failed at  42  side 2    Res =  0.3140E+03
 MRCHDU: Convergence failed at  43  side 2    Res =  0.1995E+03
 MRCHDU: Convergence failed at  44  side 2    Res =  0.1622E+03
 MRCHDU: Convergence failed at  45  side 2    Res =  0.8649E+02
 MRCHDU: Convergence failed at  46  side 2    Res =  0.5744E+02
 MRCHDU: Convergence failed at  47  side 2    Res =  0.4147E+02
 MRCHDU: Convergence failed at  48  side 2    Res =  0.4218E+02
 MRCHDU: Convergence failed at  49  side 2    Res =  0.6143E+02
 MRCHDU: Convergence failed at  50  side 2    Res =  0.7012E+02
 MRCHDU: Convergence failed at  51  side 2    Res =  0.1246E+03
 MRCHDU: Convergence failed at  52  side 2    Res =  0.4627E+03
 MRCHDU: Convergence failed at  53  side 2    Res =  0.1969E+03
 MRCHDU: Convergence failed at  54  side 2    Res =  0.6755E+02
 MRCHDU: Convergence failed at  55  side 2    Res =  0.5502E+02
 MRCHDU: Convergence failed at  56  side 2    Res =  0.3818E+02
 MRCHDU: Convergence failed at  57  side 2    Res =  0.7287E+02
 MRCHDU: Convergence failed at  58  side 2    Res =  0.7566E+02
 MRCHDU: Convergence failed at  59  side 2    Res =  0.1419E+03
 MRCHDU: Convergence failed at  60  side 2    Res =  0.4422E+03
 MRCHDU: Convergence failed at  61  side 2    Res =  0.5637E+02
 MRCHDU: Convergence failed at  62  side 2    Res =  0.4278E+02
 MRCHDU: Convergence failed at  63  side 2    Res =  0.3774E+02
 MRCHDU: Convergence failed at  64  side 2    Res =  0.6804E+02
 MRCHDU: Convergence failed at  65  side 2    Res =  0.2031E+03
 MRCHDU: Convergence failed at  66  side 2    Res =  0.1653E+03
 MRCHDU: Convergence failed at  67  side 2    Res =  0.3135E+02
 MRCHDU: Convergence failed at  68  side 2    Res =  0.3945E+02
 MRCHDU: Convergence failed at  69  side 2    Res =  0.2299E+03
 MRCHDU: Convergence failed at  70  side 2    Res =  0.8742E+02
 MRCHDU: Convergence failed at  71  side 2    Res =  0.3659E+02
 MRCHDU: Convergence failed at  72  side 2    Res =  0.8132E+02
 MRCHDU: Convergence failed at  73  side 2    Res =  0.9074E+02
 MRCHDU: Convergence failed at  74  side 2    Res =  0.3611E+02
 MRCHDU: Convergence failed at  75  side 2    Res =  0.3295E+03
 MRCHDU: Convergence failed at  76  side 2    Res =  0.1877E+02
 Side 1  free  transition at x/c =  0.9010   72
 Side 2  free  transition at x/c =  0.0214   14

 120   rms: 0.2865E+01   max: 0.2419E+02   T at  105  2   RLX: 0.062
       a = -4.000      CL = -0.9130
      Cm =  0.2457     CD =  0.12616   =>   CDf =  0.00143    CDp =  0.12472

 MRCHDU: Convergence failed at 103  side 2    Res =  0.8258E+02
 MRCHDU: Convergence failed at 104  side 2    Res =  0.2830E+01
 MRCHDU: Convergence failed at 105  side 2    Res =  0.3557E+01
 Side 1  free  transition at x/c =  0.8915   71
 Side 2  free  transition at x/c =  0.0203   13

 121   rms: 0.1128E+01   max: 0.1416E+02   T at   84  2   RLX: 0.049
       a = -4.000      CL = -0.4272
      Cm =  0.1056     CD =  0.03902   =>   CDf =  0.00180    CDp =  0.03721

 Side 1  free  transition at x/c =  0.9021   72
 Side 2  free  transition at x/c =  0.0204   13

 122   rms: 0.2183E+01   max: -.2202E+02   C at  100  2   RLX: 0.023
       a = -4.000      CL = -0.4153
      Cm =  0.1012     CD =  0.04831   =>   CDf =  0.00180    CDp =  0.04651

 Side 1  free  transition at x/c =  0.9049   72
 Side 2  free  transition at x/c =  0.0204   13

 123   rms: 0.4002E+01   max: -.4242E+02   C at  100  2   RLX: 0.012
       a = -4.000      CL = -0.4090
      Cm =  0.0992     CD =  0.04599   =>   CDf =  0.00180    CDp =  0.04419

 Side 1  free  transition at x/c =  0.9063   72
 Side 2  free  transition at x/c =  0.0204   13

 124   rms: 0.3086E+01   max: -.3198E+02   C at  100  2   RLX: 0.016
       a = -4.000      CL = -0.4010
      Cm =  0.0966     CD =  0.04245   =>   CDf =  0.00180    CDp =  0.04065

 Side 1  free  transition at x/c =  0.9080   72
 Side 2  free  transition at x/c =  0.0204   13

 125   rms: 0.1050E+02   max: -.1114E+03   C at  100  2   RLX: 0.004
       a = -4.000      CL = -0.3985
      Cm =  0.0958     CD =  0.04248   =>   CDf =  0.00180    CDp =  0.04069

 Side 1  free  transition at x/c =  0.9085   72
 Side 2  free  transition at x/c =  0.0204   13

 126   rms: 0.8240E+01   max: -.8720E+02   C at  100  2   RLX: 0.006
       a = -4.000      CL = -0.3958
      Cm =  0.0948     CD =  0.04245   =>   CDf =  0.00180    CDp =  0.04065

 Side 1  free  transition at x/c =  0.9093   72
 Side 2  free  transition at x/c =  0.0204   13

 127   rms: 0.1721E+02   max: -.1826E+03   C at  100  2   RLX: 0.003
       a = -4.000      CL = -0.3945
      Cm =  0.0944     CD =  0.04263   =>   CDf =  0.00180    CDp =  0.04083

 Side 1  free  transition at x/c =  0.9097   72
 Side 2  free  transition at x/c =  0.0204   13

 128   rms: 0.3935E+02   max: -.4178E+03   C at  100  2   RLX: 0.001
       a = -4.000      CL = -0.3939
      Cm =  0.0941     CD =  0.04261   =>   CDf =  0.00180    CDp =  0.04082

 Side 1  free  transition at x/c =  0.9098   72
 Side 2  free  transition at x/c =  0.0204   13

 129   rms: 0.1421E+02   max: -.1512E+03   C at  100  2   RLX: 0.003
       a = -4.000      CL = -0.3924
      Cm =  0.0936     CD =  0.04207   =>   CDf =  0.00180    CDp =  0.04027

 Side 1  free  transition at x/c =  0.9103   72
 Side 2  free  transition at x/c =  0.0204   13

 130   rms: 0.2285E+02   max: -.2431E+03   C at  100  2   RLX: 0.002
       a = -4.000      CL = -0.3914
      Cm =  0.0933     CD =  0.04186   =>   CDf =  0.00180    CDp =  0.04006

 Side 1  free  transition at x/c =  0.9106   72
 Side 2  free  transition at x/c =  0.0204   13

 131   rms: 0.1647E+02   max: 0.1748E+03   C at  105  2   RLX: 0.009
       a = -4.000      CL = -0.3877
      Cm =  0.0919     CD =  0.04117   =>   CDf =  0.00180    CDp =  0.03937

 Side 1  free  transition at x/c =  0.9118   72
 Side 2  free  transition at x/c =  0.0204   13

 132   rms: 0.2535E+02   max: -.2693E+03   C at  100  2   RLX: 0.002
       a = -4.000      CL = -0.3868
      Cm =  0.0915     CD =  0.04152   =>   CDf =  0.00180    CDp =  0.03972

 Side 1  free  transition at x/c =  0.9121   72
 Side 2  free  transition at x/c =  0.0205   13

 133   rms: 0.5245E+02   max: -.5577E+03   C at  101  2   RLX: 0.001
       a = -4.000      CL = -0.3864
      Cm =  0.0914     CD =  0.04148   =>   CDf =  0.00180    CDp =  0.03968

 Side 1  free  transition at x/c =  0.9123   72
 Side 2  free  transition at x/c =  0.0205   13

 134   rms: 0.4759E+02   max: -.5061E+03   C at  101  2   RLX: 0.001
       a = -4.000      CL = -0.3859
      Cm =  0.0912     CD =  0.04143   =>   CDf =  0.00180    CDp =  0.03963

 Side 1  free  transition at x/c =  0.9125   72
 Side 2  free  transition at x/c =  0.0205   13

 135   rms: 0.6623E+02   max: -.7048E+03   C at  101  2   RLX: 0.001
       a = -4.000      CL = -0.3856
      Cm =  0.0911     CD =  0.04168   =>   CDf =  0.00180    CDp =  0.03988

 Side 1  free  transition at x/c =  0.9126   72
 Side 2  free  transition at x/c =  0.0205   13

 136   rms: 0.9511E+02   max: -.1012E+04   C at  102  2   RLX: 0.000
       a = -4.000      CL = -0.3854
      Cm =  0.0910     CD =  0.04167   =>   CDf =  0.00180    CDp =  0.03987

 Side 1  free  transition at x/c =  0.9127   72
 Side 2  free  transition at x/c =  0.0205   13

 137   rms: 0.7650E+02   max: -.8143E+03   C at  101  2   RLX: 0.001
       a = -4.000      CL = -0.3852
      Cm =  0.0909     CD =  0.04162   =>   CDf =  0.00180    CDp =  0.03982

 Side 1  free  transition at x/c =  0.9128   72
 Side 2  free  transition at x/c =  0.0205   13

 138   rms: 0.8207E+02   max: -.8736E+03   C at  102  2   RLX: 0.001
       a = -4.000      CL = -0.3850
      Cm =  0.0908     CD =  0.04158   =>   CDf =  0.00180    CDp =  0.03978

 Side 1  free  transition at x/c =  0.9129   72
 Side 2  free  transition at x/c =  0.0205   13

 139   rms: 0.7039E+01   max: 0.7367E+02   C at  105  2   RLX: 0.020
       a = -4.000      CL = -0.3772
      Cm =  0.0874     CD =  0.03972   =>   CDf =  0.00180    CDp =  0.03792

 Side 1  free  transition at x/c =  0.9143   73
 Side 2  free  transition at x/c =  0.0205   13

 140   rms: 0.1574E+02   max: -.7487E+02   T at   15  2   RLX: 0.007
       a = -4.000      CL = -0.3673
      Cm =  0.0902     CD =  0.04401   =>   CDf =  0.00184    CDp =  0.04218

 Side 1  free  transition at x/c =  0.9125   72
 Side 2  free  transition at x/c =  0.0204   13

 141   rms: 0.3925E+02   max: -.4184E+03   C at  100  2   RLX: 0.001
       a = -4.000      CL = -0.3941
      Cm =  0.0977     CD =  0.04628   =>   CDf =  0.00183    CDp =  0.04445

 Side 1  free  transition at x/c =  0.9127   72
 Side 2  free  transition at x/c =  0.0204   13

 142   rms: 0.3444E+02   max: -.3676E+03   C at  100  2   RLX: 0.001
       a = -4.000      CL = -0.3934
      Cm =  0.0975     CD =  0.04641   =>   CDf =  0.00184    CDp =  0.04458

 Side 1  free  transition at x/c =  0.9130   72
 Side 2  free  transition at x/c =  0.0204   13

 143   rms: 0.6694E+01   max: -.7132E+02   C at  100  2   RLX: 0.007
       a = -4.000      CL = -0.3901
      Cm =  0.0965     CD =  0.04551   =>   CDf =  0.00184    CDp =  0.04367

 Side 1  free  transition at x/c =  0.9147   73
 Side 2  free  transition at x/c =  0.0204   13

 144   rms: 0.1121E+03   max: -.1197E+04   C at  102  2   RLX: 0.000
       a = -4.000      CL = -0.3897
      Cm =  0.0963     CD =  0.04567   =>   CDf =  0.00184    CDp =  0.04383

 Side 1  free  transition at x/c =  0.9147   73
 Side 2  free  transition at x/c =  0.0204   13

 145   rms: 0.7955E+02   max: -.8502E+03   C at  102  2   RLX: 0.001
       a = -4.000      CL = -0.3894
      Cm =  0.0962     CD =  0.04564   =>   CDf =  0.00184    CDp =  0.04380

 Side 1  free  transition at x/c =  0.9148   73
 Side 2  free  transition at x/c =  0.0204   13

 146   rms: 0.8587E+02   max: -.9183E+03   C at  102  2   RLX: 0.001
       a = -4.000      CL = -0.3892
      Cm =  0.0961     CD =  0.04559   =>   CDf =  0.00184    CDp =  0.04376

 Side 1  free  transition at x/c =  0.9149   73
 Side 2  free  transition at x/c =  0.0204   13

 147   rms: 0.4842E+02   max: -.5197E+03   C at  100  2   RLX: 0.001
       a = -4.000      CL = -0.3887
      Cm =  0.0960     CD =  0.04555   =>   CDf =  0.00184    CDp =  0.04371

 Side 1  free  transition at x/c =  0.9151   73
 Side 2  free  transition at x/c =  0.0204   13

 148   rms: 0.1322E+03   max: -.1413E+04   C at  102  2   RLX: 0.000
       a = -4.000      CL = -0.3885
      Cm =  0.0959     CD =  0.04544   =>   CDf =  0.00184    CDp =  0.04360

 Side 1  free  transition at x/c =  0.9151   73
 Side 2  free  transition at x/c =  0.0204   13

 149   rms: 0.1746E+03   max: -.1867E+04   C at  102  2   RLX: 0.000
       a = -4.000      CL = -0.3883
      Cm =  0.0959     CD =  0.04546   =>   CDf =  0.00184    CDp =  0.04362

 Side 1  free  transition at x/c =  0.9152   73
 Side 2  free  transition at x/c =  0.0204   13

 150   rms: 0.9783E+02   max: -.1049E+04   C at  101  2   RLX: 0.000
       a = -4.000      CL = -0.3881
      Cm =  0.0958     CD =  0.04539   =>   CDf =  0.00184    CDp =  0.04355

 Side 1  free  transition at x/c =  0.9153   73
 Side 2  free  transition at x/c =  0.0204   13

 151   rms: 0.2928E+03   max: -.3132E+04   C at  105  2   RLX: 0.000
       a = -4.000      CL = -0.3880
      Cm =  0.0958     CD =  0.04535   =>   CDf =  0.00184    CDp =  0.04351

 Side 1  free  transition at x/c =  0.9153   73
 Side 2  free  transition at x/c =  0.0204   13

 152   rms: 0.8422E+02   max: -.9004E+03   C at  100  2   RLX: 0.001
       a = -4.000      CL = -0.3878
      Cm =  0.0957     CD =  0.04528   =>   CDf =  0.00184    CDp =  0.04344

 Side 1  free  transition at x/c =  0.9154   73
 Side 2  free  transition at x/c =  0.0204   13

 153   rms: 0.2044E+03   max: -.2186E+04   C at  102  2   RLX: 0.000
       a = -4.000      CL = -0.3876
      Cm =  0.0957     CD =  0.04536   =>   CDf =  0.00184    CDp =  0.04352

 Side 1  free  transition at x/c =  0.9154   73
 Side 2  free  transition at x/c =  0.0204   13

 154   rms: 0.3452E+03   max: -.3693E+04   C at  105  2   RLX: 0.000
       a = -4.000      CL = -0.3876
      Cm =  0.0957     CD =  0.04536   =>   CDf =  0.00184    CDp =  0.04352

 MRCHDU: Convergence failed at 100  side 2    Res =  0.2079E-01
 Side 1  free  transition at x/c =  0.9155   73
 Side 2  free  transition at x/c =  0.0204   13

 155   rms: 0.2631E+03   max: -.2817E+04   C at  102  2   RLX: 0.000
       a = -4.000      CL = -0.3875
      Cm =  0.0956     CD =  0.04536   =>   CDf =  0.00184    CDp =  0.04352
 VISCAL:  Convergence failed
 Calculating wake trajectory ...
 Calculating source influence matrix ...

 Solving BL system ...

 MRCHDU: Convergence failed at 100  side 2    Res =  0.7264E-01
 Side 1  free  transition at x/c =  0.9155   73
 Side 2  free  transition at x/c =  0.0204   13

   1   rms: 0.7935E+02   max: -.8504E+03   C at  100  2   RLX: 0.001
       a = -3.500      CL = -0.3875
      Cm =  0.0955     CD =  0.04532   =>   CDf =  0.00184    CDp =  0.04349

 MRCHDU: Convergence failed at 100  side 2    Res =  0.1241E+00
 Side 1  free  transition at x/c =  0.9156   73
 Side 2  free  transition at x/c =  0.0204   13

   2   rms: 0.2582E+03   max: -.2586E+04   C at  101  2   RLX: 0.000
       a = -3.500      CL = -0.3874
      Cm =  0.0955     CD =  0.04672   =>   CDf =  0.00184    CDp =  0.04488

 Side 1  free  transition at x/c =  0.9156   73
 Side 2  free  transition at x/c =  0.0204   13

   3   rms: 0.1580E+03   max: -.1571E+04   C at  101  2   RLX: 0.000
       a = -3.500      CL = -0.3872
      Cm =  0.0955     CD =  0.04674   =>   CDf =  0.00184    CDp =  0.04490

 Side 1  free  transition at x/c =  0.9157   73
 Side 2  free  transition at x/c =  0.0204   13

   4   rms: 0.2563E+03   max: -.2538E+04   C at  101  2   RLX: 0.000
       a = -3.500      CL = -0.3871
      Cm =  0.0954     CD =  0.04676   =>   CDf =  0.00184    CDp =  0.04492

 Side 1  free  transition at x/c =  0.9157   73
 Side 2  free  transition at x/c =  0.0204   13

   5   rms: 0.1141E+03   max: -.1125E+04   C at  101  2   RLX: 0.000
[...]
       a = 10.750      CL = -0.0954
      Cm = -0.0391     CD =*********   =>   CDf =  0.00303    CDp =*********

 Side 1  free  transition at x/c =  0.7989   65
 Side 2  free  transition at x/c =  0.0211   13

  86   rms: 0.2363E+05   max: 0.5062E+06   T at   98  2   RLX: 0.000
       a = 10.750      CL = -0.0947
      Cm = -0.0390     CD =*********   =>   CDf =  0.00303    CDp =*********

 Side 1  free  transition at x/c =  0.7979   65
 Side 2  free  transition at x/c =  0.0211   13

  87   rms: 0.8713E+04   max: 0.1320E+06   T at  100  2   RLX: 0.000
       a = 10.750      CL = -0.0958
      Cm = -0.0392     CD =*********   =>   CDf =  0.00302    CDp =*********

 Side 1  free  transition at x/c =  0.7996   65
 Side 2  free  transition at x/c =  0.0211   13

  88   rms: 0.3471E+05   max: 0.5416E+06   T at  100  2   RLX: 0.000
       a = 10.750      CL = -0.0960
      Cm = -0.0392     CD =*********   =>   CDf =  0.00303    CDp =*********

 Side 1  free  transition at x/c =  0.7999   66
 Side 2  free  transition at x/c =  0.0211   13

  89   rms: 0.2974E+05   max: 0.4663E+06   T at  100  2   RLX: 0.000
       a = 10.750      CL = -0.0962
      Cm = -0.0392     CD =*********   =>   CDf =  0.00303    CDp =*********

 Side 1  free  transition at x/c =  0.8000   66
 Side 2  free  transition at x/c =  0.0211   13

  90   rms: 0.1900E+05   max: -.4520E+06   T at   98  2   RLX: 0.000
       a = 10.750      CL = -0.0951
      Cm = -0.0392     CD =*********   =>   CDf =  0.00303    CDp =*********

 Side 1  free  transition at x/c =  0.7993   65
 Side 2  free  transition at x/c =  0.0211   13

  91   rms: 0.2762E+05   max: -.4426E+06   T at   98  2   RLX: 0.000
       a = 10.750      CL = -0.0955
      Cm = -0.0393     CD =*********   =>   CDf =  0.00303    CDp =*********

 Side 1  free  transition at x/c =  0.8000   66
 Side 2  free  transition at x/c =  0.0211   13

  92   rms: 0.3111E+06   max: -.4999E+07   T at  100  2   RLX: 0.000
       a = 10.750      CL = -0.0954
      Cm = -0.0393     CD =*********   =>   CDf =  0.00303    CDp =*********

 Side 1  free  transition at x/c =  0.8000   66
 Side 2  free  transition at x/c =  0.0211   13

  93   rms: 0.1945E+05   max: -.5144E+06   T at   98  2   RLX: 0.000
       a = 10.750      CL = -0.0962
      Cm = -0.0393     CD =*********   =>   CDf =  0.00303    CDp =*********

 Side 1  free  transition at x/c =  0.8006   66
 Side 2  free  transition at x/c =  0.0211   13

  94   rms: 0.1696E+06   max: 0.2563E+07   T at  100  2   RLX: 0.000
       a = 10.750      CL = -0.0963
      Cm = -0.0393     CD =*********   =>   CDf =  0.00303    CDp =*********

 Side 1  free  transition at x/c =  0.8006   66
 Side 2  free  transition at x/c =  0.0211   13

  95   rms: 0.4967E+06   max: 0.7814E+07   T at   98  2   RLX: 0.000
       a = 10.750      CL = -0.0963
      Cm = -0.0393     CD =*********   =>   CDf =  0.00303    CDp =*********

 Side 1  free  transition at x/c =  0.8006   66
 Side 2  free  transition at x/c =  0.0211   13

  96   rms: 0.1113E+07   max: 0.1601E+08   T at   95  2   RLX: 0.000
       a = 10.750      CL = -0.0963
      Cm = -0.0393     CD =*********   =>   CDf =  0.00303    CDp =*********

 Side 1  free  transition at x/c =  0.8006   66
 Side 2  free  transition at x/c =  0.0211   13

  97   rms: 0.1294E+07   max: 0.2048E+08   T at  100  2   RLX: 0.000
       a = 10.750      CL = -0.0963
      Cm = -0.0393     CD =*********   =>   CDf =  0.00303    CDp =*********

 Side 1  free  transition at x/c =  0.8006   66
 Side 2  free  transition at x/c =  0.0211   13

  98   rms: 0.4107E+06   max: -.6559E+07   T at  100  2   RLX: 0.000
       a = 10.750      CL = -0.0963
      Cm = -0.0393     CD =*********   =>   CDf =  0.00303    CDp =*********

 Side 1  free  transition at x/c =  0.8006   66
 Side 2  free  transition at x/c =  0.0211   13

  99   rms: 0.5399E+06   max: 0.8409E+07   T at  100  2   RLX: 0.000
       a = 10.750      CL = -0.0963
      Cm = -0.0393     CD =*********   =>   CDf =  0.00303    CDp =*********

 Side 1  free  transition at x/c =  0.8006   66
 Side 2  free  transition at x/c =  0.0211   13

 100   rms: 0.5734E+06   max: 0.9078E+07   T at  100  2   RLX: 0.000
       a = 10.750      CL = -0.0963
      Cm = -0.0393     CD =*********   =>   CDf =  0.00303    CDp =*********

 Side 1  free  transition at x/c =  0.8006   66
 Side 2  free  transition at x/c =  0.0211   13

 101   rms: 0.1309E+07   max: -.2011E+08   T at  100  2   RLX: 0.000
       a = 10.750      CL = -0.0963
      Cm = -0.0393     CD =*********   =>   CDf =  0.00303    CDp =*********

 Side 1  free  transition at x/c =  0.8006   66
 Side 2  free  transition at x/c =  0.0211   13

 102   rms: 0.2534E+06   max: 0.3999E+07   T at  100  2   RLX: 0.000
       a = 10.750      CL = -0.0964
      Cm = -0.0393     CD =*********   =>   CDf =  0.00303    CDp =*********

 Side 1  free  transition at x/c =  0.8006   66
 Side 2  free  transition at x/c =  0.0211   13

 103   rms: 0.7394E+06   max: -.1032E+08   T at  100  2   RLX: 0.000
       a = 10.750      CL = -0.0963
      Cm = -0.0393     CD =*********   =>   CDf =  0.00303    CDp =*********

 Side 1  free  transition at x/c =  0.8006   66
 Side 2  free  transition at x/c =  0.0211   13

 104   rms: 0.2864E+07   max: -.3825E+08   T at  100  2   RLX: 0.000
       a = 10.750      CL = -0.0963
      Cm = -0.0393     CD =*********   =>   CDf =  0.00303    CDp =*********

 Side 1  free  transition at x/c =  0.8006   66
 Side 2  free  transition at x/c =  0.0211   13

 105   rms: 0.7775E+06   max: -.1058E+08   T at  100  2   RLX: 0.000
       a = 10.750      CL = -0.0963
      Cm = -0.0393     CD =*********   =>   CDf =  0.00303    CDp =*********

 Side 1  free  transition at x/c =  0.8006   66
 Side 2  free  transition at x/c =  0.0211   13

 106   rms: 0.4712E+07   max: 0.6438E+08   T at  100  2   RLX: 0.000
       a = 10.750      CL = -0.0963
      Cm = -0.0393     CD =*********   =>   CDf =  0.00303    CDp =*********

 Side 1  free  transition at x/c =  0.8006   66
 Side 2  free  transition at x/c =  0.0211   13

 107   rms: 0.1393E+08   max: -.2216E+09   T at  100  2   RLX: 0.000
       a = 10.750      CL = -0.0963
      Cm = -0.0393     CD =*********   =>   CDf =  0.00303    CDp =*********

 Side 1  free  transition at x/c =  0.8006   66
 Side 2  free  transition at x/c =  0.0211   13

 108   rms: 0.6996E+06   max: -.1093E+08   T at  100  2   RLX: 0.000
       a = 10.750      CL = -0.0963
      Cm = -0.0393     CD =*********   =>   CDf =  0.00303    CDp =*********

 Side 1  free  transition at x/c =  0.8006   66
 Side 2  free  transition at x/c =  0.0211   13

 109   rms: 0.8098E+06   max: -.1260E+08   T at  100  2   RLX: 0.000
       a = 10.750      CL = -0.0963
      Cm = -0.0393     CD =*********   =>   CDf =  0.00303    CDp =*********

 Side 1  free  transition at x/c =  0.8006   66
 Side 2  free  transition at x/c =  0.0211   13

 110   rms: 0.5445E+06   max: 0.8084E+07   T at  100  2   RLX: 0.000
       a = 10.750      CL = -0.0963
      Cm = -0.0393     CD =*********   =>   CDf =  0.00303    CDp =*********

 Side 1  free  transition at x/c =  0.8006   66
 Side 2  free  transition at x/c =  0.0211   13

 111   rms: 0.7093E+06   max: -.9749E+07   T at  100  2   RLX: 0.000
       a = 10.750      CL = -0.0963
      Cm = -0.0393     CD =*********   =>   CDf =  0.00303    CDp =*********

 Side 1  free  transition at x/c =  0.8006   66
 Side 2  free  transition at x/c =  0.0211   13

 112   rms: 0.7705E+06   max: -.1185E+08   T at  100  2   RLX: 0.000
       a = 10.750      CL = -0.0963
      Cm = -0.0393     CD =*********   =>   CDf =  0.00303    CDp =*********

 Side 1  free  transition at x/c =  0.8006   66
 Side 2  free  transition at x/c =  0.0211   13

 113   rms: 0.8879E+06   max: 0.1350E+08   T at   95  2   RLX: 0.000
       a = 10.750      CL = -0.0963
      Cm = -0.0393     CD =*********   =>   CDf =  0.00303    CDp =*********

 Side 1  free  transition at x/c =  0.8006   66
 Side 2  free  transition at x/c =  0.0211   13

 114   rms: 0.6037E+06   max: 0.9033E+07   T at  100  2   RLX: 0.000
       a = 10.750      CL = -0.0963
      Cm = -0.0393     CD =*********   =>   CDf =  0.00303    CDp =*********

 Side 1  free  transition at x/c =  0.8006   66
 Side 2  free  transition at x/c =  0.0211   13

 115   rms: 0.1780E+06   max: 0.4296E+07   T at   98  2   RLX: 0.000
       a = 10.750      CL = -0.0964
      Cm = -0.0393     CD =*********   =>   CDf =  0.00303    CDp =*********

 Side 1  free  transition at x/c =  0.8006   66
 Side 2  free  transition at x/c =  0.0211   13

 116   rms: 0.3002E+06   max: -.4057E+07   T at   98  2   RLX: 0.000
       a = 10.750      CL = -0.0964
      Cm = -0.0393     CD =*********   =>   CDf =  0.00303    CDp =*********

 Side 1  free  transition at x/c =  0.8007   66
 Side 2  free  transition at x/c =  0.0211   13

 117   rms: 0.7831E+06   max: 0.1205E+08   T at  100  2   RLX: 0.000
       a = 10.750      CL = -0.0964
      Cm = -0.0393     CD =*********   =>   CDf =  0.00303    CDp =*********

 Side 1  free  transition at x/c =  0.8007   66
 Side 2  free  transition at x/c =  0.0211   13

 118   rms: 0.2507E+06   max: -.3558E+07   T at  100  2   RLX: 0.000
       a = 10.750      CL = -0.0964
      Cm = -0.0393     CD =*********   =>   CDf =  0.00303    CDp =*********

 Side 1  free  transition at x/c =  0.8006   66
 Side 2  free  transition at x/c =  0.0211   13

 119   rms: 0.4079E+06   max: 0.6038E+07   T at  100  2   RLX: 0.000
       a = 10.750      CL = -0.0964
      Cm = -0.0393     CD =*********   =>   CDf =  0.00303    CDp =*********

 Side 1  free  transition at x/c =  0.8007   66
 Side 2  free  transition at x/c =  0.0211   13

 120   rms: 0.7222E+06   max: -.9714E+07   T at  100  2   RLX: 0.000
       a = 10.750      CL = -0.0964
      Cm = -0.0393     CD =*********   =>   CDf =  0.00303    CDp =*********

 Side 1  free  transition at x/c =  0.8006   66
 Side 2  free  transition at x/c =  0.0211   13

 121   rms: 0.5357E+06   max: 0.7570E+07   T at  100  2   RLX: 0.000
       a = 10.750      CL = -0.0964
      Cm = -0.0393     CD =*********   =>   CDf =  0.00303    CDp =*********

 Side 1  free  transition at x/c =  0.8007   66
 Side 2  free  transition at x/c =  0.0211   13

 122   rms: 0.5114E+06   max: -.6717E+07   T at  100  2   RLX: 0.000
       a = 10.750      CL = -0.0964
      Cm = -0.0393     CD =*********   =>   CDf =  0.00303    CDp =*********

 Side 1  free  transition at x/c =  0.8006   66
 Side 2  free  transition at x/c =  0.0211   13

 123   rms: 0.8504E+06   max: -.1173E+08   T at  100  2   RLX: 0.000
       a = 10.750      CL = -0.0964
      Cm = -0.0393     CD =*********   =>   CDf =  0.00303    CDp =*********

 Side 1  free  transition at x/c =  0.8006   66
 Side 2  free  transition at x/c =  0.0211   13

 124   rms: 0.2803E+06   max: -.4032E+07   T at  100  2   RLX: 0.000
       a = 10.750      CL = -0.0964
      Cm = -0.0393     CD =*********   =>   CDf =  0.00303    CDp =*********

 Side 1  free  transition at x/c =  0.8006   66
 Side 2  free  transition at x/c =  0.0211   13

 125   rms: 0.4777E+07   max: 0.7508E+08   T at  100  2   RLX: 0.000
       a = 10.750      CL = -0.0964
      Cm = -0.0393     CD =*********   =>   CDf =  0.00303    CDp =*********

 Side 1  free  transition at x/c =  0.8006   66
 Side 2  free  transition at x/c =  0.0211   13

 126   rms: 0.1977E+06   max: 0.3471E+07   T at   98  2   RLX: 0.000
       a = 10.750      CL = -0.0964
      Cm = -0.0393     CD =*********   =>   CDf =  0.00303    CDp =*********

 Side 1  free  transition at x/c =  0.8006   66
 Side 2  free  transition at x/c =  0.0211   13

 127   rms: 0.7941E+06   max: 0.1107E+08   T at  100  2   RLX: 0.000
       a = 10.750      CL = -0.0964
      Cm = -0.0393     CD =*********   =>   CDf =  0.00303    CDp =*********

 Side 1  free  transition at x/c =  0.8007   66
 Side 2  free  transition at x/c =  0.0211   13

 128   rms: 0.5881E+06   max: -.9219E+07   T at  100  2   RLX: 0.000
       a = 10.750      CL = -0.0964
      Cm = -0.0393     CD =*********   =>   CDf =  0.00303    CDp =*********

 Side 1  free  transition at x/c =  0.8006   66
 Side 2  free  transition at x/c =  0.0211   13

 129   rms: 0.1801E+06   max: 0.4006E+07   T at   98  2   RLX: 0.000
       a = 10.750      CL = -0.0963
      Cm = -0.0393     CD =*********   =>   CDf =  0.00303    CDp =*********

 Side 1  free  transition at x/c =  0.8006   66
 Side 2  free  transition at x/c =  0.0211   13

 130   rms: 0.8621E+06   max: 0.1243E+08   T at  100  2   RLX: 0.000
       a = 10.750      CL = -0.0963
      Cm = -0.0393     CD =*********   =>   CDf =  0.00303    CDp =*********

 Side 1  free  transition at x/c =  0.8006   66
 Side 2  free  transition at x/c =  0.0211   13

 131   rms: 0.5663E+06   max: 0.8780E+07   T at  100  2   RLX: 0.000
       a = 10.750      CL = -0.0963
      Cm = -0.0393     CD =*********   =>   CDf =  0.00303    CDp =*********

 Side 1  free  transition at x/c =  0.8006   66
 Side 2  free  transition at x/c =  0.0211   13

 132   rms: 0.1708E+06   max: -.4513E+07   T at   98  2   RLX: 0.000
       a = 10.750      CL = -0.0965
      Cm = -0.0393     CD =*********   =>   CDf =  0.00303    CDp =*********

 Side 1  free  transition at x/c =  0.8007   66
 Side 2  free  transition at x/c =  0.0211   13

 133   rms: 0.2959E+06   max: 0.7330E+07   T at   98  2   RLX: 0.000
       a = 10.750      CL = -0.0964
      Cm = -0.0393     CD =*********   =>   CDf =  0.00303    CDp =*********

 Side 1  free  transition at x/c =  0.8007   66
 Side 2  free  transition at x/c =  0.0211   13

 134   rms: 0.1587E+06   max: -.2460E+07   T at   98  2   RLX: 0.000
       a = 10.750      CL = -0.0965
      Cm = -0.0393     CD =*********   =>   CDf =  0.00303    CDp =*********

 Side 1  free  transition at x/c =  0.8007   66
 Side 2  free  transition at x/c =  0.0211   13

 135   rms: 0.2099E+06   max: -.2932E+07   T at  100  2   RLX: 0.000
       a = 10.750      CL = -0.0964
      Cm = -0.0393     CD =*********   =>   CDf =  0.00303    CDp =*********

 Side 1  free  transition at x/c =  0.8007   66
 Side 2  free  transition at x/c =  0.0211   13

 136   rms: 0.5393E+06   max: 0.7956E+07   T at   98  2   RLX: 0.000
       a = 10.750      CL = -0.0964
      Cm = -0.0393     CD =*********   =>   CDf =  0.00303    CDp =*********

 Side 1  free  transition at x/c =  0.8007   66
 Side 2  free  transition at x/c =  0.0211   13

 137   rms: 0.9322E+06   max: -.1409E+08   T at  100  2   RLX: 0.000
       a = 10.750      CL = -0.0964
      Cm = -0.0393     CD =*********   =>   CDf =  0.00303    CDp =*********

 Side 1  free  transition at x/c =  0.8007   66
 Side 2  free  transition at x/c =  0.0211   13

 138   rms: 0.2353E+06   max: -.3565E+07   T at   98  2   RLX: 0.000
       a = 10.750      CL = -0.0964
      Cm = -0.0393     CD =*********   =>   CDf =  0.00303    CDp =*********

 Side 1  free  transition at x/c =  0.8007   66
 Side 2  free  transition at x/c =  0.0211   13

 139   rms: 0.1190E+06   max: -.1741E+07   T at  100  2   RLX: 0.000
       a = 10.750      CL = -0.0963
      Cm = -0.0393     CD =*********   =>   CDf =  0.00303    CDp =*********

 Side 1  free  transition at x/c =  0.8006   66
 Side 2  free  transition at x/c =  0.0211   13

 140   rms: 0.3953E+07   max: 0.5455E+08   T at   95  2   RLX: 0.000
       a = 10.750      CL = -0.0964
      Cm = -0.0393     CD =*********   =>   CDf =  0.00303    CDp =*********

 Side 1  free  transition at x/c =  0.8006   66
 Side 2  free  transition at x/c =  0.0211   13

 141   rms: 0.4134E+06   max: 0.6552E+07   T at  100  2   RLX: 0.000
       a = 10.750      CL = -0.0964
      Cm = -0.0393     CD =*********   =>   CDf =  0.00303    CDp =*********

 Side 1  free  transition at x/c =  0.8006   66
 Side 2  free  transition at x/c =  0.0211   13

 142   rms: 0.1004E+07   max: 0.1566E+08   T at  100  2   RLX: 0.000
       a = 10.750      CL = -0.0964
      Cm = -0.0393     CD =*********   =>   CDf =  0.00303    CDp =*********

 Side 1  free  transition at x/c =  0.8006   66
 Side 2  free  transition at x/c =  0.0211   13

 143   rms: 0.7030E+06   max: 0.1039E+08   T at  100  2   RLX: 0.000
       a = 10.750      CL = -0.0964
      Cm = -0.0393     CD =*********   =>   CDf =  0.00303    CDp =*********

 Side 1  free  transition at x/c =  0.8006   66
 Side 2  free  transition at x/c =  0.0211   13

 144   rms: 0.1515E+07   max: -.2190E+08   T at  100  2   RLX: 0.000
       a = 10.750      CL = -0.0964
      Cm = -0.0393     CD =*********   =>   CDf =  0.00303    CDp =*********

 Side 1  free  transition at x/c =  0.8006   66
 Side 2  free  transition at x/c =  0.0211   13

 145   rms: 0.3002E+06   max: 0.8027E+07   T at   98  2   RLX: 0.000
       a = 10.750      CL = -0.0962
      Cm = -0.0393     CD =*********   =>   CDf =  0.00303    CDp =*********

 Side 1  free  transition at x/c =  0.8005   66
 Side 2  free  transition at x/c =  0.0211   13

 146   rms: 0.8390E+06   max: 0.1301E+08   T at  100  2   RLX: 0.000
       a = 10.750      CL = -0.0962
      Cm = -0.0393     CD =*********   =>   CDf =  0.00303    CDp =*********

 Side 1  free  transition at x/c =  0.8005   66
 Side 2  free  transition at x/c =  0.0211   13

 147   rms: 0.6176E+06   max: 0.9655E+07   T at  100  2   RLX: 0.000
       a = 10.750      CL = -0.0962
      Cm = -0.0393     CD =*********   =>   CDf =  0.00303    CDp =*********

 Side 1  free  transition at x/c =  0.8005   66
 Side 2  free  transition at x/c =  0.0211   13

 148   rms: 0.2136E+06   max: 0.3258E+07   T at  100  2   RLX: 0.000
       a = 10.750      CL = -0.0963
      Cm = -0.0393     CD =*********   =>   CDf =  0.00303    CDp =*********

 Side 1  free  transition at x/c =  0.8006   66
 Side 2  free  transition at x/c =  0.0211   13

 149   rms: 0.1100E+07   max: -.1666E+08   T at  100  2   RLX: 0.000
       a = 10.750      CL = -0.0963
      Cm = -0.0393     CD =*********   =>   CDf =  0.00303    CDp =*********

 Side 1  free  transition at x/c =  0.8005   66
 Side 2  free  transition at x/c =  0.0211   13

 150   rms: 0.1951E+06   max: -.2913E+07   T at  100  2   RLX: 0.000
       a = 10.750      CL = -0.0962
      Cm = -0.0393     CD =*********   =>   CDf =  0.00303    CDp =*********

 Side 1  free  transition at x/c =  0.8005   66
 Side 2  free  transition at x/c =  0.0211   13

 151   rms: 0.1686E+06   max: 0.2268E+07   T at  100  2   RLX: 0.000
       a = 10.750      CL = -0.0963
      Cm = -0.0393     CD =*********   =>   CDf =  0.00303    CDp =*********

 Side 1  free  transition at x/c =  0.8006   66
 Side 2  free  transition at x/c =  0.0211   13

 152   rms: 0.2244E+06   max: 0.3499E+07   T at  100  2   RLX: 0.000
       a = 10.750      CL = -0.0963
      Cm = -0.0393     CD =*********   =>   CDf =  0.00303    CDp =*********

 Side 1  free  transition at x/c =  0.8006   66
 Side 2  free  transition at x/c =  0.0211   13

 153   rms: 0.6001E+06   max: 0.9516E+07   T at   95  2   RLX: 0.000
       a = 10.750      CL = -0.0963
      Cm = -0.0393     CD =*********   =>   CDf =  0.00303    CDp =*********

 Side 1  free  transition at x/c =  0.8006   66
 Side 2  free  transition at x/c =  0.0211   13

 154   rms: 0.2792E+06   max: -.4241E+07   T at  100  2   RLX: 0.000
       a = 10.750      CL = -0.0963
      Cm = -0.0393     CD =*********   =>   CDf =  0.00303    CDp =*********

 Side 1  free  transition at x/c =  0.8006   66
 Side 2  free  transition at x/c =  0.0211   13

 155   rms: 0.7873E+05   max: 0.1421E+07   T at   98  2   RLX: 0.000
       a = 10.750      CL = -0.0962
      Cm = -0.0393     CD =*********   =>   CDf =  0.00303    CDp =*********
 VISCAL:  Convergence failed

 Sequence halted since previous  4 points did not converge
 Last-converged  alpha =  -2.500    CL =   0.11462

.OPERva   c>  
 Polar accumulation disabled

.OPERv   c>  
 XFOIL   c>  
 XFOIL   c>  