
 ===================================================
  XFOIL Version 6.99
  Copyright (C) 2000   Mark Drela, Harold Youngren

  This software comes with ABSOLUTELY NO WARRANTY,
    subject to the GNU General Public License.

  Caveat computor
 ===================================================

 File  xfoil.def  not found

   QUIT    Exit program

  .OPER    Direct operating point(s)
  .MDES    Complex mapping design routine
  .QDES    Surface speed design routine
  .GDES    Geometry design routine

   SAVE f  Write airfoil to labeled coordinate file
   PSAV f  Write airfoil to plain coordinate file
   ISAV f  Write airfoil to ISES coordinate file
   MSAV f  Write airfoil to MSES coordinate file
   REVE    Reverse written-airfoil node ordering

   LOAD f  Read buffer airfoil from coordinate file
   NACA i  Set NACA 4,5-digit airfoil and buffer airfoil
   INTE    Set buffer airfoil by interpolating two airfoils
   NORM    Buffer airfoil normalization toggle
   XYCM rr Change CM reference location, currently  0.25000 0.00000

   BEND    Display structural properties of current airfoil

   PCOP    Set current-airfoil panel nodes directly from buffer airfoil points
   PANE    Set current-airfoil panel nodes ( 160 ) based on curvature
  .PPAR    Show/change paneling

  .PLOP    Plotting options

   WDEF f  Write  current-settings file
   RDEF f  Reread current-settings file
   NAME s  Specify new airfoil name
   NINC    Increment name version number

   Z       Zoom    | (available in all menus)
   U       Unzoom  | 

 XFOIL   c>  
 Labeled airfoil file.  Name:  AG23 XC Bubble Dancer Root Airfoil              

 Number of input coordinate points: 160
 Counterclockwise ordering
 Max thickness =     0.088998  at x =   0.274
 Max camber    =     0.022012  at x =   0.454

  LE  x,y  =  -0.00000  -0.00013  |   Chord =   0.99998
  TE  x,y  =   0.99998  -0.00015  |

 Current airfoil nodes set from buffer airfoil nodes ( 160 )

 XFOIL   c>  
 XFOIL   c>  
 Blunt trailing edge.  Gap =  0.00099

 Paneling parameters used...
   Number of panel nodes       160
   Panel bunching parameter    1.000
   TE/LE panel density ratio   0.150
   Refined-area/LE panel density ratio    0.200
   Top    side refined area x/c limits  1.000 1.000
   Bottom side refined area x/c limits  1.000 1.000

 XFOIL   c>  
.OPERi   c>  
 Xtr/c     =  1.0000    top    side
 Xtr/c     =  1.0000    bottom side
 Ncrit     =    9.00   ( 0.070 % turb. level )
 Vacc      =  0.0100

 Klag  =  5.6000     Uxwt  =    1.00
 A     =  6.7000     B     =  0.7500       KCt = 0.01485
 CtiniK=  1.8000     CtiniX=  3.3000

..VPAR   c>  
..VPAR   c>  
.OPERi   c>  
 M  =    0.0000
 Re =    200000

.OPERv   c>  
.OPERv   c>  
.OPERv   c>  
 Polar  1 newly created for accumulation
 Airfoil archived with polar: AG23 XC Bubble Dancer Root Airfoil              

Enter  polar save filename  OR  <return> for no file   s>  
 New polar save file available

Enter  polar dump filename  OR  <return> for no file   s>  
 Polar dump file will NOT be written

 Polar accumulation enabled

.OPERva   c>   Calculating unit vorticity distributions ...
 Calculating wake trajectory ...
 Calculating source influence matrix ...

 Solving BL system ...

 Initializing BL ...
    side            1  ...
 MRCHUE: Inverse mode at  62     Hk =   4.025
 MRCHUE: Inverse mode at  63     Hk =   4.324
 MRCHUE: Inverse mode at  64     Hk =   4.619
 MRCHUE: Inverse mode at  65     Hk =   4.911
 MRCHUE: Inverse mode at  66     Hk =   5.199
 MRCHUE: Inverse mode at  67     Hk =   5.484
 MRCHUE: Inverse mode at  68     Hk =   5.766
 MRCHUE: Inverse mode at  69     Hk =   6.046
 MRCHUE: Inverse mode at  70     Hk =   6.323
 MRCHUE: Inverse mode at  71     Hk =   6.598
 MRCHUE: Inverse mode at  72     Hk =   6.872
 MRCHUE: Inverse mode at  73     Hk =   7.143
 MRCHUE: Inverse mode at  74     Hk =   7.409
 MRCHUE: Inverse mode at  75     Hk =   7.663
 MRCHUE: Inverse mode at  76     Hk =   7.885
 MRCHUE: Inverse mode at  77     Hk =   7.996
    side            2  ...
 MRCHUE: Inverse mode at  10     Hk =   3.837
 MRCHUE: Inverse mode at  11     Hk =   4.673
 MRCHUE: Inverse mode at  12     Hk =   5.543
 MRCHUE: Inverse mode at  13     Hk =   6.539
 MRCHUE: Inverse mode at  14     Hk =   7.726
 MRCHUE: Inverse mode at  15     Hk =   9.070
 MRCHUE: Inverse mode at  16     Hk =  10.453
 MRCHUE: Inverse mode at  17     Hk =   5.618
 MRCHUE: Inverse mode at  18     Hk =   2.500

 Side 1 forced transition at x/c =  1.0000   77
 Side 2  free  transition at x/c =  0.0467   17

   1   rms: 0.1231E+00   max: 0.1047E+01   T at   17  2   RLX: 0.929
       a = -4.000      CL = -0.2575
      Cm = -0.0478     CD =  0.01423   =>   CDf =  0.00718    CDp =  0.00705

 MRCHDU: Convergence failed at  17  side 2    Res =  0.7740E+01
 MRCHDU: Convergence failed at  18  side 2    Res =  0.1593E+02
 MRCHDU: Convergence failed at  19  side 2    Res =  0.1447E+02
 MRCHDU: Convergence failed at  20  side 2    Res =  0.2485E+02
 MRCHDU: Convergence failed at  21  side 2    Res =  0.1032E+02
 MRCHDU: Convergence failed at  22  side 2    Res =  0.8838E+01
 MRCHDU: Convergence failed at  23  side 2    Res =  0.4208E+02
 MRCHDU: Convergence failed at  24  side 2    Res =  0.3465E+02
 MRCHDU: Convergence failed at  25  side 2    Res =  0.3261E+02
 MRCHDU: Convergence failed at  26  side 2    Res =  0.3001E+02
 MRCHDU: Convergence failed at  27  side 2    Res =  0.2816E+02
 MRCHDU: Convergence failed at  28  side 2    Res =  0.2627E+02
 MRCHDU: Convergence failed at  29  side 2    Res =  0.2505E+02
 MRCHDU: Convergence failed at  30  side 2    Res =  0.2374E+02
 MRCHDU: Convergence failed at  31  side 2    Res =  0.2285E+02
 MRCHDU: Convergence failed at  32  side 2    Res =  0.2200E+02
 MRCHDU: Convergence failed at  33  side 2    Res =  0.3856E+02
 MRCHDU: Convergence failed at  34  side 2    Res =  0.1764E+03
 MRCHDU: Convergence failed at  35  side 2    Res =  0.3177E+02
 MRCHDU: Convergence failed at  36  side 2    Res =  0.6726E+02
 MRCHDU: Convergence failed at  37  side 2    Res =  0.3182E+02
 MRCHDU: Convergence failed at  38  side 2    Res =  0.6687E+02
 MRCHDU: Convergence failed at  39  side 2    Res =  0.5292E+02
 MRCHDU: Convergence failed at  40  side 2    Res =  0.7893E+02
 MRCHDU: Convergence failed at  41  side 2    Res =  0.2032E+03
 MRCHDU: Convergence failed at  42  side 2    Res =  0.3770E+03
 MRCHDU: Convergence failed at  43  side 2    Res =  0.1021E+03
 MRCHDU: Convergence failed at  44  side 2    Res =  0.7607E+02
 MRCHDU: Convergence failed at  45  side 2    Res =  0.1410E+03
 MRCHDU: Convergence failed at  46  side 2    Res =  0.2093E+04
 MRCHDU: Convergence failed at  47  side 2    Res =  0.1974E+03
 MRCHDU: Convergence failed at  48  side 2    Res =  0.1429E+03
 MRCHDU: Convergence failed at  49  side 2    Res =  0.2460E+02
 MRCHDU: Convergence failed at  50  side 2    Res =  0.3407E+02
 MRCHDU: Convergence failed at  51  side 2    Res =  0.3324E+02
 MRCHDU: Convergence failed at  52  side 2    Res =  0.3220E+02
 MRCHDU: Convergence failed at  53  side 2    Res =  0.3143E+02
 MRCHDU: Convergence failed at  54  side 2    Res =  0.3067E+02
 MRCHDU: Convergence failed at  55  side 2    Res =  0.2994E+02
 MRCHDU: Convergence failed at  56  side 2    Res =  0.2928E+02
 MRCHDU: Convergence failed at  57  side 2    Res =  0.2878E+02
 MRCHDU: Convergence failed at  58  side 2    Res =  0.2660E+02
 MRCHDU: Convergence failed at  59  side 2    Res =  0.2719E+02
 MRCHDU: Convergence failed at  60  side 2    Res =  0.2781E+02
 MRCHDU: Convergence failed at  61  side 2    Res =  0.2843E+02
 MRCHDU: Convergence failed at  62  side 2    Res =  0.2907E+02
 MRCHDU: Convergence failed at  63  side 2    Res =  0.3802E+02
 MRCHDU: Convergence failed at  64  side 2    Res =  0.4979E+02
 MRCHDU: Convergence failed at  65  side 2    Res =  0.1377E+03
 MRCHDU: Convergence failed at  66  side 2    Res =  0.1445E+03
 MRCHDU: Convergence failed at  67  side 2    Res =  0.7403E+02
 MRCHDU: Convergence failed at  68  side 2    Res =  0.7811E+02
 MRCHDU: Convergence failed at  69  side 2    Res =  0.8087E+02
 MRCHDU: Convergence failed at  70  side 2    Res =  0.8556E+02
 MRCHDU: Convergence failed at  71  side 2    Res =  0.7349E+02
 MRCHDU: Convergence failed at  72  side 2    Res =  0.7699E+02
 MRCHDU: Convergence failed at  73  side 2    Res =  0.8015E+02
 MRCHDU: Convergence failed at  74  side 2    Res =  0.8281E+02
 MRCHDU: Convergence failed at  75  side 2    Res =  0.8478E+02
 MRCHDU: Convergence failed at  76  side 2    Res =  0.8526E+02
 MRCHDU: Convergence failed at  77  side 2    Res =  0.8522E+02
 MRCHDU: Convergence failed at  78  side 2    Res =  0.8341E+02
 MRCHDU: Convergence failed at  79  side 2    Res =  0.5382E+02
 MRCHDU: Convergence failed at  80  side 2    Res =  0.4425E+02
 MRCHDU: Convergence failed at  81  side 2    Res =  0.3499E+02
 MRCHDU: Convergence failed at  82  side 2    Res =  0.4564E+02
 MRCHDU: Convergence failed at  83  side 2    Res =  0.4143E+02
 MRCHDU: Convergence failed at  84  side 2    Res =  0.5082E+02
 MRCHDU: Convergence failed at  85  side 2    Res =  0.6055E+02
 Side 1 forced transition at x/c =  1.0000   77
 Side 2  free  transition at x/c =  0.0407   16

   2   rms: 0.8827E+00   max: -.3556E+01   T at   16  2   RLX: 0.141
       a = -4.000      CL = -1.3042
      Cm =  0.2992     CD =  0.00757   =>   CDf =  0.00251    CDp =  0.00506

 MRCHDU: Convergence failed at  22  side 2    Res =  0.1458E+00
 MRCHDU: Convergence failed at  24  side 2    Res =  0.4259E+00
 MRCHDU: Convergence failed at  25  side 2    Res =  0.4050E+00
 MRCHDU: Convergence failed at  26  side 2    Res =  0.3686E+00
 MRCHDU: Convergence failed at  27  side 2    Res =  0.3147E+00
 MRCHDU: Convergence failed at  28  side 2    Res =  0.2214E+00
 MRCHDU: Convergence failed at  29  side 2    Res =  0.2092E-01
 Side 1 forced transition at x/c =  1.0000   77
 Side 2  free  transition at x/c =  0.0452   17

   3   rms: 0.5830E+00   max: -.2103E+01   C at   77  1   RLX: 0.238
       a = -4.000      CL = -0.6198
      Cm =  0.0904     CD =  0.03082   =>   CDf =  0.00370    CDp =  0.02712

 MRCHDU: Convergence failed at  29  side 2    Res =  0.2533E+00
 MRCHDU: Convergence failed at  30  side 2    Res =  0.7980E+00
 MRCHDU: Convergence failed at  31  side 2    Res =  0.7531E-01
 MRCHDU: Convergence failed at  81  side 2    Res =  0.1659E+00
 MRCHDU: Convergence failed at  82  side 2    Res =  0.1201E+01
 MRCHDU: Convergence failed at  83  side 2    Res =  0.4699E+00
 MRCHDU: Convergence failed at  84  side 2    Res =  0.4618E+00
 MRCHDU: Convergence failed at  85  side 2    Res =  0.4439E+00
 Side 1 forced transition at x/c =  1.0000   77
 Side 2  free  transition at x/c =  0.0493   17

   4   rms: 0.3998E+00   max: -.1062E+01   D at   23  2   RLX: 0.471
       a = -4.000      CL = -0.3682
      Cm = -0.0034     CD =  0.03750   =>   CDf =  0.00364    CDp =  0.03386

 MRCHDU: Convergence failed at  31  side 2    Res =  0.1873E+00
 MRCHDU: Convergence failed at  32  side 2    Res =  0.3182E+00
 MRCHDU: Convergence failed at  41  side 2    Res =  0.1657E+01
 MRCHDU: Convergence failed at  42  side 2    Res =  0.2237E+01
 MRCHDU: Convergence failed at  45  side 2    Res =  0.1386E+01
 Side 1 forced transition at x/c =  1.0000   77
 Side 2  free  transition at x/c =  0.0451   17

   5   rms: 0.8161E+00   max: -.4390E+01   D at   33  2   RLX: 0.114
       a = -4.000      CL = -0.2465
      Cm = -0.0447     CD =  0.03979   =>   CDf =  0.00464    CDp =  0.03515

 MRCHDU: Convergence failed at  33  side 2    Res =  0.6215E-01
 Side 1 forced transition at x/c =  1.0000   77
 Side 2  free  transition at x/c =  0.0446   17

   6   rms: 0.1114E+01   max: -.7008E+01   D at   33  2   RLX: 0.071
       a = -4.000      CL = -0.2495
      Cm = -0.0413     CD =  0.03553   =>   CDf =  0.00498    CDp =  0.03054

 MRCHDU: Convergence failed at  33  side 2    Res =  0.2012E+00
 MRCHDU: Convergence failed at  34  side 2    Res =  0.1766E+00
 Side 1 forced transition at x/c =  1.0000   77
 Side 2  free  transition at x/c =  0.0451   17

   7   rms: 0.1189E+01   max: -.7079E+01   D at   35  2   RLX: 0.071
       a = -4.000      CL = -0.2420
      Cm = -0.0379     CD =  0.03423   =>   CDf =  0.00461    CDp =  0.02962

 MRCHDU: Convergence failed at  35  side 2    Res =  0.6483E-01
 Side 1 forced transition at x/c =  1.0000   77
 Side 2  free  transition at x/c =  0.0455   17

   8   rms: 0.1279E+01   max: -.7368E+01   D at   35  2   RLX: 0.068
       a = -4.000      CL = -0.2601
      Cm = -0.0358     CD =  0.03341   =>   CDf =  0.00492    CDp =  0.02849

 MRCHDU: Convergence failed at  35  side 2    Res =  0.1084E+00
 MRCHDU: Convergence failed at  36  side 2    Res =  0.1637E+00
 MRCHDU: Convergence failed at  37  side 2    Res =  0.1149E+00
 Side 1 forced transition at x/c =  1.0000   77
 Side 2  free  transition at x/c =  0.0443   17
 idif Ue xi dudx           1  0.23331694      3.76629829E-03   61.948608    
 Uenew xinew           2  3.78842792E-03  6.11543655E-05

   9   rms: 0.1064E+01   max: -.4841E+01   D at   38  2   RLX: 0.103
       a = -4.000      CL = -0.2598
      Cm = -0.0336     CD =  0.03252   =>   CDf =  0.00428    CDp =  0.02823

 MRCHDU: Convergence failed at  18  side 2    Res =  0.2488E+01
 MRCHDU: Convergence failed at  19  side 2    Res =  0.2570E+01
 MRCHDU: Convergence failed at  20  side 2    Res =  0.7370E+01
 MRCHDU: Convergence failed at  21  side 2    Res =  0.5854E+02
 MRCHDU: Convergence failed at  22  side 2    Res =  0.3070E+02
 MRCHDU: Convergence failed at  23  side 2    Res =  0.3050E+02
 MRCHDU: Convergence failed at  24  side 2    Res =  0.3148E+02
 MRCHDU: Convergence failed at  25  side 2    Res =  0.2555E+02
 MRCHDU: Convergence failed at  26  side 2    Res =  0.2294E+02
 MRCHDU: Convergence failed at  27  side 2    Res =  0.3105E+02
 MRCHDU: Convergence failed at  28  side 2    Res =  0.3776E+02
 MRCHDU: Convergence failed at  29  side 2    Res =  0.5802E+02
 MRCHDU: Convergence failed at  30  side 2    Res =  0.5045E+02
 MRCHDU: Convergence failed at  31  side 2    Res =  0.8923E+02
 MRCHDU: Convergence failed at  32  side 2    Res =  0.2658E+02
 MRCHDU: Convergence failed at  33  side 2    Res =  0.1702E+02
 MRCHDU: Convergence failed at  34  side 2    Res =  0.2945E+02
 MRCHDU: Convergence failed at  35  side 2    Res =  0.1580E+03
 MRCHDU: Convergence failed at  36  side 2    Res =  0.2014E+03
 MRCHDU: Convergence failed at  37  side 2    Res =  0.5123E+02
 MRCHDU: Convergence failed at  38  side 2    Res =  0.2361E+02
 MRCHDU: Convergence failed at  39  side 2    Res =  0.1479E+02
 MRCHDU: Convergence failed at  40  side 2    Res =  0.5718E+02
 MRCHDU: Convergence failed at  41  side 2    Res =  0.4870E+02
 MRCHDU: Convergence failed at  42  side 2    Res =  0.4109E+02
 MRCHDU: Convergence failed at  43  side 2    Res =  0.3406E+02
 MRCHDU: Convergence failed at  44  side 2    Res =  0.4361E+02
 MRCHDU: Convergence failed at  45  side 2    Res =  0.3110E+02
 MRCHDU: Convergence failed at  46  side 2    Res =  0.4788E+02
 MRCHDU: Convergence failed at  47  side 2    Res =  0.1412E+03
 MRCHDU: Convergence failed at  48  side 2    Res =  0.7890E+02
 MRCHDU: Convergence failed at  49  side 2    Res =  0.2884E+02
 MRCHDU: Convergence failed at  50  side 2    Res =  0.2492E+02
 MRCHDU: Convergence failed at  51  side 2    Res =  0.2227E+02
 MRCHDU: Convergence failed at  52  side 2    Res =  0.2251E+02
 MRCHDU: Convergence failed at  53  side 2    Res =  0.2109E+02
 MRCHDU: Convergence failed at  54  side 2    Res =  0.2001E+02
 MRCHDU: Convergence failed at  55  side 2    Res =  0.1456E+02
 MRCHDU: Convergence failed at  56  side 2    Res =  0.1509E+02
 MRCHDU: Convergence failed at  57  side 2    Res =  0.1557E+02
 MRCHDU: Convergence failed at  58  side 2    Res =  0.1599E+02
 MRCHDU: Convergence failed at  59  side 2    Res =  0.1640E+02
 MRCHDU: Convergence failed at  60  side 2    Res =  0.1639E+02
 MRCHDU: Convergence failed at  61  side 2    Res =  0.1468E+02
 MRCHDU: Convergence failed at  62  side 2    Res =  0.1729E+02
 MRCHDU: Convergence failed at  63  side 2    Res =  0.1705E+02
 MRCHDU: Convergence failed at  64  side 2    Res =  0.1265E+02
 MRCHDU: Convergence failed at  65  side 2    Res =  0.1288E+02
 MRCHDU: Convergence failed at  66  side 2    Res =  0.1308E+02
 MRCHDU: Convergence failed at  67  side 2    Res =  0.1326E+02
 MRCHDU: Convergence failed at  68  side 2    Res =  0.1343E+02
 MRCHDU: Convergence failed at  69  side 2    Res =  0.1359E+02
 MRCHDU: Convergence failed at  70  side 2    Res =  0.1374E+02
 MRCHDU: Convergence failed at  71  side 2    Res =  0.1401E+02
 MRCHDU: Convergence failed at  72  side 2    Res =  0.1435E+02
 MRCHDU: Convergence failed at  73  side 2    Res =  0.1458E+02
 MRCHDU: Convergence failed at  74  side 2    Res =  0.1358E+02
 MRCHDU: Convergence failed at  75  side 2    Res =  0.1413E+02
 MRCHDU: Convergence failed at  76  side 2    Res =  0.1441E+02
 MRCHDU: Convergence failed at  77  side 2    Res =  0.1504E+02
 MRCHDU: Convergence failed at  78  side 2    Res =  0.2332E+02
 MRCHDU: Convergence failed at  79  side 2    Res =  0.1531E+02
 MRCHDU: Convergence failed at  80  side 2    Res =  0.2249E+02
 MRCHDU: Convergence failed at  81  side 2    Res =  0.1013E+03
 MRCHDU: Convergence failed at  82  side 2    Res =  0.1150E+03
 MRCHDU: Convergence failed at  83  side 2    Res =  0.1275E+03
 MRCHDU: Convergence failed at  84  side 2    Res =  0.2151E+03
 MRCHDU: Convergence failed at  85  side 2    Res =  0.6002E+03
 MRCHDU: Convergence failed at  86  side 2    Res =  0.1776E+04
 Side 1 forced transition at x/c =  1.0000   76
 Side 2  free  transition at x/c =  0.0418   17

  10   rms: 0.1091E+01   max: -.1048E+02   T at    2  2   RLX: 0.048
       a = -4.000      CL = -1.8270
      Cm =  0.4283     CD =  0.00616   =>   CDf =  0.00267    CDp =  0.00349

 Side 1 forced transition at x/c =  1.0000   77
 Side 2  free  transition at x/c =  0.0423   16

  11   rms: 0.7485E+00   max: -.2995E+01   T at    2  1   RLX: 0.167
       a = -4.000      CL = -1.4258
      Cm =  0.2917     CD =  0.01171   =>   CDf =  0.01376    CDp = -0.00206

 Side 1 forced transition at x/c =  1.0000   77
 Side 2  free  transition at x/c =  0.0421   16

  12   rms: 0.6205E+00   max: -.5084E+00   U at   85  2   RLX: 0.433
       a = -4.000      CL = -0.8745
      Cm =  0.1255     CD =  0.01216   =>   CDf =  0.01251    CDp = -0.00035

 Side 1 forced transition at x/c =  1.0000   77
 Side 2  free  transition at x/c =  0.0407   16

  13   rms: 0.4416E+00   max: -.1230E+01   C at   83  2   RLX: 0.379
       a = -4.000      CL = -0.6310
      Cm =  0.0514     CD =  0.01296   =>   CDf =  0.01005    CDp =  0.00291

 MRCHDU: Convergence failed at  72  side 2    Res =  0.9103E+00
 Side 1 forced transition at x/c =  1.0000   77
 Side 2  free  transition at x/c =  0.0397   16
 idif Ue xi dudx           1  0.32587340      5.73885441E-03   56.783703    
 Uenew xinew           2  0.11548162      2.03371048E-03

  14   rms: 0.5881E+00   max: 0.4205E+01   T at   16  2   RLX: 0.357
       a = -4.000      CL = -0.6869
      Cm =  0.0588     CD =  0.01597   =>   CDf =  0.00929    CDp =  0.00667

 MRCHDU: Convergence failed at  17  side 2    Res =  0.1120E+02
 MRCHDU: Convergence failed at  18  side 2    Res =  0.2394E+02
 MRCHDU: Convergence failed at  19  side 2    Res =  0.1023E+03
 MRCHDU: Convergence failed at  20  side 2    Res =  0.5048E+02
 MRCHDU: Convergence failed at  21  side 2    Res =  0.4238E+02
 MRCHDU: Convergence failed at  22  side 2    Res =  0.5891E+02
 MRCHDU: Convergence failed at  23  side 2    Res =  0.4478E+02
 MRCHDU: Convergence failed at  24  side 2    Res =  0.2980E+03
 MRCHDU: Convergence failed at  25  side 2    Res =  0.6666E+02
 MRCHDU: Convergence failed at  26  side 2    Res =  0.7488E+02
 MRCHDU: Convergence failed at  27  side 2    Res =  0.1589E+03
 MRCHDU: Convergence failed at  28  side 2    Res =  0.2741E+03
 MRCHDU: Convergence failed at  29  side 2    Res =  0.8250E+04
 MRCHDU: Convergence failed at  30  side 2    Res =  0.9616E+02
 MRCHDU: Convergence failed at  31  side 2    Res =  0.1694E+03
 MRCHDU: Convergence failed at  32  side 2    Res =  0.2116E+03
 MRCHDU: Convergence failed at  33  side 2    Res =  0.2735E+04
 MRCHDU: Convergence failed at  34  side 2    Res =  0.2545E+03
 MRCHDU: Convergence failed at  35  side 2    Res =  0.1352E+03
 MRCHDU: Convergence failed at  36  side 2    Res =  0.1466E+03
 MRCHDU: Convergence failed at  37  side 2    Res =  0.8495E+02
 MRCHDU: Convergence failed at  38  side 2    Res =  0.6501E+02
 MRCHDU: Convergence failed at  39  side 2    Res =  0.5733E+02
 MRCHDU: Convergence failed at  40  side 2    Res =  0.5435E+02
 MRCHDU: Convergence failed at  41  side 2    Res =  0.5432E+02
 MRCHDU: Convergence failed at  42  side 2    Res =  0.5255E+02
 MRCHDU: Convergence failed at  43  side 2    Res =  0.5278E+02
 MRCHDU: Convergence failed at  44  side 2    Res =  0.4466E+02
 MRCHDU: Convergence failed at  45  side 2    Res =  0.4620E+02
 MRCHDU: Convergence failed at  46  side 2    Res =  0.4761E+02
 MRCHDU: Convergence failed at  47  side 2    Res =  0.4903E+02
 MRCHDU: Convergence failed at  48  side 2    Res =  0.5043E+02
 MRCHDU: Convergence failed at  49  side 2    Res =  0.5195E+02
 MRCHDU: Convergence failed at  50  side 2    Res =  0.5317E+02
 MRCHDU: Convergence failed at  51  side 2    Res =  0.8207E+02
 MRCHDU: Convergence failed at  52  side 2    Res =  0.7788E+02
 MRCHDU: Convergence failed at  53  side 2    Res =  0.9680E+03
 MRCHDU: Convergence failed at  54  side 2    Res =  0.2359E+04
 MRCHDU: Convergence failed at  55  side 2    Res =  0.5755E+03
 MRCHDU: Convergence failed at  56  side 2    Res =  0.5823E+02
 MRCHDU: Convergence failed at  57  side 2    Res =  0.5952E+02
 MRCHDU: Convergence failed at  58  side 2    Res =  0.5630E+02
 MRCHDU: Convergence failed at  59  side 2    Res =  0.5316E+02
 MRCHDU: Convergence failed at  60  side 2    Res =  0.4647E+02
 MRCHDU: Convergence failed at  61  side 2    Res =  0.4578E+02
 MRCHDU: Convergence failed at  62  side 2    Res =  0.4779E+02
 MRCHDU: Convergence failed at  63  side 2    Res =  0.5025E+02
 MRCHDU: Convergence failed at  64  side 2    Res =  0.6810E+02
 MRCHDU: Convergence failed at  65  side 2    Res =  0.6791E+02
 MRCHDU: Convergence failed at  66  side 2    Res =  0.6728E+02
 MRCHDU: Convergence failed at  67  side 2    Res =  0.6623E+02
 MRCHDU: Convergence failed at  68  side 2    Res =  0.6437E+02
 MRCHDU: Convergence failed at  69  side 2    Res =  0.6165E+02
 MRCHDU: Convergence failed at  70  side 2    Res =  0.5772E+02
 MRCHDU: Convergence failed at  71  side 2    Res =  0.2177E+03
 MRCHDU: Convergence failed at  72  side 2    Res =  0.3182E+03
 MRCHDU: Convergence failed at  73  side 2    Res =  0.1294E+03
 MRCHDU: Convergence failed at  74  side 2    Res =  0.4455E+02
 MRCHDU: Convergence failed at  75  side 2    Res =  0.1133E+03
 MRCHDU: Convergence failed at  76  side 2    Res =  0.6518E+02
 MRCHDU: Convergence failed at  77  side 2    Res =  0.5925E+02
 MRCHDU: Convergence failed at  78  side 2    Res =  0.8220E+02
 MRCHDU: Convergence failed at  79  side 2    Res =  0.5031E+02
 MRCHDU: Convergence failed at  80  side 2    Res =  0.5182E+02
 MRCHDU: Convergence failed at  81  side 2    Res =  0.5443E+02
 MRCHDU: Convergence failed at  82  side 2    Res =  0.6292E+02
 MRCHDU: Convergence failed at  83  side 2    Res =  0.8299E+02
 MRCHDU: Convergence failed at  84  side 2    Res =  0.6835E+02
 MRCHDU: Convergence failed at  85  side 2    Res =  0.4025E+02
 MRCHDU: Convergence failed at  86  side 2    Res =  0.3190E+03
 Side 1  free  transition at x/c =  0.9985   76
 Side 2  free  transition at x/c =  0.0319   16

  15   rms: 0.1345E+01   max: -.4688E+01   T at   76  1   RLX: 0.107
       a = -4.000      CL = -2.3448
      Cm =  0.5644     CD =  0.00541   =>   CDf =  0.00193    CDp =  0.00348

 MRCHDU: Convergence failed at  89  side 2    Res =  0.4622E+01
 MRCHDU: Convergence failed at  90  side 2    Res =  0.2310E+01
 Side 1 forced transition at x/c =  1.0000   76
 Side 2  free  transition at x/c =  0.0326   17

  16   rms: 0.1192E+01   max: 0.4754E+01   T at   17  2   RLX: 0.127
       a = -4.000      CL = -1.2512
      Cm =  0.2355     CD =  0.05769   =>   CDf =  0.00259    CDp =  0.05510

 Side 1 forced transition at x/c =  1.0000   76
 Side 2  free  transition at x/c =  0.0328   17

  17   rms: 0.2391E+01   max: -.1123E+02   T at   17  2   RLX: 0.045
       a = -4.000      CL = -1.1634
      Cm =  0.2147     CD =  0.08272   =>   CDf =  0.00294    CDp =  0.07977

 Side 1 forced transition at x/c =  1.0000   76
 Side 2  free  transition at x/c =  0.0359   17

  18   rms: 0.6535E+00   max: -.2189E+01   D at   75  1   RLX: 0.228
       a = -4.000      CL = -0.8638
      Cm =  0.1427     CD =  0.05915   =>   CDf =  0.00325    CDp =  0.05590

 Side 1 forced transition at x/c =  1.0000   77
 Side 2  free  transition at x/c =  0.0425   16

  19   rms: 0.8700E+00   max: 0.5490E+01   T at   17  2   RLX: 0.203
       a = -4.000      CL = -0.6535
      Cm =  0.0853     CD =  0.07257   =>   CDf =  0.00343    CDp =  0.06913

 Side 1 forced transition at x/c =  1.0000   77
 Side 2  free  transition at x/c =  0.0496   17
 idif Ue xi dudx           1  0.25567132      4.47177887E-03   57.174412    
 Uenew xinew           2  4.38319035E-02  7.66634941E-04

  20   rms: 0.8112E+00   max: -.2556E+01   D at   18  2   RLX: 0.196
       a = -4.000      CL = -0.3947
      Cm = -0.0236     CD =  0.05245   =>   CDf =  0.00331    CDp =  0.04915

 Side 1 forced transition at x/c =  1.0000   76
 Side 2  free  transition at x/c =  0.0422   17

  21   rms: 0.1178E+01   max: -.4186E+01   D at   22  2   RLX: 0.119
       a = -4.000      CL = -0.3530
      Cm = -0.0535     CD =  0.05261   =>   CDf =  0.00342    CDp =  0.04918

 Side 1 forced transition at x/c =  1.0000   76
 Side 2  free  transition at x/c =  0.0346   17

  22   rms: 0.3916E+01   max: -.2008E+02   D at   24  2   RLX: 0.025
       a = -4.000      CL = -0.3391
      Cm = -0.0699     CD =  0.05188   =>   CDf =  0.00358    CDp =  0.04830

 Side 1 forced transition at x/c =  1.0000   76
 Side 2  free  transition at x/c =  0.0318   16

  23   rms: 0.1166E+01   max: -.5113E+01   D at   29  2   RLX: 0.098
       a = -4.000      CL = -0.4097
      Cm = -0.0630     CD =  0.04395   =>   CDf =  0.00366    CDp =  0.04030

 Side 1 forced transition at x/c =  1.0000   76
 Side 2  free  transition at x/c =  0.0306   16

  24   rms: 0.9872E+00   max: -.4208E+01   D at   34  2   RLX: 0.119
       a = -4.000      CL = -0.4343
      Cm = -0.0687     CD =  0.03791   =>   CDf =  0.00376    CDp =  0.03415

 Side 1 forced transition at x/c =  1.0000   76
 Side 2  free  transition at x/c =  0.0297   16

  25   rms: 0.8102E+00   max: -.3227E+01   D at   39  2   RLX: 0.155
       a = -4.000      CL = -0.4572
      Cm = -0.0722     CD =  0.03307   =>   CDf =  0.00389    CDp =  0.02919

 Side 1 forced transition at x/c =  1.0000   76
 Side 2  free  transition at x/c =  0.0289   16

  26   rms: 0.7054E+00   max: -.2560E+01   D at   43  2   RLX: 0.195
       a = -4.000      CL = -0.4928
      Cm = -0.0701     CD =  0.02889   =>   CDf =  0.00396    CDp =  0.02493

 Side 1 forced transition at x/c =  1.0000   76
 Side 2  free  transition at x/c =  0.0275   16

  27   rms: 0.6736E+00   max: 0.2621E+01   D at   75  1   RLX: 0.224
       a = -4.000      CL = -0.5469
      Cm = -0.0639     CD =  0.02745   =>   CDf =  0.00401    CDp =  0.02344

 Side 1 forced transition at x/c =  1.0000   76
 Side 2  free  transition at x/c =  0.0263   16
 idif Ue xi dudx           1  0.24085790      5.06246090E-03   47.577236    
 Uenew xinew           2  3.61284008E-03  7.59363174E-05

  28   rms: 0.5261E+00   max: 0.1673E+01   D at   68  1   RLX: 0.327
       a = -4.000      CL = -0.5937
      Cm = -0.0533     CD =  0.03001   =>   CDf =  0.00394    CDp =  0.02606

 Side 1  free  transition at x/c =  0.9875   74
 Side 2  free  transition at x/c =  0.0282   17

  29   rms: 0.7272E+00   max: -.7805E+01   T at    2  2   RLX: 0.064
       a = -4.000      CL = -0.5819
      Cm = -0.0569     CD =  0.03309   =>   CDf =  0.00436    CDp =  0.02872

 Side 1  free  transition at x/c =  0.9815   74
 Side 2  free  transition at x/c =  0.0282   16

  30   rms: 0.5205E+00   max: 0.4884E+01   T at   74  1   RLX: 0.138
       a = -4.000      CL = -0.5834
      Cm = -0.0539     CD =  0.03260   =>   CDf =  0.00430    CDp =  0.02830

 Side 1  free  transition at x/c =  0.9661   73
 Side 2  free  transition at x/c =  0.0287   16

  31   rms: 0.4255E+00   max: 0.4526E+01   T at   73  1   RLX: 0.190
       a = -4.000      CL = -0.6053
      Cm = -0.0432     CD =  0.03501   =>   CDf =  0.00439    CDp =  0.03061

 Side 1  free  transition at x/c =  0.9452   72
 Side 2  free  transition at x/c =  0.0298   16

  32   rms: 0.3740E+00   max: -.1545E+01   D at   74  2   RLX: 0.324
       a = -4.000      CL = -0.5754
      Cm = -0.0374     CD =  0.02941   =>   CDf =  0.00437    CDp =  0.02505

 Side 1  free  transition at x/c =  0.9370   71
 Side 2  free  transition at x/c =  0.0292   16

  33   rms: 0.4300E+00   max: -.1421E+01   D at   74  2   RLX: 0.352
       a = -4.000      CL = -0.5148
      Cm = -0.0366     CD =  0.02294   =>   CDf =  0.00494    CDp =  0.01800

 Side 1  free  transition at x/c =  0.9446   72
 Side 2  free  transition at x/c =  0.0286   16

  34   rms: 0.3145E+00   max: -.1123E+01   D at   86  2   RLX: 0.445
       a = -4.000      CL = -0.4398
      Cm = -0.0366     CD =  0.02086   =>   CDf =  0.00582    CDp =  0.01504

 Side 1  free  transition at x/c =  0.9575   73
 Side 2  free  transition at x/c =  0.0316   16

  35   rms: 0.3034E+00   max: -.9765E+00   D at   86  2   RLX: 0.512
       a = -4.000      CL = -0.3811
      Cm = -0.0386     CD =  0.02030   =>   CDf =  0.00607    CDp =  0.01423

 Side 1  free  transition at x/c =  0.9728   74
 Side 2  free  transition at x/c =  0.0324   17

  36   rms: 0.2513E+00   max: -.1095E+01   T at   74  1   RLX: 0.457
       a = -4.000      CL = -0.3348
      Cm = -0.0410     CD =  0.01661   =>   CDf =  0.00693    CDp =  0.00969

 Side 1  free  transition at x/c =  0.9926   75
 Side 2  free  transition at x/c =  0.0344   17

  37   rms: 0.1004E+00   max: -.7113E+00   T at   75  1   RLX: 0.703
       a = -4.000      CL = -0.2952
      Cm = -0.0431     CD =  0.01577   =>   CDf =  0.00729    CDp =  0.00848

 Side 1 forced transition at x/c =  1.0000   77
 Side 2  free  transition at x/c =  0.0369   16

  38   rms: 0.5442E-01   max: -.3466E+00   T at    2  1
       a = -4.000      CL = -0.2544
      Cm = -0.0481     CD =  0.01535   =>   CDf =  0.00731    CDp =  0.00804

 Side 1 forced transition at x/c =  1.0000   77
 Side 2  free  transition at x/c =  0.0415   16

  39   rms: 0.1780E-01   max: 0.1476E+00   D at   16  2
       a = -4.000      CL = -0.2544
      Cm = -0.0481     CD =  0.01562   =>   CDf =  0.00741    CDp =  0.00821

 Side 1 forced transition at x/c =  1.0000   77
 Side 2  free  transition at x/c =  0.0412   16

  40   rms: 0.4390E-03   max: 0.3644E-02   D at   17  2
       a = -4.000      CL = -0.2543
      Cm = -0.0481     CD =  0.01559   =>   CDf =  0.00740    CDp =  0.00819

 Side 1 forced transition at x/c =  1.0000   77
 Side 2  free  transition at x/c =  0.0412   16

  41   rms: 0.4865E-05   max: 0.3463E-04   D at   87  2
       a = -4.000      CL = -0.2543
      Cm = -0.0481     CD =  0.01559   =>   CDf =  0.00740    CDp =  0.00819
 plradd ia,ip,cpol            1           0  8.09435500E-04

 Point added to stored polar  1
 Point written to save file  ag23_Re200k.base.pol                            
 Dump file unspecified or not available
 Calculating wake trajectory ...
 Calculating source influence matrix ...

 Solving BL system ...

 Side 1 forced transition at x/c =  1.0000   77
 Side 2  free  transition at x/c =  0.0412   16

   1   rms: 0.1003E+00   max: -.1032E+01   T at   16  2   RLX: 0.485
       a = -3.500      CL = -0.2300
      Cm = -0.0478     CD =  0.01513   =>   CDf =  0.00740    CDp =  0.00773

 Side 1 forced transition at x/c =  1.0000   77
 Side 2  free  transition at x/c =  0.0462   17

   2   rms: 0.1521E+00   max: -.5378E+00   T at   17  2   RLX: 0.930
       a = -3.500      CL = -0.1986
      Cm = -0.0490     CD =  0.01240   =>   CDf =  0.00749    CDp =  0.00491

 MRCHDU: Convergence failed at  18  side 2    Res =  0.8950E+01
 MRCHDU: Convergence failed at  19  side 2    Res =  0.1504E+02
 MRCHDU: Convergence failed at  20  side 2    Res =  0.1052E+02
 MRCHDU: Convergence failed at  21  side 2    Res =  0.1321E+02
 MRCHDU: Convergence failed at  22  side 2    Res =  0.1937E+02
 MRCHDU: Convergence failed at  23  side 2    Res =  0.3552E+02
 MRCHDU: Convergence failed at  24  side 2    Res =  0.1121E+03
 MRCHDU: Convergence failed at  25  side 2    Res =  0.7869E+02
 MRCHDU: Convergence failed at  26  side 2    Res =  0.3768E+02
 MRCHDU: Convergence failed at  27  side 2    Res =  0.2689E+02
 MRCHDU: Convergence failed at  28  side 2    Res =  0.2518E+02
 MRCHDU: Convergence failed at  29  side 2    Res =  0.2062E+02
 MRCHDU: Convergence failed at  30  side 2    Res =  0.1799E+02
 MRCHDU: Convergence failed at  31  side 2    Res =  0.1616E+02
 MRCHDU: Convergence failed at  32  side 2    Res =  0.1492E+02
 MRCHDU: Convergence failed at  33  side 2    Res =  0.1210E+02
 MRCHDU: Convergence failed at  34  side 2    Res =  0.1299E+02
 MRCHDU: Convergence failed at  35  side 2    Res =  0.1368E+02
 MRCHDU: Convergence failed at  36  side 2    Res =  0.1456E+02
 MRCHDU: Convergence failed at  37  side 2    Res =  0.1560E+02
 MRCHDU: Convergence failed at  38  side 2    Res =  0.1642E+02
 MRCHDU: Convergence failed at  39  side 2    Res =  0.1751E+02
 MRCHDU: Convergence failed at  40  side 2    Res =  0.1835E+02
 MRCHDU: Convergence failed at  41  side 2    Res =  0.1916E+02
 MRCHDU: Convergence failed at  42  side 2    Res =  0.1998E+02
 MRCHDU: Convergence failed at  43  side 2    Res =  0.2105E+02
 MRCHDU: Convergence failed at  44  side 2    Res =  0.2189E+02
 MRCHDU: Convergence failed at  45  side 2    Res =  0.2272E+02
 MRCHDU: Convergence failed at  46  side 2    Res =  0.2368E+02
 MRCHDU: Convergence failed at  47  side 2    Res =  0.2448E+02
 MRCHDU: Convergence failed at  48  side 2    Res =  0.2537E+02
 MRCHDU: Convergence failed at  49  side 2    Res =  0.2616E+02
 MRCHDU: Convergence failed at  50  side 2    Res =  0.2717E+02
 MRCHDU: Convergence failed at  51  side 2    Res =  0.2385E+02
 MRCHDU: Convergence failed at  52  side 2    Res =  0.2498E+02
 MRCHDU: Convergence failed at  53  side 2    Res =  0.2615E+02
 MRCHDU: Convergence failed at  54  side 2    Res =  0.2735E+02
 MRCHDU: Convergence failed at  55  side 2    Res =  0.2859E+02
 MRCHDU: Convergence failed at  56  side 2    Res =  0.2985E+02
 MRCHDU: Convergence failed at  57  side 2    Res =  0.3116E+02
 MRCHDU: Convergence failed at  58  side 2    Res =  0.3249E+02
 MRCHDU: Convergence failed at  59  side 2    Res =  0.3386E+02
 MRCHDU: Convergence failed at  60  side 2    Res =  0.3527E+02
 MRCHDU: Convergence failed at  61  side 2    Res =  0.3672E+02
 MRCHDU: Convergence failed at  62  side 2    Res =  0.3819E+02
 MRCHDU: Convergence failed at  63  side 2    Res =  0.3971E+02
 MRCHDU: Convergence failed at  64  side 2    Res =  0.4130E+02
 MRCHDU: Convergence failed at  65  side 2    Res =  0.4301E+02
 MRCHDU: Convergence failed at  66  side 2    Res =  0.4503E+02
 MRCHDU: Convergence failed at  67  side 2    Res =  0.4379E+02
 MRCHDU: Convergence failed at  68  side 2    Res =  0.2820E+02
 MRCHDU: Convergence failed at  69  side 2    Res =  0.3009E+02
 MRCHDU: Convergence failed at  70  side 2    Res =  0.5159E+02
 MRCHDU: Convergence failed at  71  side 2    Res =  0.5583E+02
 MRCHDU: Convergence failed at  72  side 2    Res =  0.5831E+02
 MRCHDU: Convergence failed at  73  side 2    Res =  0.6027E+02
 MRCHDU: Convergence failed at  74  side 2    Res =  0.6174E+02
 MRCHDU: Convergence failed at  75  side 2    Res =  0.6228E+02
 MRCHDU: Convergence failed at  76  side 2    Res =  0.5467E+02
 MRCHDU: Convergence failed at  77  side 2    Res =  0.5159E+02
 MRCHDU: Convergence failed at  78  side 2    Res =  0.5213E+02
 MRCHDU: Convergence failed at  79  side 2    Res =  0.4962E+02
 MRCHDU: Convergence failed at  80  side 2    Res =  0.4510E+02
 MRCHDU: Convergence failed at  81  side 2    Res =  0.4024E+02
 MRCHDU: Convergence failed at  82  side 2    Res =  0.3509E+02
 MRCHDU: Convergence failed at  83  side 2    Res =  0.3024E+02
 MRCHDU: Convergence failed at  84  side 2    Res =  0.2306E+02
 MRCHDU: Convergence failed at  85  side 2    Res =  0.2225E+02
 Side 1 forced transition at x/c =  1.0000   77
 Side 2  free  transition at x/c =  0.0615   18

   3   rms: 0.7440E+00   max: 0.1693E+01   D at   90  2   RLX: 0.773
       a = -3.500      CL = -0.3835
      Cm =  0.0245     CD =  0.01067   =>   CDf =  0.00254    CDp =  0.00813

 MRCHDU: Convergence failed at  90  side 2    Res =  0.2443E+01
 MRCHDU: Convergence failed at  91  side 2    Res =  0.4486E+01
 Side 1 forced transition at x/c =  1.0000   77
 Side 2  free  transition at x/c =  0.0668   18

   4   rms: 0.2380E+00   max: -.1051E+01   D at   51  2   RLX: 0.476
       a = -3.500      CL = -0.2351
      Cm = -0.0316     CD =  0.01471   =>   CDf =  0.00719    CDp =  0.00753

 Side 1 forced transition at x/c =  1.0000   77
 Side 2  free  transition at x/c =  0.0689   18

   5   rms: 0.2988E+00   max: -.1490E+01   D at   51  2   RLX: 0.336
       a = -3.500      CL = -0.1988
      Cm = -0.0447     CD =  0.01302   =>   CDf =  0.00702    CDp =  0.00600

 Side 1 forced transition at x/c =  1.0000   77
 Side 2  free  transition at x/c =  0.0738   19

   6   rms: 0.2862E+00   max: -.1480E+01   D at   51  2   RLX: 0.338
       a = -3.500      CL = -0.1923
      Cm = -0.0484     CD =  0.01242   =>   CDf =  0.00708    CDp =  0.00534

 MRCHDU: Convergence failed at  45  side 2    Res =  0.3334E+00
 Side 1 forced transition at x/c =  1.0000   77
 Side 2  free  transition at x/c =  0.0739   19

   7   rms: 0.1610E+00   max: -.7774E+00   D at   57  2   RLX: 0.643
       a = -3.500      CL = -0.1896
      Cm = -0.0510     CD =  0.01282   =>   CDf =  0.00753    CDp =  0.00529

 Side 1 forced transition at x/c =  1.0000   77
 Side 2  free  transition at x/c =  0.0669   18

   8   rms: 0.8577E-01   max: -.5817E+00   D at   57  2   RLX: 0.860
       a = -3.500      CL = -0.1942
      Cm = -0.0500     CD =  0.01331   =>   CDf =  0.00748    CDp =  0.00583

 Side 1 forced transition at x/c =  1.0000   77
 Side 2  free  transition at x/c =  0.0598   18

   9   rms: 0.2553E-01   max: -.2742E+00   D at   57  2
       a = -3.500      CL = -0.1978
      Cm = -0.0489     CD =  0.01352   =>   CDf =  0.00743    CDp =  0.00610

 Side 1 forced transition at x/c =  1.0000   77
 Side 2  free  transition at x/c =  0.0586   18

  10   rms: 0.3469E-02   max: -.3310E-01   D at   57  2
       a = -3.500      CL = -0.1982
      Cm = -0.0488     CD =  0.01357   =>   CDf =  0.00744    CDp =  0.00613

 Side 1 forced transition at x/c =  1.0000   77
 Side 2  free  transition at x/c =  0.0583   18

  11   rms: 0.3829E-04   max: -.5992E-03   D at   57  2
       a = -3.500      CL = -0.1982
      Cm = -0.0488     CD =  0.01357   =>   CDf =  0.00744    CDp =  0.00613
 plradd ia,ip,cpol            2           0  8.09435500E-04

 Point added to stored polar  1
 Point written to save file  ag23_Re200k.base.pol                            
 Dump file unspecified or not available
 Calculating wake trajectory ...
 Calculating source influence matrix ...

 Solving BL system ...

 Side 1 forced transition at x/c =  1.0000   77
 Side 2  free  transition at x/c =  0.0583   18

   1   rms: 0.2505E+00   max: -.2138E+01   T at   18  2   RLX: 0.234
       a = -3.000      CL = -0.1831
      Cm = -0.0497     CD =  0.01279   =>   CDf =  0.00745    CDp =  0.00535

 Side 1 forced transition at x/c =  1.0000   77
 Side 2  free  transition at x/c =  0.0683   18

   2   rms: 0.1201E+00   max: -.1662E+01   T at   18  2   RLX: 0.301
       a = -3.000      CL = -0.1720
      Cm = -0.0491     CD =  0.01375   =>   CDf =  0.00746    CDp =  0.00629

 Side 1  free  transition at x/c =  0.9930   76
 Side 2  free  transition at x/c =  0.0805   19

   3   rms: 0.1671E+00   max: -.2162E+01   T at   19  2   RLX: 0.231
       a = -3.000      CL = -0.1598
      Cm = -0.0501     CD =  0.01356   =>   CDf =  0.00742    CDp =  0.00615

 MRCHDU: Convergence failed at  21  side 2    Res =  0.2132E+01
 MRCHDU: Convergence failed at  22  side 2    Res =  0.4375E+01
 MRCHDU: Convergence failed at  23  side 2    Res =  0.1266E+02
 MRCHDU: Convergence failed at  24  side 2    Res =  0.1660E+02
 MRCHDU: Convergence failed at  25  side 2    Res =  0.1600E+02
 MRCHDU: Convergence failed at  26  side 2    Res =  0.1508E+02
 MRCHDU: Convergence failed at  27  side 2    Res =  0.1492E+02
 MRCHDU: Convergence failed at  28  side 2    Res =  0.1513E+02
 MRCHDU: Convergence failed at  29  side 2    Res =  0.1488E+02
 MRCHDU: Convergence failed at  30  side 2    Res =  0.1597E+02
 MRCHDU: Convergence failed at  31  side 2    Res =  0.2224E+02
 MRCHDU: Convergence failed at  32  side 2    Res =  0.2252E+02
 MRCHDU: Convergence failed at  33  side 2    Res =  0.2110E+02
 MRCHDU: Convergence failed at  34  side 2    Res =  0.1903E+02
 MRCHDU: Convergence failed at  35  side 2    Res =  0.1798E+02
 MRCHDU: Convergence failed at  36  side 2    Res =  0.1683E+02
 MRCHDU: Convergence failed at  37  side 2    Res =  0.1619E+02
 MRCHDU: Convergence failed at  38  side 2    Res =  0.1546E+02
 MRCHDU: Convergence failed at  39  side 2    Res =  0.1482E+02
 MRCHDU: Convergence failed at  40  side 2    Res =  0.1366E+02
 MRCHDU: Convergence failed at  41  side 2    Res =  0.1338E+02
 MRCHDU: Convergence failed at  42  side 2    Res =  0.1296E+02
 MRCHDU: Convergence failed at  43  side 2    Res =  0.1258E+02
 MRCHDU: Convergence failed at  44  side 2    Res =  0.1223E+02
 MRCHDU: Convergence failed at  45  side 2    Res =  0.1163E+02
 MRCHDU: Convergence failed at  46  side 2    Res =  0.1137E+02
 MRCHDU: Convergence failed at  47  side 2    Res =  0.1113E+02
 MRCHDU: Convergence failed at  48  side 2    Res =  0.1081E+02
 MRCHDU: Convergence failed at  49  side 2    Res =  0.1062E+02
 MRCHDU: Convergence failed at  50  side 2    Res =  0.1038E+02
 MRCHDU: Convergence failed at  51  side 2    Res =  0.1023E+02
 MRCHDU: Convergence failed at  52  side 2    Res =  0.1005E+02
 MRCHDU: Convergence failed at  53  side 2    Res =  0.9910E+01
 MRCHDU: Convergence failed at  54  side 2    Res =  0.9768E+01
 MRCHDU: Convergence failed at  55  side 2    Res =  0.9636E+01
 MRCHDU: Convergence failed at  56  side 2    Res =  0.9509E+01
 MRCHDU: Convergence failed at  57  side 2    Res =  0.7858E+01
 MRCHDU: Convergence failed at  58  side 2    Res =  0.8050E+01
 MRCHDU: Convergence failed at  59  side 2    Res =  0.8295E+01
 MRCHDU: Convergence failed at  60  side 2    Res =  0.8485E+01
 MRCHDU: Convergence failed at  61  side 2    Res =  0.8682E+01
 MRCHDU: Convergence failed at  62  side 2    Res =  0.8939E+01
 MRCHDU: Convergence failed at  63  side 2    Res =  0.9181E+01
 MRCHDU: Convergence failed at  64  side 2    Res =  0.9391E+01
 MRCHDU: Convergence failed at  65  side 2    Res =  0.9628E+01
 MRCHDU: Convergence failed at  66  side 2    Res =  0.9881E+01
 MRCHDU: Convergence failed at  67  side 2    Res =  0.1015E+02
 MRCHDU: Convergence failed at  68  side 2    Res =  0.1043E+02
 MRCHDU: Convergence failed at  69  side 2    Res =  0.1074E+02
 MRCHDU: Convergence failed at  70  side 2    Res =  0.1105E+02
 MRCHDU: Convergence failed at  71  side 2    Res =  0.1133E+02
 MRCHDU: Convergence failed at  72  side 2    Res =  0.1162E+02
 MRCHDU: Convergence failed at  73  side 2    Res =  0.1186E+02
 MRCHDU: Convergence failed at  74  side 2    Res =  0.1206E+02
 MRCHDU: Convergence failed at  75  side 2    Res =  0.1221E+02
 MRCHDU: Convergence failed at  76  side 2    Res =  0.1223E+02
 MRCHDU: Convergence failed at  77  side 2    Res =  0.1220E+02
 MRCHDU: Convergence failed at  78  side 2    Res =  0.1199E+02
 MRCHDU: Convergence failed at  79  side 2    Res =  0.1168E+02
 MRCHDU: Convergence failed at  80  side 2    Res =  0.1119E+02
 MRCHDU: Convergence failed at  81  side 2    Res =  0.1059E+02
 MRCHDU: Convergence failed at  82  side 2    Res =  0.9830E+01
 MRCHDU: Convergence failed at  83  side 2    Res =  0.8992E+01
 MRCHDU: Convergence failed at  84  side 2    Res =  0.1156E+02
 MRCHDU: Convergence failed at  85  side 2    Res =  0.1239E+02
 Side 1  free  transition at x/c =  0.9931   76
 Side 2  free  transition at x/c =  0.1021   21

   4   rms: 0.4258E+00   max: 0.7091E+00   D at   91  2   RLX: 0.544
       a = -3.000      CL = -0.4067
      Cm =  0.0419     CD =  0.00936   =>   CDf =  0.00269    CDp =  0.00667

 Side 1  free  transition at x/c =  0.9908   76
 Side 2  free  transition at x/c =  0.1285   23

   5   rms: 0.2829E+00   max: -.3546E+01   C at   23  2   RLX: 0.141
       a = -3.000      CL = -0.3524
      Cm =  0.0253     CD =  0.01096   =>   CDf =  0.00856    CDp =  0.00240

 Side 1  free  transition at x/c =  0.9917   76
 Side 2  free  transition at x/c =  0.1463   24

   6   rms: 0.4325E+00   max: -.8616E+01   C at   24  2   RLX: 0.058
       a = -3.000      CL = -0.3373
      Cm =  0.0204     CD =  0.01098   =>   CDf =  0.00824    CDp =  0.00274

 Side 1  free  transition at x/c =  0.9921   76
 Side 2  free  transition at x/c =  0.1487   24

   7   rms: 0.1731E+00   max: -.1488E+01   T at   24  2   RLX: 0.336
       a = -3.000      CL = -0.2601
      Cm = -0.0058     CD =  0.01126   =>   CDf =  0.00835    CDp =  0.00292

 Side 1  free  transition at x/c =  0.9931   77
 Side 2  free  transition at x/c =  0.1919   26

   8   rms: 0.1196E+00   max: -.8847E+00   D at    2  1   RLX: 0.565
       a = -3.000      CL = -0.1782
      Cm = -0.0341     CD =  0.01138   =>   CDf =  0.00768    CDp =  0.00369

 Side 1  free  transition at x/c =  0.9942   78
 Side 2  free  transition at x/c =  0.2844   33

   9   rms: 0.1388E+00   max: -.2375E+01   C at   33  2   RLX: 0.211
       a = -3.000      CL = -0.1730
      Cm = -0.0387     CD =  0.01090   =>   CDf =  0.00679    CDp =  0.00411

 Side 1  free  transition at x/c =  0.9945   78
 Side 2  free  transition at x/c =  0.2891   33

  10   rms: 0.4814E-01   max: 0.4662E+00   D at   26  2
       a = -3.000      CL = -0.1185
      Cm = -0.0552     CD =  0.01110   =>   CDf =  0.00675    CDp =  0.00436

 Side 1  free  transition at x/c =  0.9952   78
 Side 2  free  transition at x/c =  0.3184   35

  11   rms: 0.2107E-01   max: -.2592E+00   C at   35  2
       a = -3.000      CL = -0.1188
      Cm = -0.0552     CD =  0.01105   =>   CDf =  0.00632    CDp =  0.00473

 Side 1  free  transition at x/c =  0.9952   78
 Side 2  free  transition at x/c =  0.2897   33

  12   rms: 0.9876E-02   max: -.1208E+00   C at   33  2
       a = -3.000      CL = -0.1184
      Cm = -0.0552     CD =  0.01120   =>   CDf =  0.00642    CDp =  0.00478

 Side 1  free  transition at x/c =  0.9950   78
 Side 2  free  transition at x/c =  0.2928   34

  13   rms: 0.2333E-02   max: -.3729E-01   C at   34  2
       a = -3.000      CL = -0.1185
      Cm = -0.0552     CD =  0.01119   =>   CDf =  0.00639    CDp =  0.00480

 Side 1  free  transition at x/c =  0.9950   78
 Side 2  free  transition at x/c =  0.2929   34

  14   rms: 0.4791E-04   max: 0.7960E-03   C at   34  2
       a = -3.000      CL = -0.1185
      Cm = -0.0552     CD =  0.01119   =>   CDf =  0.00638    CDp =  0.00481
 plradd ia,ip,cpol            3           0  2.05937424E-03

 Point added to stored polar  1
 Point written to save file  ag23_Re200k.base.pol                            
 Dump file unspecified or not available
 Calculating wake trajectory ...
 Calculating source influence matrix ...

 Solving BL system ...

 Side 1  free  transition at x/c =  0.9950   78
 Side 2  free  transition at x/c =  0.2928   34

   1   rms: 0.3773E+00   max: -.5812E+01   C at   34  2   RLX: 0.086
       a = -2.500      CL = -0.1111
      Cm = -0.0559     CD =  0.01105   =>   CDf =  0.00638    CDp =  0.00467

 Side 1  free  transition at x/c =  0.9944   78
 Side 2  free  transition at x/c =  0.3119   35

   2   rms: 0.2151E+00   max: -.2608E+01   C at   35  2   RLX: 0.192
       a = -2.500      CL = -0.0947
      Cm = -0.0573     CD =  0.01100   =>   CDf =  0.00634    CDp =  0.00466

 Side 1  free  transition at x/c =  0.9931   77
 Side 2  free  transition at x/c =  0.3468   37

   3   rms: 0.1932E+00   max: -.2947E+01   C at   37  2   RLX: 0.170
       a = -2.500      CL = -0.0853
      Cm = -0.0580     CD =  0.01083   =>   CDf =  0.00623    CDp =  0.00460

 Side 1  free  transition at x/c =  0.9911   77
 Side 2  free  transition at x/c =  0.3652   39

   4   rms: 0.1793E+00   max: -.2409E+01   C at   39  2   RLX: 0.208
       a = -2.500      CL = -0.0743
      Cm = -0.0589     CD =  0.01073   =>   CDf =  0.00623    CDp =  0.00451

 Side 1  free  transition at x/c =  0.9894   77
 Side 2  free  transition at x/c =  0.3824   40

   5   rms: 0.1216E+00   max: -.1416E+01   C at   40  2   RLX: 0.353
       a = -2.500      CL = -0.0597
      Cm = -0.0601     CD =  0.01067   =>   CDf =  0.00621    CDp =  0.00446

 Side 1  free  transition at x/c =  0.9871   77
 Side 2  free  transition at x/c =  0.4092   42

   6   rms: 0.1341E+00   max: -.1897E+01   C at   42  2   RLX: 0.264
       a = -2.500      CL = -0.0525
      Cm = -0.0607     CD =  0.01060   =>   CDf =  0.00613    CDp =  0.00446

 Side 1  free  transition at x/c =  0.9863   77
 Side 2  free  transition at x/c =  0.4223   43

   7   rms: 0.1045E+00   max: -.1295E+01   C at   43  2   RLX: 0.386
       a = -2.500      CL = -0.0448
      Cm = -0.0613     CD =  0.01050   =>   CDf =  0.00614    CDp =  0.00436

 Side 1  free  transition at x/c =  0.9855   77
 Side 2  free  transition at x/c =  0.4419   44

   8   rms: 0.6839E-01   max: -.8946E+00   C at   44  2   RLX: 0.559
       a = -2.500      CL = -0.0383
      Cm = -0.0617     CD =  0.01045   =>   CDf =  0.00605    CDp =  0.00440

 Side 1  free  transition at x/c =  0.9845   77
 Side 2  free  transition at x/c =  0.4712   46

   9   rms: 0.6708E-01   max: -.1071E+01   C at   46  2   RLX: 0.467
       a = -2.500      CL = -0.0366
      Cm = -0.0617     CD =  0.01036   =>   CDf =  0.00586    CDp =  0.00450

 Side 1  free  transition at x/c =  0.9842   77
 Side 2  free  transition at x/c =  0.4828   47

  10   rms: 0.4307E-01   max: -.6363E+00   C at   47  2   RLX: 0.786
       a = -2.500      CL = -0.0348
      Cm = -0.0618     CD =  0.01030   =>   CDf =  0.00585    CDp =  0.00445

 Side 1  free  transition at x/c =  0.9839   77
 Side 2  free  transition at x/c =  0.5033   49

  11   rms: 0.2920E-01   max: -.4123E+00   C at   49  2
       a = -2.500      CL = -0.0349
      Cm = -0.0616     CD =  0.01023   =>   CDf =  0.00580    CDp =  0.00443

 Side 1  free  transition at x/c =  0.9838   77
 Side 2  free  transition at x/c =  0.5163   49

  12   rms: 0.8612E-02   max: -.1177E+00   C at   49  2
       a = -2.500      CL = -0.0345
      Cm = -0.0617     CD =  0.01030   =>   CDf =  0.00569    CDp =  0.00461

 Side 1  free  transition at x/c =  0.9837   77
 Side 2  free  transition at x/c =  0.5196   50

  13   rms: 0.2149E-02   max: -.3048E-01   C at   50  2
       a = -2.500      CL = -0.0346
      Cm = -0.0617     CD =  0.01029   =>   CDf =  0.00565    CDp =  0.00465

 Side 1  free  transition at x/c =  0.9837   77
 Side 2  free  transition at x/c =  0.5192   50

  14   rms: 0.8581E-04   max: 0.1271E-02   C at   50  2
       a = -2.500      CL = -0.0346
      Cm = -0.0617     CD =  0.01029   =>   CDf =  0.00564    CDp =  0.00466
 plradd ia,ip,cpol            4           0  2.05937424E-03

 Point added to stored polar  1
 Point written to save file  ag23_Re200k.base.pol                            
 Dump file unspecified or not available
 Calculating wake trajectory ...
 Calculating source influence matrix ...

 Solving BL system ...

 Side 1  free  transition at x/c =  0.9837   77
 Side 2  free  transition at x/c =  0.5192   50

   1   rms: 0.2322E+00   max: -.2904E+01   C at   50  2   RLX: 0.172
       a = -2.000      CL = -0.0199
      Cm = -0.0627     CD =  0.01015   =>   CDf =  0.00564    CDp =  0.00451

 Side 1  free  transition at x/c =  0.9822   76
 Side 2  free  transition at x/c =  0.5420   51

   2   rms: 0.1078E+00   max: -.5999E+00   T at   51  2   RLX: 0.834
       a = -2.000      CL =  0.0252
      Cm = -0.0642     CD =  0.01018   =>   CDf =  0.00574    CDp =  0.00444

 MRCHDU: Convergence failed at  62  side 2    Res =  0.4888E+01
 MRCHDU: Convergence failed at  63  side 2    Res =  0.5531E+01
 MRCHDU: Convergence failed at  64  side 2    Res =  0.6006E+01
 MRCHDU: Convergence failed at  65  side 2    Res =  0.6199E+01
 MRCHDU: Convergence failed at  66  side 2    Res =  0.6171E+01
 MRCHDU: Convergence failed at  67  side 2    Res =  0.5995E+01
 MRCHDU: Convergence failed at  68  side 2    Res =  0.5160E+01
 MRCHDU: Convergence failed at  69  side 2    Res =  0.5023E+01
 MRCHDU: Convergence failed at  70  side 2    Res =  0.4877E+01
 MRCHDU: Convergence failed at  71  side 2    Res =  0.4725E+01
 MRCHDU: Convergence failed at  72  side 2    Res =  0.4580E+01
 MRCHDU: Convergence failed at  73  side 2    Res =  0.4448E+01
 MRCHDU: Convergence failed at  74  side 2    Res =  0.4328E+01
 MRCHDU: Convergence failed at  75  side 2    Res =  0.4212E+01
 MRCHDU: Convergence failed at  76  side 2    Res =  0.4101E+01
 MRCHDU: Convergence failed at  77  side 2    Res =  0.3987E+01
 MRCHDU: Convergence failed at  78  side 2    Res =  0.3862E+01
 MRCHDU: Convergence failed at  79  side 2    Res =  0.3717E+01
 MRCHDU: Convergence failed at  80  side 2    Res =  0.3534E+01
 MRCHDU: Convergence failed at  81  side 2    Res =  0.3316E+01
 MRCHDU: Convergence failed at  82  side 2    Res =  0.3005E+01
 MRCHDU: Convergence failed at  83  side 2    Res =  0.2829E+01
 Side 1  free  transition at x/c =  0.9636   76
 Side 2  free  transition at x/c =  0.7051   62

   3   rms: 0.1442E+00   max: 0.9899E+00   D at   50  2   RLX: 0.593
       a = -2.000      CL = -0.0065
      Cm = -0.0498     CD =  0.00965   =>   CDf =  0.00435    CDp =  0.00530

 Side 1  free  transition at x/c =  0.9603   76
 Side 2  free  transition at x/c =  0.6954   61

   4   rms: 0.5291E-01   max: 0.3697E+00   D at   50  2
       a = -2.000      CL =  0.0420
      Cm = -0.0656     CD =  0.00959   =>   CDf =  0.00527    CDp =  0.00431

 Side 1  free  transition at x/c =  0.9690   76
 Side 2  free  transition at x/c =  0.7013   61

   5   rms: 0.2111E-01   max: -.1240E+00   T at   76  1
       a = -2.000      CL =  0.0526
      Cm = -0.0677     CD =  0.00968   =>   CDf =  0.00510    CDp =  0.00458

 Side 1  free  transition at x/c =  0.9765   77
 Side 2  free  transition at x/c =  0.6870   60

   6   rms: 0.3054E-01   max: 0.2446E+00   D at   79  1
       a = -2.000      CL =  0.0447
      Cm = -0.0662     CD =  0.00969   =>   CDf =  0.00517    CDp =  0.00452

 Side 1  free  transition at x/c =  0.9703   77
 Side 2  free  transition at x/c =  0.6816   60

   7   rms: 0.1457E-02   max: -.1850E-01   D at   77  1
       a = -2.000      CL =  0.0448
      Cm = -0.0662     CD =  0.00974   =>   CDf =  0.00517    CDp =  0.00457

 Side 1  free  transition at x/c =  0.9705   77
 Side 2  free  transition at x/c =  0.6822   60

   8   rms: 0.2416E-04   max: 0.2045E-03   D at   85  2
       a = -2.000      CL =  0.0448
      Cm = -0.0662     CD =  0.00974   =>   CDf =  0.00516    CDp =  0.00457
 plradd ia,ip,cpol            5           0  2.05937424E-03

 Point added to stored polar  1
 Point written to save file  ag23_Re200k.base.pol                            
 Dump file unspecified or not available
 Calculating wake trajectory ...
 Calculating source influence matrix ...

 Solving BL system ...

 Side 1  free  transition at x/c =  0.9705   77
 Side 2  free  transition at x/c =  0.6822   60

   1   rms: 0.1572E+00   max: -.1459E+01   C at   60  2   RLX: 0.343
       a = -1.500      CL =  0.0740
      Cm = -0.0680     CD =  0.00959   =>   CDf =  0.00516    CDp =  0.00443

 Side 1  free  transition at x/c =  0.9674   76
 Side 2  free  transition at x/c =  0.7190   63

   2   rms: 0.9440E-01   max: -.1004E+01   C at   63  2   RLX: 0.498
       a = -1.500      CL =  0.0877
      Cm = -0.0670     CD =  0.00945   =>   CDf =  0.00515    CDp =  0.00431

 Side 1  free  transition at x/c =  0.9553   76
 Side 2  free  transition at x/c =  0.7438   64

   3   rms: 0.6596E-01   max: -.4219E+00   T at   64  2
       a = -1.500      CL =  0.1272
      Cm = -0.0713     CD =  0.00957   =>   CDf =  0.00522    CDp =  0.00436

 MRCHDU: Convergence failed at  68  side 2    Res =  0.1998E+01
 MRCHDU: Convergence failed at  69  side 2    Res =  0.1082E+01
 MRCHDU: Convergence failed at  70  side 2    Res =  0.1201E+01
 MRCHDU: Convergence failed at  71  side 2    Res =  0.1420E+01
 MRCHDU: Convergence failed at  72  side 2    Res =  0.1635E+01
 MRCHDU: Convergence failed at  73  side 2    Res =  0.1796E+01
 MRCHDU: Convergence failed at  74  side 2    Res =  0.1933E+01
 MRCHDU: Convergence failed at  75  side 2    Res =  0.2025E+01
 MRCHDU: Convergence failed at  76  side 2    Res =  0.2056E+01
 MRCHDU: Convergence failed at  77  side 2    Res =  0.2014E+01
 MRCHDU: Convergence failed at  78  side 2    Res =  0.1914E+01
 MRCHDU: Convergence failed at  79  side 2    Res =  0.1739E+01
 Side 1  free  transition at x/c =  0.9563   77
 Side 2 forced transition at x/c =  1.0000   82

   4   rms: 0.1059E+00   max: 0.9069E+00   D at   63  2
       a = -1.500      CL =  0.1158
      Cm = -0.0671     CD =  0.00866   =>   CDf =  0.00489    CDp =  0.00376

 Side 1  free  transition at x/c =  0.9570   77
 Side 2  free  transition at x/c =  0.8451   71

   5   rms: 0.3984E-01   max: 0.3946E+00   C at   71  2
       a = -1.500      CL =  0.1182
      Cm = -0.0687     CD =  0.00934   =>   CDf =  0.00477    CDp =  0.00457

 Side 1  free  transition at x/c =  0.9557   77
 Side 2  free  transition at x/c =  0.8080   68

   6   rms: 0.1123E-01   max: -.1317E+00   D at   74  2
       a = -1.500      CL =  0.1169
      Cm = -0.0683     CD =  0.00937   =>   CDf =  0.00488    CDp =  0.00449

 Side 1  free  transition at x/c =  0.9555   77
 Side 2  free  transition at x/c =  0.8054   68

   7   rms: 0.4408E-03   max: -.7672E-02   D at   74  2
       a = -1.500      CL =  0.1169
      Cm = -0.0683     CD =  0.00937   =>   CDf =  0.00490    CDp =  0.00447

 Side 1  free  transition at x/c =  0.9555   77
 Side 2  free  transition at x/c =  0.8054   68

   8   rms: 0.2771E-05   max: -.3166E-04   D at   74  2
       a = -1.500      CL =  0.1169
      Cm = -0.0683     CD =  0.00937   =>   CDf =  0.00490    CDp =  0.00447
 plradd ia,ip,cpol            6           0  6.40067225E-03

 Point added to stored polar  1
 Point written to save file  ag23_Re200k.base.pol                            
 Dump file unspecified or not available
 Calculating wake trajectory ...
 Calculating source influence matrix ...

 Solving BL system ...

 Side 1  free  transition at x/c =  0.9555   77
 Side 2  free  transition at x/c =  0.8054   68

   1   rms: 0.1340E+00   max: -.1041E+01   C at   68  2   RLX: 0.480
       a = -1.000      CL =  0.1513
      Cm = -0.0690     CD =  0.00915   =>   CDf =  0.00490    CDp =  0.00425

 Side 1  free  transition at x/c =  0.9504   76
 Side 2  free  transition at x/c =  0.8415   70

   2   rms: 0.5631E-01   max: -.3789E+00   T at   70  2
       a = -1.000      CL =  0.1698
      Cm = -0.0670     CD =  0.00931   =>   CDf =  0.00492    CDp =  0.00439

 MRCHDU: Convergence failed at  76  side 2    Res =  0.1467E+01
 MRCHDU: Convergence failed at  77  side 2    Res =  0.1537E+01
 MRCHDU: Convergence failed at  78  side 2    Res =  0.2005E+01
 MRCHDU: Convergence failed at  79  side 2    Res =  0.2447E+01
 Side 1  free  transition at x/c =  0.9263   74
 Side 2  free  transition at x/c =  0.9145   76

   3   rms: 0.5115E-01   max: -.3591E+00   D at   79  2
       a = -1.000      CL =  0.1859
      Cm = -0.0688     CD =  0.00906   =>   CDf =  0.00470    CDp =  0.00436

 Side 1  free  transition at x/c =  0.9473   76
 Side 2  free  transition at x/c =  0.9011   75

   4   rms: 0.4882E-01   max: 0.3599E+00   C at   76  1
       a = -1.000      CL =  0.1797
      Cm = -0.0678     CD =  0.00882   =>   CDf =  0.00482    CDp =  0.00401

 Side 1  free  transition at x/c =  0.9405   75
 Side 2  free  transition at x/c =  0.9039   75

   5   rms: 0.2511E-01   max: 0.1559E+00   T at   75  1
       a = -1.000      CL =  0.1636
      Cm = -0.0647     CD =  0.00907   =>   CDf =  0.00480    CDp =  0.00427

 Side 1  free  transition at x/c =  0.9291   75
 Side 2  free  transition at x/c =  0.9037   75

   6   rms: 0.1527E-01   max: -.1182E+00   D at   77  1
       a = -1.000      CL =  0.1689
      Cm = -0.0657     CD =  0.00902   =>   CDf =  0.00478    CDp =  0.00425

 Side 1  free  transition at x/c =  0.9328   75
 Side 2  free  transition at x/c =  0.9035   75

   7   rms: 0.1449E-02   max: -.1306E-01   D at   76  1
       a = -1.000      CL =  0.1690
      Cm = -0.0657     CD =  0.00903   =>   CDf =  0.00478    CDp =  0.00425

 Side 1  free  transition at x/c =  0.9331   75
 Side 2  free  transition at x/c =  0.9035   75

   8   rms: 0.1362E-04   max: 0.9601E-04   D at   77  1
       a = -1.000      CL =  0.1690
      Cm = -0.0657     CD =  0.00903   =>   CDf =  0.00478    CDp =  0.00425
 plradd ia,ip,cpol            7           0  0.19960940    

 Point added to stored polar  1
 Point written to save file  ag23_Re200k.base.pol                            
 Dump file unspecified or not available
 Calculating wake trajectory ...
 Calculating source influence matrix ...

 Solving BL system ...

 Side 1  free  transition at x/c =  0.9331   75
 Side 2  free  transition at x/c =  0.9035   75

   1   rms: 0.1228E+00   max: -.1252E+01   C at   75  2   RLX: 0.399
       a = -0.500      CL =  0.1903
      Cm = -0.0645     CD =  0.00882   =>   CDf =  0.00479    CDp =  0.00403

 Side 1  free  transition at x/c =  0.9250   74
 Side 2  free  transition at x/c =  0.9342   77

   2   rms: 0.8337E-01   max: -.9810E+00   C at   77  2   RLX: 0.510
       a = -0.500      CL =  0.2057
      Cm = -0.0641     CD =  0.00881   =>   CDf =  0.00480    CDp =  0.00401

 Side 1  free  transition at x/c =  0.9137   74
 Side 2  free  transition at x/c =  0.9660   79

   3   rms: 0.9215E-01   max: -.1200E+01   C at   79  2   RLX: 0.417
       a = -0.500      CL =  0.2245
      Cm = -0.0663     CD =  0.00885   =>   CDf =  0.00488    CDp =  0.00396

 Side 1  free  transition at x/c =  0.9142   75
 Side 2  free  transition at x/c =  0.9772   79

   4   rms: 0.8015E-01   max: -.1114E+01   C at   79  2   RLX: 0.449
       a = -0.500      CL =  0.2378
      Cm = -0.0683     CD =  0.00876   =>   CDf =  0.00483    CDp =  0.00393

 Side 1  free  transition at x/c =  0.9145   75
 Side 2  free  transition at x/c =  0.9867   80

   5   rms: 0.6377E-01   max: -.1084E+01   C at   80  2   RLX: 0.461
       a = -0.500      CL =  0.2456
      Cm = -0.0694     CD =  0.00871   =>   CDf =  0.00485    CDp =  0.00387

 Side 1  free  transition at x/c =  0.9145   75
 Side 2  free  transition at x/c =  0.9962   81

   6   rms: 0.7998E-01   max: -.1825E+01   C at   81  2   RLX: 0.274
       a = -0.500      CL =  0.2472
      Cm = -0.0696     CD =  0.00872   =>   CDf =  0.00486    CDp =  0.00386

 Side 1  free  transition at x/c =  0.9142   75
 Side 2 forced transition at x/c =  1.0000   81

   7   rms: 0.1911E-01   max: -.2625E+00   C at   81  2
       a = -0.500      CL =  0.2442
      Cm = -0.0685     CD =  0.00861   =>   CDf =  0.00486    CDp =  0.00375

 Side 1  free  transition at x/c =  0.9134   75
 Side 2 forced transition at x/c =  1.0000   81

   8   rms: 0.2407E-02   max: 0.3025E-01   C at   81  2
       a = -0.500      CL =  0.2446
      Cm = -0.0685     CD =  0.00861   =>   CDf =  0.00490    CDp =  0.00371

 Side 1  free  transition at x/c =  0.9135   75
 Side 2 forced transition at x/c =  1.0000   81

   9   rms: 0.4593E-04   max: 0.5320E-03   C at   81  2
       a = -0.500      CL =  0.2446
      Cm = -0.0685     CD =  0.00861   =>   CDf =  0.00489    CDp =  0.00372
 plradd ia,ip,cpol            8           0  0.17232458    

 Point added to stored polar  1
 Point written to save file  ag23_Re200k.base.pol                            
 Dump file unspecified or not available
 Calculating wake trajectory ...
 Calculating source influence matrix ...

 Solving BL system ...

 Side 1  free  transition at x/c =  0.9135   75
 Side 2 forced transition at x/c =  1.0000   81

   1   rms: 0.1047E+00   max: -.2100E+00   n at   80  2
       a =  0.000      CL =  0.3122
      Cm = -0.0703     CD =  0.00841   =>   CDf =  0.00490    CDp =  0.00351

 Side 1  free  transition at x/c =  0.8945   73
 Side 2 forced transition at x/c =  1.0000   81

   2   rms: 0.2302E-01   max: -.1649E+00   C at   81  2
       a =  0.000      CL =  0.2996
      Cm = -0.0681     CD =  0.00854   =>   CDf =  0.00508    CDp =  0.00345

 Side 1  free  transition at x/c =  0.8823   72
 Side 2 forced transition at x/c =  1.0000   81

   3   rms: 0.8741E-02   max: -.9522E-01   D at   74  1
       a =  0.000      CL =  0.3008
      Cm = -0.0681     CD =  0.00850   =>   CDf =  0.00510    CDp =  0.00340

 Side 1  free  transition at x/c =  0.8861   73
 Side 2 forced transition at x/c =  1.0000   81

   4   rms: 0.1551E-02   max: -.2698E-01   D at   72  1
       a =  0.000      CL =  0.3005
      Cm = -0.0681     CD =  0.00851   =>   CDf =  0.00510    CDp =  0.00341

 Side 1  free  transition at x/c =  0.8856   73
 Side 2 forced transition at x/c =  1.0000   81

   5   rms: 0.1232E-03   max: 0.1047E-02   D at   74  1
       a =  0.000      CL =  0.3005
      Cm = -0.0681     CD =  0.00851   =>   CDf =  0.00509    CDp =  0.00342

 Side 1  free  transition at x/c =  0.8856   73
 Side 2 forced transition at x/c =  1.0000   81

   6   rms: 0.1050E-05   max: -.8350E-05   D at    6  2
       a =  0.000      CL =  0.3005
      Cm = -0.0681     CD =  0.00851   =>   CDf =  0.00509    CDp =  0.00342
 plradd ia,ip,cpol            9           0  0.15877970    

 Point added to stored polar  1
 Point written to save file  ag23_Re200k.base.pol                            
 Dump file unspecified or not available
 Calculating wake trajectory ...
 Calculating source influence matrix ...

 Solving BL system ...

 Side 1  free  transition at x/c =  0.8856   73
 Side 2 forced transition at x/c =  1.0000   81

   1   rms: 0.9692E-01   max: -.1511E+00   C at   81  2
       a =  0.500      CL =  0.3586
      Cm = -0.0675     CD =  0.00837   =>   CDf =  0.00513    CDp =  0.00324

 Side 1  free  transition at x/c =  0.8632   72
 Side 2 forced transition at x/c =  1.0000   80

   2   rms: 0.2399E-01   max: -.2025E+00   D at   73  1
       a =  0.500      CL =  0.3534
      Cm = -0.0669     CD =  0.00846   =>   CDf =  0.00522    CDp =  0.00323

 Side 1  free  transition at x/c =  0.8534   71
 Side 2 forced transition at x/c =  1.0000   80

   3   rms: 0.4684E-02   max: -.4741E-01   D at   71  1
       a =  0.500      CL =  0.3538
      Cm = -0.0669     CD =  0.00849   =>   CDf =  0.00529    CDp =  0.00320

 Side 1  free  transition at x/c =  0.8544   71
 Side 2 forced transition at x/c =  1.0000   80

   4   rms: 0.3001E-03   max: 0.3298E-02   D at   72  1
       a =  0.500      CL =  0.3537
      Cm = -0.0669     CD =  0.00849   =>   CDf =  0.00528    CDp =  0.00322

 Side 1  free  transition at x/c =  0.8542   71
 Side 2 forced transition at x/c =  1.0000   80

   5   rms: 0.2538E-05   max: -.2438E-04   D at   72  1
       a =  0.500      CL =  0.3537
      Cm = -0.0669     CD =  0.00849   =>   CDf =  0.00528    CDp =  0.00322
 plradd ia,ip,cpol           10           0  0.13194405    

 Point added to stored polar  1
 Point written to save file  ag23_Re200k.base.pol                            
 Dump file unspecified or not available
 Calculating wake trajectory ...
 Calculating source influence matrix ...

 Solving BL system ...

 Side 1  free  transition at x/c =  0.8542   71
 Side 2 forced transition at x/c =  1.0000   80

   1   rms: 0.8649E-01   max: -.2224E+00   C at   80  2
       a =  1.000      CL =  0.4055
      Cm = -0.0659     CD =  0.00860   =>   CDf =  0.00528    CDp =  0.00332

 Side 1  free  transition at x/c =  0.8128   68
 Side 2 forced transition at x/c =  1.0000   80

   2   rms: 0.3300E-01   max: -.4057E+00   D at   70  1
       a =  1.000      CL =  0.4068
      Cm = -0.0654     CD =  0.00853   =>   CDf =  0.00550    CDp =  0.00304

 Side 1  free  transition at x/c =  0.8253   69
 Side 2 forced transition at x/c =  1.0000   80

   3   rms: 0.1650E-01   max: 0.1653E+00   C at   69  1
       a =  1.000      CL =  0.4070
      Cm = -0.0657     CD =  0.00849   =>   CDf =  0.00540    CDp =  0.00310

 Side 1  free  transition at x/c =  0.8210   69
 Side 2 forced transition at x/c =  1.0000   80

   4   rms: 0.2795E-02   max: -.2590E-01   D at   74  1
       a =  1.000      CL =  0.4068
      Cm = -0.0657     CD =  0.00853   =>   CDf =  0.00543    CDp =  0.00310

 Side 1  free  transition at x/c =  0.8197   69
 Side 2 forced transition at x/c =  1.0000   80

   5   rms: 0.1124E-03   max: -.1246E-02   D at   70  1
       a =  1.000      CL =  0.4068
      Cm = -0.0657     CD =  0.00853   =>   CDf =  0.00545    CDp =  0.00309

 Side 1  free  transition at x/c =  0.8197   69
 Side 2 forced transition at x/c =  1.0000   80

   6   rms: 0.1451E-05   max: -.1175E-04   T at   69  1
       a =  1.000      CL =  0.4068
      Cm = -0.0657     CD =  0.00853   =>   CDf =  0.00545    CDp =  0.00309
 plradd ia,ip,cpol           11           0  0.11869401    

 Point added to stored polar  1
 Point written to save file  ag23_Re200k.base.pol                            
 Dump file unspecified or not available
 Calculating wake trajectory ...
 Calculating source influence matrix ...

 Solving BL system ...

 Side 1  free  transition at x/c =  0.8197   69
 Side 2 forced transition at x/c =  1.0000   80

   1   rms: 0.8931E-01   max: -.1506E+00   C at   80  2
       a =  1.500      CL =  0.4600
      Cm = -0.0643     CD =  0.00859   =>   CDf =  0.00542    CDp =  0.00317

 Side 1  free  transition at x/c =  0.7846   67
 Side 2 forced transition at x/c =  1.0000   79

   2   rms: 0.2749E-01   max: -.3321E+00   D at   69  1
       a =  1.500      CL =  0.4600
      Cm = -0.0645     CD =  0.00859   =>   CDf =  0.00558    CDp =  0.00301

 Side 1  free  transition at x/c =  0.7835   67
 Side 2 forced transition at x/c =  1.0000   79

   3   rms: 0.2733E-02   max: 0.2737E-01   D at   68  1
       a =  1.500      CL =  0.4601
      Cm = -0.0645     CD =  0.00865   =>   CDf =  0.00561    CDp =  0.00304

 Side 1  free  transition at x/c =  0.7819   67
 Side 2 forced transition at x/c =  1.0000   79

   4   rms: 0.9927E-04   max: -.9784E-03   C at   67  1
       a =  1.500      CL =  0.4601
      Cm = -0.0645     CD =  0.00865   =>   CDf =  0.00561    CDp =  0.00303
 plradd ia,ip,cpol           12           0  9.26647857E-02

 Point added to stored polar  1
 Point written to save file  ag23_Re200k.base.pol                            
 Dump file unspecified or not available
 Calculating wake trajectory ...
 Calculating source influence matrix ...

 Solving BL system ...

 Side 1  free  transition at x/c =  0.7819   67
 Side 2 forced transition at x/c =  1.0000   79

   1   rms: 0.8650E-01   max: -.1520E+00   C at   79  2
       a =  2.000      CL =  0.5135
      Cm = -0.0637     CD =  0.00880   =>   CDf =  0.00562    CDp =  0.00318

 Side 1  free  transition at x/c =  0.7363   64
 Side 2 forced transition at x/c =  1.0000   79

   2   rms: 0.3477E-01   max: -.4228E+00   D at   66  1
       a =  2.000      CL =  0.5135
      Cm = -0.0634     CD =  0.00877   =>   CDf =  0.00582    CDp =  0.00296

 Side 1  free  transition at x/c =  0.7431   64
 Side 2 forced transition at x/c =  1.0000   79

   3   rms: 0.4627E-02   max: 0.5148E-01   D at   65  1
       a =  2.000      CL =  0.5136
      Cm = -0.0635     CD =  0.00883   =>   CDf =  0.00577    CDp =  0.00306

 Side 1  free  transition at x/c =  0.7398   64
 Side 2 forced transition at x/c =  1.0000   79

   4   rms: 0.4177E-03   max: -.4355E-02   C at   64  1
       a =  2.000      CL =  0.5135
      Cm = -0.0635     CD =  0.00883   =>   CDf =  0.00579    CDp =  0.00304

 Side 1  free  transition at x/c =  0.7400   64
 Side 2 forced transition at x/c =  1.0000   79

   5   rms: 0.1481E-05   max: -.7671E-05   D at   81  1
       a =  2.000      CL =  0.5135
      Cm = -0.0635     CD =  0.00883   =>   CDf =  0.00579    CDp =  0.00304
 plradd ia,ip,cpol           13           0  7.99627751E-02

 Point added to stored polar  1
 Point written to save file  ag23_Re200k.base.pol                            
 Dump file unspecified or not available
 Calculating wake trajectory ...
 Calculating source influence matrix ...

 Solving BL system ...

 Side 1  free  transition at x/c =  0.7400   64
 Side 2 forced transition at x/c =  1.0000   79

   1   rms: 0.8733E-01   max: -.1354E+00   C at   79  2
       a =  2.500      CL =  0.5673
      Cm = -0.0627     CD =  0.00903   =>   CDf =  0.00568    CDp =  0.00335

 Side 1  free  transition at x/c =  0.6900   62
 Side 2 forced transition at x/c =  1.0000   78

   2   rms: 0.2467E-01   max: -.3554E+00   D at   63  1
       a =  2.500      CL =  0.5665
      Cm = -0.0624     CD =  0.00916   =>   CDf =  0.00606    CDp =  0.00311

 Side 1  free  transition at x/c =  0.6953   62
 Side 2 forced transition at x/c =  1.0000   78

   3   rms: 0.5252E-02   max: 0.5511E-01   C at   62  1
       a =  2.500      CL =  0.5670
      Cm = -0.0625     CD =  0.00909   =>   CDf =  0.00593    CDp =  0.00316

 Side 1  free  transition at x/c =  0.6936   62
 Side 2 forced transition at x/c =  1.0000   78

   4   rms: 0.9438E-04   max: -.9928E-03   D at   62  1
       a =  2.500      CL =  0.5670
      Cm = -0.0625     CD =  0.00909   =>   CDf =  0.00595    CDp =  0.00314
 plradd ia,ip,cpol           14           0  6.75479695E-02

 Point added to stored polar  1
 Point written to save file  ag23_Re200k.base.pol                            
 Dump file unspecified or not available
 Calculating wake trajectory ...
 Calculating source influence matrix ...

 Solving BL system ...

 Side 1  free  transition at x/c =  0.6936   62
 Side 2 forced transition at x/c =  1.0000   78

   1   rms: 0.9313E-01   max: -.1154E+00   C at   78  2
       a =  3.000      CL =  0.6202
      Cm = -0.0615     CD =  0.00941   =>   CDf =  0.00595    CDp =  0.00346

 Side 1  free  transition at x/c =  0.6455   58
 Side 2 forced transition at x/c =  1.0000   78

   2   rms: 0.2601E-01   max: -.3541E+00   D at   60  1
       a =  3.000      CL =  0.6199
      Cm = -0.0616     CD =  0.00953   =>   CDf =  0.00617    CDp =  0.00336

 Side 1  free  transition at x/c =  0.6440   58
 Side 2 forced transition at x/c =  1.0000   78

   3   rms: 0.4006E-02   max: 0.5453E-01   D at   62  1
       a =  3.000      CL =  0.6203
      Cm = -0.0616     CD =  0.00945   =>   CDf =  0.00614    CDp =  0.00331

 Side 1  free  transition at x/c =  0.6438   58
 Side 2 forced transition at x/c =  1.0000   78

   4   rms: 0.7795E-04   max: -.1473E-02   D at   62  1
       a =  3.000      CL =  0.6203
      Cm = -0.0616     CD =  0.00945   =>   CDf =  0.00614    CDp =  0.00331
 plradd ia,ip,cpol           15           0  4.40112017E-02

 Point added to stored polar  1
 Point written to save file  ag23_Re200k.base.pol                            
 Dump file unspecified or not available
 Calculating wake trajectory ...
 Calculating source influence matrix ...

 Solving BL system ...

 Side 1  free  transition at x/c =  0.6437   58
 Side 2 forced transition at x/c =  1.0000   78

   1   rms: 0.8869E-01   max: -.1202E+00   C at   78  2
       a =  3.500      CL =  0.6742
      Cm = -0.0612     CD =  0.00977   =>   CDf =  0.00595    CDp =  0.00382

 Side 1  free  transition at x/c =  0.5857   55
 Side 2 forced transition at x/c =  1.0000   77

   2   rms: 0.3231E-01   max: -.4447E+00   D at   57  1
       a =  3.500      CL =  0.6723
      Cm = -0.0607     CD =  0.01002   =>   CDf =  0.00646    CDp =  0.00356

 Side 1  free  transition at x/c =  0.5916   56
 Side 2 forced transition at x/c =  1.0000   77

   3   rms: 0.5966E-02   max: 0.8919E-01   D at   59  1
       a =  3.500      CL =  0.6732
      Cm = -0.0608     CD =  0.00990   =>   CDf =  0.00634    CDp =  0.00356

 Side 1  free  transition at x/c =  0.5911   56
 Side 2 forced transition at x/c =  1.0000   77

   4   rms: 0.4286E-03   max: -.7042E-02   D at   59  1
       a =  3.500      CL =  0.6732
      Cm = -0.0608     CD =  0.00990   =>   CDf =  0.00631    CDp =  0.00360

 Side 1  free  transition at x/c =  0.5910   56
 Side 2 forced transition at x/c =  1.0000   77

   5   rms: 0.2238E-05   max: -.4112E-04   D at   59  1
       a =  3.500      CL =  0.6732
      Cm = -0.0608     CD =  0.00991   =>   CDf =  0.00631    CDp =  0.00359
 plradd ia,ip,cpol           16           0  3.33002992E-02

 Point added to stored polar  1
 Point written to save file  ag23_Re200k.base.pol                            
 Dump file unspecified or not available
 Calculating wake trajectory ...
 Calculating source influence matrix ...

 Solving BL system ...

 Side 1  free  transition at x/c =  0.5910   56
 Side 2 forced transition at x/c =  1.0000   77

   1   rms: 0.1037E+00   max: 0.7181E+00   C at   56  1   RLX: 0.956
       a =  4.000      CL =  0.7228
      Cm = -0.0598     CD =  0.01054   =>   CDf =  0.00631    CDp =  0.00423

 Side 1  free  transition at x/c =  0.5434   52
 Side 2 forced transition at x/c =  1.0000   77

   2   rms: 0.3056E-01   max: 0.3357E+00   D at   55  1
       a =  4.000      CL =  0.7260
      Cm = -0.0601     CD =  0.01035   =>   CDf =  0.00645    CDp =  0.00390

 Side 1  free  transition at x/c =  0.5368   52
 Side 2 forced transition at x/c =  1.0000   77

   3   rms: 0.2718E-02   max: -.4139E-01   D at   55  1
       a =  4.000      CL =  0.7258
      Cm = -0.0600     CD =  0.01044   =>   CDf =  0.00646    CDp =  0.00398

 Side 1  free  transition at x/c =  0.5362   52
 Side 2 forced transition at x/c =  1.0000   77

   4   rms: 0.5859E-04   max: -.1246E-02   D at   55  1
       a =  4.000      CL =  0.7258
      Cm = -0.0600     CD =  0.01044   =>   CDf =  0.00647    CDp =  0.00397
 plradd ia,ip,cpol           17           0  1.62067153E-02

 Point added to stored polar  1
 Point written to save file  ag23_Re200k.base.pol                            
 Dump file unspecified or not available
 Calculating wake trajectory ...
 Calculating source influence matrix ...

 Solving BL system ...

 Side 1  free  transition at x/c =  0.5362   52
 Side 2 forced transition at x/c =  1.0000   77

   1   rms: 0.1043E+00   max: 0.7490E+00   C at   52  1   RLX: 0.954
       a =  4.500      CL =  0.7748
      Cm = -0.0591     CD =  0.01115   =>   CDf =  0.00620    CDp =  0.00496

 Side 1  free  transition at x/c =  0.4860   49
 Side 2 forced transition at x/c =  1.0000   76

   2   rms: 0.3353E-01   max: 0.3460E+00   D at   52  1
       a =  4.500      CL =  0.7780
      Cm = -0.0593     CD =  0.01099   =>   CDf =  0.00662    CDp =  0.00437

 Side 1  free  transition at x/c =  0.4815   49
 Side 2 forced transition at x/c =  1.0000   76

   3   rms: 0.4261E-02   max: -.5720E-01   D at   52  1
       a =  4.500      CL =  0.7778
[...]
       a = 15.000      CL =  0.6046
      Cm = -0.0536     CD =  6.49268   =>   CDf =  0.00310    CDp =  6.48958

 Side 1  free  transition at x/c =  0.0528   19
 Side 2 forced transition at x/c =  1.0000   74

  59   rms: 0.7562E+02   max: -.9207E+03   C at   96  2   RLX: 0.001
       a = 15.000      CL =  0.6046
      Cm = -0.0536     CD =  6.49781   =>   CDf =  0.00310    CDp =  6.49471

 Side 1  free  transition at x/c =  0.0528   19
 Side 2 forced transition at x/c =  1.0000   74

  60   rms: 0.8500E+02   max: -.1035E+04   C at   96  2   RLX: 0.000
       a = 15.000      CL =  0.6046
      Cm = -0.0536     CD =  6.50215   =>   CDf =  0.00310    CDp =  6.49905

 Side 1  free  transition at x/c =  0.0528   19
 Side 2 forced transition at x/c =  1.0000   74

  61   rms: 0.9372E+02   max: -.1140E+04   C at   96  2   RLX: 0.000
       a = 15.000      CL =  0.6046
      Cm = -0.0536     CD =  6.50689   =>   CDf =  0.00310    CDp =  6.50379

 Side 1  free  transition at x/c =  0.0528   19
 Side 2 forced transition at x/c =  1.0000   74

  62   rms: 0.1029E+03   max: -.1252E+04   C at   96  2   RLX: 0.000
       a = 15.000      CL =  0.6047
      Cm = -0.0536     CD =  6.51133   =>   CDf =  0.00310    CDp =  6.50823

 Side 1  free  transition at x/c =  0.0528   19
 Side 2 forced transition at x/c =  1.0000   74

  63   rms: 0.1135E+03   max: -.1381E+04   C at   96  2   RLX: 0.000
       a = 15.000      CL =  0.6047
      Cm = -0.0536     CD =  6.51544   =>   CDf =  0.00310    CDp =  6.51234

 Side 1  free  transition at x/c =  0.0528   19
 Side 2 forced transition at x/c =  1.0000   74

  64   rms: 0.1260E+03   max: -.1532E+04   C at   96  2   RLX: 0.000
       a = 15.000      CL =  0.6047
      Cm = -0.0536     CD =  6.51847   =>   CDf =  0.00310    CDp =  6.51537

 MRCHDU: Convergence failed at  94  side 2    Res =  0.7407E-02
 MRCHDU: Convergence failed at  95  side 2    Res =  0.2243E-01
 MRCHDU: Convergence failed at  96  side 2    Res =  0.3259E-02
 Side 1  free  transition at x/c =  0.0528   19
 Side 2 forced transition at x/c =  1.0000   74

  65   rms: 0.1365E+03   max: -.1660E+04   C at   96  2   RLX: 0.000
       a = 15.000      CL =  0.6047
      Cm = -0.0536     CD =  6.52165   =>   CDf =  0.00310    CDp =  6.51855

 MRCHDU: Convergence failed at  94  side 2    Res =  0.5936E-01
 MRCHDU: Convergence failed at  95  side 2    Res =  0.2242E-01
 MRCHDU: Convergence failed at  96  side 2    Res =  0.3263E-02
 Side 1  free  transition at x/c =  0.0528   19
 Side 2 forced transition at x/c =  1.0000   74

  66   rms: 0.1471E+03   max: -.1789E+04   C at   96  2   RLX: 0.000
       a = 15.000      CL =  0.6047
      Cm = -0.0536     CD =  6.52402   =>   CDf =  0.00310    CDp =  6.52092

 MRCHDU: Convergence failed at  94  side 2    Res =  0.1112E+00
 MRCHDU: Convergence failed at  95  side 2    Res =  0.1012E-01
 MRCHDU: Convergence failed at  96  side 2    Res =  0.3267E-02
 Side 1  free  transition at x/c =  0.0528   19
 Side 2 forced transition at x/c =  1.0000   74

  67   rms: 0.1621E+03   max: -.1973E+04   C at   96  2   RLX: 0.000
       a = 15.000      CL =  0.6047
      Cm = -0.0536     CD =  6.52601   =>   CDf =  0.00310    CDp =  6.52291

 MRCHDU: Convergence failed at  93  side 2    Res =  0.3923E-01
 MRCHDU: Convergence failed at  94  side 2    Res =  0.1238E+00
 MRCHDU: Convergence failed at  95  side 2    Res =  0.2245E-01
 MRCHDU: Convergence failed at  96  side 2    Res =  0.3270E-02
 Side 1  free  transition at x/c =  0.0528   19
 Side 2 forced transition at x/c =  1.0000   74

  68   rms: 0.1756E+03   max: -.2136E+04   C at   96  2   RLX: 0.000
       a = 15.000      CL =  0.6047
      Cm = -0.0536     CD =  6.52839   =>   CDf =  0.00310    CDp =  6.52529

 MRCHDU: Convergence failed at  93  side 2    Res =  0.9070E-01
 MRCHDU: Convergence failed at  94  side 2    Res =  0.1240E+00
 MRCHDU: Convergence failed at  95  side 2    Res =  0.2244E-01
 MRCHDU: Convergence failed at  96  side 2    Res =  0.3272E-02
 Side 1  free  transition at x/c =  0.0528   19
 Side 2 forced transition at x/c =  1.0000   74

  69   rms: 0.1895E+03   max: -.2306E+04   C at   96  2   RLX: 0.000
       a = 15.000      CL =  0.6048
      Cm = -0.0536     CD =  6.53129   =>   CDf =  0.00310    CDp =  6.52819

 MRCHDU: Convergence failed at  92  side 2    Res =  0.2517E-01
 MRCHDU: Convergence failed at  93  side 2    Res =  0.1169E+00
 MRCHDU: Convergence failed at  94  side 2    Res =  0.1381E+00
 MRCHDU: Convergence failed at  95  side 2    Res =  0.1940E-01
 MRCHDU: Convergence failed at  96  side 2    Res =  0.3275E-02
 Side 1  free  transition at x/c =  0.0528   19
 Side 2 forced transition at x/c =  1.0000   74

  70   rms: 0.2048E+03   max: -.2494E+04   C at   96  2   RLX: 0.000
       a = 15.000      CL =  0.6048
      Cm = -0.0536     CD =  6.45349   =>   CDf =  0.00310    CDp =  6.45039

 MRCHDU: Convergence failed at  92  side 2    Res =  0.7624E-01
 MRCHDU: Convergence failed at  93  side 2    Res =  0.1378E+00
 MRCHDU: Convergence failed at  94  side 2    Res =  0.1629E+00
 MRCHDU: Convergence failed at  95  side 2    Res =  0.1940E-01
 MRCHDU: Convergence failed at  96  side 2    Res =  0.3277E-02
 Side 1  free  transition at x/c =  0.0528   19
 Side 2 forced transition at x/c =  1.0000   74

  71   rms: 0.2207E+03   max: -.2687E+04   C at   96  2   RLX: 0.000
       a = 15.000      CL =  0.6048
      Cm = -0.0536     CD =  6.45524   =>   CDf =  0.00310    CDp =  6.45214

 MRCHDU: Convergence failed at  92  side 2    Res =  0.1272E+00
 MRCHDU: Convergence failed at  93  side 2    Res =  0.6390E+00
 MRCHDU: Convergence failed at  94  side 2    Res =  0.1448E+01
 Side 1  free  transition at x/c =  0.0528   19
 Side 2 forced transition at x/c =  1.0000   74

  72   rms: 0.1943E+00   max: -.2083E+01   T at   96  2   RLX: 0.240
       a = 15.000      CL =  0.6185
      Cm = -0.0540     CD = 36.06298   =>   CDf =  0.00310    CDp = 36.05988

 Side 1  free  transition at x/c =  0.0537   19
 Side 2 forced transition at x/c =  1.0000   74

  73   rms: 0.1861E+00   max: -.2083E+01   T at   96  2   RLX: 0.240
       a = 15.000      CL =  0.6343
      Cm = -0.0543     CD =232.13107   =>   CDf =  0.00309    CDp =232.12799

 Side 1  free  transition at x/c =  0.0542   19
 Side 2 forced transition at x/c =  1.0000   74

  74   rms: 0.1812E+00   max: -.2614E+01   T at   96  2   RLX: 0.191
       a = 15.000      CL =  0.6457
      Cm = -0.0544     CD =*********   =>   CDf =  0.00307    CDp =*********

 Side 1  free  transition at x/c =  0.0543   19
 Side 2 forced transition at x/c =  1.0000   74

  75   rms: 0.1980E+00   max: -.3583E+01   T at   96  2   RLX: 0.140
       a = 15.000      CL =  0.6523
      Cm = -0.0540     CD =*********   =>   CDf =  0.00306    CDp =*********

 Side 1  free  transition at x/c =  0.0543   19
 Side 2 forced transition at x/c =  1.0000   74

  76   rms: 0.2383E+00   max: -.4826E+01   T at   96  2   RLX: 0.104
       a = 15.000      CL =  0.6582
      Cm = -0.0542     CD =*********   =>   CDf =  0.00305    CDp =*********

 Side 1  free  transition at x/c =  0.0544   19
 Side 2 forced transition at x/c =  1.0000   74

  77   rms: 0.2914E+00   max: -.6268E+01   T at   96  2   RLX: 0.080
       a = 15.000      CL =  0.6636
      Cm = -0.0546     CD =*********   =>   CDf =  0.00305    CDp =*********

 Side 1  free  transition at x/c =  0.0543   19
 Side 2 forced transition at x/c =  1.0000   74

  78   rms: 0.2257E+00   max: -.4233E+01   T at   96  2   RLX: 0.118
       a = 15.000      CL =  0.6715
      Cm = -0.0555     CD =+Infinity   =>   CDf =  0.00305    CDp =+Infinity

 Side 1  free  transition at x/c =  0.0543   19
 Side 2 forced transition at x/c =  1.0000   74

  79   rms: 0.2180E+00   max: -.3345E+01   T at   96  2   RLX: 0.149
       a = 15.000      CL =  0.6801
      Cm = -0.0564     CD =+Infinity   =>   CDf =  0.00305    CDp =+Infinity

 MRCHDU: Convergence failed at  95  side 2    Res =  0.2218E-02
 MRCHDU: Convergence failed at  96  side 2    Res =  0.3151E-03
 Side 1  free  transition at x/c =  0.0542   19
 Side 2 forced transition at x/c =  1.0000   74

  80   rms: 0.2085E+00   max: -.4376E+01   T at   96  2   RLX: 0.114
       a = 15.000      CL =  0.6854
      Cm = -0.0570     CD =+Infinity   =>   CDf =  0.00305    CDp =+Infinity

 Side 1  free  transition at x/c =  0.0542   19
 Side 2 forced transition at x/c =  1.0000   74

  81   rms: 0.1953E+00   max: -.3794E+01   T at   96  2   RLX: 0.132
       a = 15.000      CL =  0.6914
      Cm = -0.0579     CD =+Infinity   =>   CDf =  0.00305    CDp =+Infinity

 Side 1  free  transition at x/c =  0.0541   19
 Side 2 forced transition at x/c =  1.0000   74

  82   rms: 0.1671E+00   max: -.2495E+01   T at   96  2   RLX: 0.200
       a = 15.000      CL =  0.7002
      Cm = -0.0593     CD =+Infinity   =>   CDf =  0.00305    CDp =+Infinity

 Side 1  free  transition at x/c =  0.0538   19
 Side 2 forced transition at x/c =  1.0000   74

  83   rms: 0.1333E+00   max: 0.1780E+01   T at   95  2   RLX: 0.387
       a = 15.000      CL =  0.7151
      Cm = -0.0625     CD =+Infinity   =>   CDf =  0.00305    CDp =+Infinity

 Side 1  free  transition at x/c =  0.0523   19
 Side 2 forced transition at x/c =  1.0000   74

  84   rms: 0.9577E-01   max: 0.1390E+01   T at   95  2   RLX: 0.510
       a = 15.000      CL =  0.7331
      Cm = -0.0670     CD =+Infinity   =>   CDf =  0.00305    CDp =+Infinity

 Side 1  free  transition at x/c =  0.0507   19
 Side 2 forced transition at x/c =  1.0000   74

  85   rms: 0.6288E-01   max: -.9673E+00   D at   96  2   RLX: 0.517
       a = 15.000      CL =  0.7445
      Cm = -0.0696     CD =*********   =>   CDf =  0.00306    CDp =*********

 Side 1  free  transition at x/c =  0.0503   19
 Side 2 forced transition at x/c =  1.0000   74

  86   rms: 0.6991E-01   max: 0.1269E+01   T at   96  2   RLX: 0.521
       a = 15.000      CL =  0.7507
      Cm = -0.0704     CD =*********   =>   CDf =  0.00306    CDp =*********

 Side 1  free  transition at x/c =  0.0500   19
 Side 2 forced transition at x/c =  1.0000   74

  87   rms: 0.1520E+00   max: 0.3856E+01   T at   96  2   RLX: 0.389
       a = 15.000      CL =  0.7614
      Cm = -0.0718     CD =  0.32751   =>   CDf =  0.00307    CDp =  0.32444

 MRCHDU: Convergence failed at  19  side 1    Res =  0.3135E-04
 Side 1  free  transition at x/c =  0.0496   19
 Side 2 forced transition at x/c =  1.0000   74

  88   rms: 0.1051E+00   max: 0.2235E+01   T at   96  2   RLX: 0.420
       a = 15.000      CL =  0.7729
      Cm = -0.0734     CD =  0.14636   =>   CDf =  0.00308    CDp =  0.14328

 Side 1  free  transition at x/c =  0.0492   19
 Side 2 forced transition at x/c =  1.0000   74

  89   rms: 0.6009E-01   max: 0.1245E+01   T at   96  2   RLX: 0.534
       a = 15.000      CL =  0.7767
      Cm = -0.0739     CD =  0.15458   =>   CDf =  0.00308    CDp =  0.15149

 Side 1  free  transition at x/c =  0.0490   19
 Side 2 forced transition at x/c =  1.0000   74

  90   rms: 0.3936E-01   max: -.8623E+00   D at   96  2   RLX: 0.580
       a = 15.000      CL =  0.7654
      Cm = -0.0724     CD =  0.16125   =>   CDf =  0.00309    CDp =  0.15817

 Side 1  free  transition at x/c =  0.0494   19
 Side 2 forced transition at x/c =  1.0000   74

  91   rms: 0.3966E-01   max: -.7126E+00   D at   96  2   RLX: 0.702
       a = 15.000      CL =  0.7418
      Cm = -0.0693     CD =  0.16943   =>   CDf =  0.00308    CDp =  0.16636

 Side 1  free  transition at x/c =  0.0502   19
 Side 2 forced transition at x/c =  1.0000   74

  92   rms: 0.3390E-01   max: -.3943E+00   D at   96  2
       a = 15.000      CL =  0.7068
      Cm = -0.0643     CD =  0.16979   =>   CDf =  0.00305    CDp =  0.16673

 Side 1  free  transition at x/c =  0.0515   19
 Side 2 forced transition at x/c =  1.0000   74

  93   rms: 0.7034E-02   max: -.3204E-01   T at   19  1
       a = 15.000      CL =  0.7003
      Cm = -0.0631     CD =  0.16659   =>   CDf =  0.00302    CDp =  0.16358

 Side 1  free  transition at x/c =  0.0517   19
 Side 2 forced transition at x/c =  1.0000   74

  94   rms: 0.1280E-02   max: 0.5688E-02   T at   19  1
       a = 15.000      CL =  0.7012
      Cm = -0.0631     CD =  0.16709   =>   CDf =  0.00301    CDp =  0.16408

 Side 1  free  transition at x/c =  0.0517   19
 Side 2 forced transition at x/c =  1.0000   74

  95   rms: 0.1010E-03   max: -.8760E-03   D at   94  2
       a = 15.000      CL =  0.7012
      Cm = -0.0631     CD =  0.16721   =>   CDf =  0.00301    CDp =  0.16420

 Side 1  free  transition at x/c =  0.0517   19
 Side 2 forced transition at x/c =  1.0000   74

  96   rms: 0.4989E-05   max: 0.6286E-04   C at   74  2
       a = 15.000      CL =  0.7012
      Cm = -0.0631     CD =  0.16721   =>   CDf =  0.00301    CDp =  0.16420
 plradd ia,ip,cpol           48           0  1.48812705E-05

 Point added to stored polar  1
 Point written to save file  ag23_Re200k.base.pol                            
 Dump file unspecified or not available
 Calculating wake trajectory ...
 Calculating source influence matrix ...

 Solving BL system ...

 Side 1  free  transition at x/c =  0.0517   19
 Side 2 forced transition at x/c =  1.0000   74

   1   rms: 0.1922E-01   max: 0.1162E+00   T at   19  1   RLX: 0.367
       a = 15.250      CL =  0.7007
      Cm = -0.0638     CD =  0.16951   =>   CDf =  0.00301    CDp =  0.16650

 Side 1  free  transition at x/c =  0.0513   19
 Side 2 forced transition at x/c =  1.0000   74

   2   rms: 0.1220E-01   max: 0.8907E-01   T at   19  1
       a = 15.250      CL =  0.7002
      Cm = -0.0649     CD =  0.17251   =>   CDf =  0.00301    CDp =  0.16951

 Side 1  free  transition at x/c =  0.0506   19
 Side 2 forced transition at x/c =  1.0000   74

   3   rms: 0.2590E-02   max: 0.1118E-01   D at   94  2
       a = 15.250      CL =  0.6987
      Cm = -0.0647     CD =  0.17089   =>   CDf =  0.00301    CDp =  0.16789

 Side 1  free  transition at x/c =  0.0506   19
 Side 2 forced transition at x/c =  1.0000   74

   4   rms: 0.3142E-03   max: 0.1361E-02   T at   19  1
       a = 15.250      CL =  0.6989
      Cm = -0.0647     CD =  0.17082   =>   CDf =  0.00301    CDp =  0.16781

 Side 1  free  transition at x/c =  0.0506   19
 Side 2 forced transition at x/c =  1.0000   74

   5   rms: 0.3092E-04   max: -.2470E-03   D at   95  2
       a = 15.250      CL =  0.6989
      Cm = -0.0647     CD =  0.17085   =>   CDf =  0.00301    CDp =  0.16784
 plradd ia,ip,cpol           49           0  1.48812705E-05

 Point added to stored polar  1
 Point written to save file  ag23_Re200k.base.pol                            
 Dump file unspecified or not available
 Calculating wake trajectory ...
 Calculating source influence matrix ...

 Solving BL system ...

 Side 1  free  transition at x/c =  0.0506   19
 Side 2 forced transition at x/c =  1.0000   74

   1   rms: 0.1718E-01   max: 0.1636E+00   T at   19  1   RLX: 0.359
       a = 15.500      CL =  0.6989
      Cm = -0.0654     CD =  0.17301   =>   CDf =  0.00301    CDp =  0.17001

 Side 1  free  transition at x/c =  0.0501   19
 Side 2 forced transition at x/c =  1.0000   74

   2   rms: 0.1073E-01   max: 0.1058E+00   T at   19  1
       a = 15.500      CL =  0.6996
      Cm = -0.0663     CD =  0.17592   =>   CDf =  0.00301    CDp =  0.17291

 Side 1  free  transition at x/c =  0.0492   19
 Side 2 forced transition at x/c =  1.0000   74

   3   rms: 0.2686E-02   max: -.1410E-01   T at   19  1
       a = 15.500      CL =  0.6980
      Cm = -0.0661     CD =  0.17426   =>   CDf =  0.00301    CDp =  0.17125

 Side 1  free  transition at x/c =  0.0494   19
 Side 2 forced transition at x/c =  1.0000   74

   4   rms: 0.3937E-03   max: 0.1372E-02   T at   19  1
       a = 15.500      CL =  0.6982
      Cm = -0.0661     CD =  0.17418   =>   CDf =  0.00301    CDp =  0.17117

 Side 1  free  transition at x/c =  0.0494   19
 Side 2 forced transition at x/c =  1.0000   74

   5   rms: 0.6008E-04   max: -.4473E-03   D at   93  2
       a = 15.500      CL =  0.6982
      Cm = -0.0661     CD =  0.17424   =>   CDf =  0.00301    CDp =  0.17123
 plradd ia,ip,cpol           50           0  1.48812705E-05

 Point added to stored polar  1
 Point written to save file  ag23_Re200k.base.pol                            
 Dump file unspecified or not available
 Calculating wake trajectory ...
 Calculating source influence matrix ...

 Solving BL system ...

 Side 1  free  transition at x/c =  0.0494   19
 Side 2 forced transition at x/c =  1.0000   74

   1   rms: 0.1621E-01   max: 0.2026E+00   T at   19  1   RLX: 0.353
       a = 15.750      CL =  0.6988
      Cm = -0.0666     CD =  0.17611   =>   CDf =  0.00301    CDp =  0.17311

 Side 1  free  transition at x/c =  0.0488   19
 Side 2 forced transition at x/c =  1.0000   74

   2   rms: 0.1044E-01   max: 0.1321E+00   T at   19  1
       a = 15.750      CL =  0.7005
      Cm = -0.0673     CD =  0.17865   =>   CDf =  0.00301    CDp =  0.17564

 Side 1  free  transition at x/c =  0.0478   19
 Side 2 forced transition at x/c =  1.0000   74

   3   rms: 0.3189E-02   max: -.2087E-01   D at   19  1
       a = 15.750      CL =  0.6991
      Cm = -0.0672     CD =  0.17714   =>   CDf =  0.00300    CDp =  0.17414

 Side 1  free  transition at x/c =  0.0479   19
 Side 2 forced transition at x/c =  1.0000   74

   4   rms: 0.7813E-03   max: 0.3187E-02   T at   19  1
       a = 15.750      CL =  0.6995
      Cm = -0.0672     CD =  0.17725   =>   CDf =  0.00301    CDp =  0.17424

 Side 1  free  transition at x/c =  0.0479   19
 Side 2 forced transition at x/c =  1.0000   74

   5   rms: 0.9433E-04   max: -.6590E-03   D at   94  2
       a = 15.750      CL =  0.6995
      Cm = -0.0672     CD =  0.17733   =>   CDf =  0.00300    CDp =  0.17433
 plradd ia,ip,cpol           51           0  1.48812705E-05

 Point added to stored polar  1
 Point written to save file  ag23_Re200k.base.pol                            
 Dump file unspecified or not available
 Calculating wake trajectory ...
 Calculating source influence matrix ...

 Solving BL system ...

 Side 1  free  transition at x/c =  0.0479   19
 Side 2 forced transition at x/c =  1.0000   74

   1   rms: 0.1792E-01   max: 0.2342E+00   T at   19  1   RLX: 0.346
       a = 16.000      CL =  0.7005
      Cm = -0.0675     CD =  0.17890   =>   CDf =  0.00300    CDp =  0.17589

 Side 1  free  transition at x/c =  0.0473   19
 Side 2 forced transition at x/c =  1.0000   74

   2   rms: 0.1249E-01   max: 0.1546E+00   T at   19  1
       a = 16.000      CL =  0.7037
      Cm = -0.0679     CD =  0.18106   =>   CDf =  0.00300    CDp =  0.17806

 Side 1  free  transition at x/c =  0.0464   19
 Side 2 forced transition at x/c =  1.0000   74

   3   rms: 0.4662E-02   max: -.2977E-01   D at   19  1
       a = 16.000      CL =  0.7025
      Cm = -0.0678     CD =  0.17960   =>   CDf =  0.00300    CDp =  0.17660

 Side 1  free  transition at x/c =  0.0465   19
 Side 2 forced transition at x/c =  1.0000   74

   4   rms: 0.1505E-02   max: 0.6247E-02   T at   19  1
       a = 16.000      CL =  0.7033
      Cm = -0.0678     CD =  0.17995   =>   CDf =  0.00300    CDp =  0.17695

 Side 1  free  transition at x/c =  0.0465   19
 Side 2 forced transition at x/c =  1.0000   74

   5   rms: 0.1799E-03   max: -.1106E-02   D at   93  2
       a = 16.000      CL =  0.7034
      Cm = -0.0678     CD =  0.18010   =>   CDf =  0.00300    CDp =  0.17710

 Side 1  free  transition at x/c =  0.0465   19
 Side 2 forced transition at x/c =  1.0000   74

   6   rms: 0.8985E-05   max: -.6408E-04   D at   93  2
       a = 16.000      CL =  0.7034
      Cm = -0.0678     CD =  0.18011   =>   CDf =  0.00300    CDp =  0.17711
 plradd ia,ip,cpol           52           0  1.48812705E-05

 Point added to stored polar  1
 Point written to save file  ag23_Re200k.base.pol                            
 Dump file unspecified or not available

.OPERva   c>  
 Polar accumulation disabled

.OPERv   c>  
 XFOIL   c>  
 XFOIL   c>  