  
       XFOIL         Version 6.99
  
 Calculated polar for: AG23 XC Bubble Dancer Root Airfoil              
  
 1 1 Reynolds number fixed          Mach number fixed         
  
 xtrf =   1.000 (top)        1.000 (bottom)  
 Mach =   0.000     Re =     0.600 e 6     Ncrit =   9.000
  
   alpha    CL        CD       CDp       CM     Top_Xtr  Bot_Xtr
  ------ -------- --------- --------- -------- -------- --------
-4.000  -0.1380   0.00905   0.00324  -0.0693   0.9651   0.0275
-3.500  -0.0814   0.00813   0.00246  -0.0693   0.9475   0.0821
-3.000  -0.0286   0.00726   0.00203  -0.0687   0.9278   0.2106
-2.500   0.0243   0.00663   0.00175  -0.0681   0.9048   0.3396
-2.000   0.0780   0.00617   0.00156  -0.0675   0.8808   0.4601
-1.500   0.1322   0.00584   0.00143  -0.0670   0.8552   0.5663
-1.000   0.1865   0.00560   0.00137  -0.0664   0.8273   0.6642
-0.500   0.2403   0.00543   0.00135  -0.0655   0.7970   0.7561
0.000   0.2927   0.00536   0.00136  -0.0643   0.7637   0.8328
0.500   0.3421   0.00533   0.00135  -0.0622   0.7273   0.9010
1.000   0.3979   0.00532   0.00126  -0.0617   0.6866   1.0000
1.500   0.4545   0.00558   0.00131  -0.0619   0.6414   1.0000
2.000   0.5106   0.00590   0.00141  -0.0619   0.5936   1.0000
2.500   0.5664   0.00625   0.00157  -0.0620   0.5446   1.0000
3.000   0.6219   0.00665   0.00177  -0.0620   0.4953   1.0000
3.500   0.6771   0.00709   0.00204  -0.0620   0.4460   1.0000
4.000   0.7319   0.00757   0.00235  -0.0620   0.3967   1.0000
4.500   0.7863   0.00810   0.00273  -0.0619   0.3465   1.0000
5.000   0.8400   0.00872   0.00316  -0.0618   0.2937   1.0000
5.500   0.8929   0.00944   0.00370  -0.0615   0.2383   1.0000
6.000   0.9447   0.01030   0.00433  -0.0612   0.1791   1.0000
6.500   0.9952   0.01133   0.00512  -0.0608   0.1219   1.0000
7.000   1.0444   0.01252   0.00605  -0.0602   0.0708   1.0000
7.500   1.0920   0.01393   0.00726  -0.0593   0.0312   1.0000
8.000   1.1377   0.01562   0.00897  -0.0580   0.0146   1.0000
8.500   1.1797   0.01772   0.01127  -0.0561   0.0103   1.0000
9.000   1.2226   0.01942   0.01316  -0.0544   0.0086   1.0000
9.500   1.2573   0.02198   0.01591  -0.0520   0.0071   1.0000
10.000   1.2847   0.02528   0.01956  -0.0485   0.0066   1.0000
10.250   1.2999   0.02659   0.02101  -0.0471   0.0064   1.0000
10.500   1.3131   0.02808   0.02265  -0.0454   0.0062   1.0000
10.750   1.3240   0.02972   0.02445  -0.0436   0.0060   1.0000
11.000   1.3312   0.03150   0.02641  -0.0413   0.0058   1.0000
11.250   1.3354   0.03325   0.02832  -0.0388   0.0056   1.0000
11.500   1.3369   0.03525   0.03048  -0.0364   0.0055   1.0000
11.750   1.3363   0.03751   0.03292  -0.0342   0.0054   1.0000
12.000   1.3341   0.04004   0.03562  -0.0325   0.0053   1.0000
12.250   1.3298   0.04298   0.03875  -0.0313   0.0052   1.0000
12.500   1.3234   0.04637   0.04233  -0.0307   0.0051   1.0000
12.750   1.3157   0.05016   0.04630  -0.0308   0.0050   1.0000
13.000   1.3048   0.05473   0.05107  -0.0317   0.0050   1.0000
13.250   1.2920   0.05990   0.05644  -0.0333   0.0050   1.0000
13.500   1.2768   0.06587   0.06260  -0.0358   0.0050   1.0000
13.750   1.2588   0.07267   0.06961  -0.0390   0.0051   1.0000
14.000   1.2393   0.08019   0.07732  -0.0430   0.0051   1.0000
14.250   1.2167   0.08872   0.08604  -0.0477   0.0051   1.0000
14.500   1.1930   0.09801   0.09552  -0.0531   0.0052   1.0000
14.750   1.1674   0.10826   0.10595  -0.0590   0.0053   1.0000
15.000   1.1412   0.11929   0.11714  -0.0654   0.0054   1.0000
15.250   1.1149   0.13092   0.12890  -0.0721   0.0056   1.0000
15.500   1.0867   0.14393   0.14205  -0.0794   0.0057   1.0000
15.750   1.0505   0.16061   0.15883  -0.0883   0.0061   1.0000
