
 ===================================================
  XFOIL Version 6.99
  Copyright (C) 2000   Mark Drela, Harold Youngren

  This software comes with ABSOLUTELY NO WARRANTY,
    subject to the GNU General Public License.

  Caveat computor
 ===================================================

 File  xfoil.def  not found

   QUIT    Exit program

  .OPER    Direct operating point(s)
  .MDES    Complex mapping design routine
  .QDES    Surface speed design routine
  .GDES    Geometry design routine

   SAVE f  Write airfoil to labeled coordinate file
   PSAV f  Write airfoil to plain coordinate file
   ISAV f  Write airfoil to ISES coordinate file
   MSAV f  Write airfoil to MSES coordinate file
   REVE    Reverse written-airfoil node ordering

   LOAD f  Read buffer airfoil from coordinate file
   NACA i  Set NACA 4,5-digit airfoil and buffer airfoil
   INTE    Set buffer airfoil by interpolating two airfoils
   NORM    Buffer airfoil normalization toggle
   XYCM rr Change CM reference location, currently  0.25000 0.00000

   BEND    Display structural properties of current airfoil

   PCOP    Set current-airfoil panel nodes directly from buffer airfoil points
   PANE    Set current-airfoil panel nodes ( 160 ) based on curvature
  .PPAR    Show/change paneling

  .PLOP    Plotting options

   WDEF f  Write  current-settings file
   RDEF f  Reread current-settings file
   NAME s  Specify new airfoil name
   NINC    Increment name version number

   Z       Zoom    | (available in all menus)
   U       Unzoom  | 

 XFOIL   c>  
 Labeled airfoil file.  Name:  AG25 Bubble Dancer DLG by Mark Drela | The AG2x 

 Number of input coordinate points: 160
 Counterclockwise ordering
 Max thickness =     0.075826  at x =   0.247
 Max camber    =     0.024146  at x =   0.454

  LE  x,y  =  -0.00000  -0.00010  |   Chord =   1.00000
  TE  x,y  =   1.00000  -0.00020  |

 Current airfoil nodes set from buffer airfoil nodes ( 160 )

 XFOIL   c>  
 XFOIL   c>  
 Blunt trailing edge.  Gap =  0.00096

 Paneling parameters used...
   Number of panel nodes       160
   Panel bunching parameter    1.000
   TE/LE panel density ratio   0.150
   Refined-area/LE panel density ratio    0.200
   Top    side refined area x/c limits  1.000 1.000
   Bottom side refined area x/c limits  1.000 1.000

 XFOIL   c>  
.OPERi   c>  
 Xtr/c     =  1.0000    top    side
 Xtr/c     =  1.0000    bottom side
 Ncrit     =    9.00   ( 0.070 % turb. level )
 Vacc      =  0.0100

 Klag  =  5.6000     Uxwt  =    1.00
 A     =  6.7000     B     =  0.7500       KCt = 0.01485
 CtiniK=  1.8000     CtiniX=  3.3000

..VPAR   c>  
..VPAR   c>  
.OPERi   c>  
 M  =    0.0000
 Re =    400000

.OPERv   c>  
.OPERv   c>  
.OPERv   c>  
 Polar  1 newly created for accumulation
 Airfoil archived with polar: AG25 Bubble Dancer DLG by Mark Drela | The AG2x 

Enter  polar save filename  OR  <return> for no file   s>  
 New polar save file available

Enter  polar dump filename  OR  <return> for no file   s>  
 Polar dump file will NOT be written

 Polar accumulation enabled

.OPERva   c>   Calculating unit vorticity distributions ...
 Calculating wake trajectory ...
 Calculating source influence matrix ...

 Solving BL system ...

 Initializing BL ...
    side            1  ...
 MRCHUE: Inverse mode at  66     Hk =   4.097
 MRCHUE: Inverse mode at  67     Hk =   4.493
 MRCHUE: Inverse mode at  68     Hk =   4.884
 MRCHUE: Inverse mode at  69     Hk =   5.270
 MRCHUE: Inverse mode at  70     Hk =   5.653
 MRCHUE: Inverse mode at  71     Hk =   6.033
 MRCHUE: Inverse mode at  72     Hk =   6.410
 MRCHUE: Inverse mode at  73     Hk =   6.785
 MRCHUE: Inverse mode at  74     Hk =   7.156
 MRCHUE: Inverse mode at  75     Hk =   7.515
 MRCHUE: Inverse mode at  76     Hk =   7.837
 MRCHUE: Inverse mode at  77     Hk =   7.994
    side            2  ...
 MRCHUE: Inverse mode at   9     Hk =   4.298
 MRCHUE: Inverse mode at  10     Hk =   5.665
 MRCHUE: Inverse mode at  11     Hk =   7.046
 MRCHUE: Inverse mode at  12     Hk =   8.671
 MRCHUE: Inverse mode at  13     Hk =   9.851
 MRCHUE: Inverse mode at  14     Hk =   2.500
 MRCHUE: Inverse mode at  15     Hk =   2.500

 Side 1 forced transition at x/c =  1.0000   77
 Side 2  free  transition at x/c =  0.0195   13

   1   rms: 0.1349E+00   max: 0.1041E+01   D at   14  2   RLX: 0.684
       a = -4.000      CL = -0.1951
      Cm = -0.0617     CD =  0.01138   =>   CDf =  0.00598    CDp =  0.00540

 Side 1 forced transition at x/c =  1.0000   77
 Side 2  free  transition at x/c =  0.0176   13

   2   rms: 0.1099E+00   max: 0.6933E+00   D at   13  2
       a = -4.000      CL = -0.2116
      Cm = -0.0543     CD =  0.01337   =>   CDf =  0.00601    CDp =  0.00736

 Side 1  free  transition at x/c =  0.9900   76
 Side 2  free  transition at x/c =  0.0172   13

   3   rms: 0.2964E-01   max: -.2863E+00   D at   77  1
       a = -4.000      CL = -0.1988
      Cm = -0.0571     CD =  0.01309   =>   CDf =  0.00594    CDp =  0.00715

 Side 1  free  transition at x/c =  0.9985   77
 Side 2  free  transition at x/c =  0.0174   13

   4   rms: 0.7338E-02   max: 0.5838E-01   D at   77  1
       a = -4.000      CL = -0.2011
      Cm = -0.0566     CD =  0.01320   =>   CDf =  0.00592    CDp =  0.00728

 Side 1  free  transition at x/c =  0.9971   77
 Side 2  free  transition at x/c =  0.0174   13

   5   rms: 0.1260E-03   max: -.1496E-02   D at   88  2
       a = -4.000      CL = -0.2011
      Cm = -0.0566     CD =  0.01320   =>   CDf =  0.00591    CDp =  0.00729

 Side 1  free  transition at x/c =  0.9971   77
 Side 2  free  transition at x/c =  0.0174   13

   6   rms: 0.2128E-05   max: -.6560E-05   D at   70  2
       a = -4.000      CL = -0.2011
      Cm = -0.0566     CD =  0.01320   =>   CDf =  0.00591    CDp =  0.00729
 plradd ia,ip,cpol            1           0  9.64510022E-04

 Point added to stored polar  1
 Point written to save file  ag25_Re400k.base.pol                            
 Dump file unspecified or not available
 Calculating wake trajectory ...
 Calculating source influence matrix ...

 Solving BL system ...

 Side 1  free  transition at x/c =  0.9971   77
 Side 2  free  transition at x/c =  0.0174   13

   1   rms: 0.1638E+00   max: -.5082E+00   D at   16  2   RLX: 0.984
       a = -3.500      CL = -0.1254
      Cm = -0.0606     CD =  0.01070   =>   CDf =  0.00600    CDp =  0.00471

 MRCHDU: Convergence failed at  13  side 2    Res =  0.1128E+02
 MRCHDU: Convergence failed at  14  side 2    Res =  0.4317E+02
 MRCHDU: Convergence failed at  15  side 2    Res =  0.2990E+02
 MRCHDU: Convergence failed at  16  side 2    Res =  0.2937E+02
 MRCHDU: Convergence failed at  17  side 2    Res =  0.3456E+02
 MRCHDU: Convergence failed at  18  side 2    Res =  0.5732E+02
 MRCHDU: Convergence failed at  19  side 2    Res =  0.4199E+03
 MRCHDU: Convergence failed at  20  side 2    Res =  0.8359E+02
 MRCHDU: Convergence failed at  21  side 2    Res =  0.3942E+02
 MRCHDU: Convergence failed at  22  side 2    Res =  0.2534E+02
 MRCHDU: Convergence failed at  23  side 2    Res =  0.2179E+02
 MRCHDU: Convergence failed at  24  side 2    Res =  0.1831E+02
 MRCHDU: Convergence failed at  25  side 2    Res =  0.1833E+02
 MRCHDU: Convergence failed at  26  side 2    Res =  0.2114E+02
 MRCHDU: Convergence failed at  27  side 2    Res =  0.2259E+02
 MRCHDU: Convergence failed at  28  side 2    Res =  0.2423E+02
 MRCHDU: Convergence failed at  29  side 2    Res =  0.5322E+02
 MRCHDU: Convergence failed at  30  side 2    Res =  0.5416E+02
 MRCHDU: Convergence failed at  31  side 2    Res =  0.2435E+02
 MRCHDU: Convergence failed at  32  side 2    Res =  0.1935E+03
 MRCHDU: Convergence failed at  33  side 2    Res =  0.3400E+02
 MRCHDU: Convergence failed at  34  side 2    Res =  0.3214E+02
 MRCHDU: Convergence failed at  35  side 2    Res =  0.7031E+02
 MRCHDU: Convergence failed at  36  side 2    Res =  0.7416E+02

[TIMEOUT]
