
 ===================================================
  XFOIL Version 6.99
  Copyright (C) 2000   Mark Drela, Harold Youngren

  This software comes with ABSOLUTELY NO WARRANTY,
    subject to the GNU General Public License.

  Caveat computor
 ===================================================

 File  xfoil.def  not found

   QUIT    Exit program

  .OPER    Direct operating point(s)
  .MDES    Complex mapping design routine
  .QDES    Surface speed design routine
  .GDES    Geometry design routine

   SAVE f  Write airfoil to labeled coordinate file
   PSAV f  Write airfoil to plain coordinate file
   ISAV f  Write airfoil to ISES coordinate file
   MSAV f  Write airfoil to MSES coordinate file
   REVE    Reverse written-airfoil node ordering

   LOAD f  Read buffer airfoil from coordinate file
   NACA i  Set NACA 4,5-digit airfoil and buffer airfoil
   INTE    Set buffer airfoil by interpolating two airfoils
   NORM    Buffer airfoil normalization toggle
   XYCM rr Change CM reference location, currently  0.25000 0.00000

   BEND    Display structural properties of current airfoil

   PCOP    Set current-airfoil panel nodes directly from buffer airfoil points
   PANE    Set current-airfoil panel nodes ( 160 ) based on curvature
  .PPAR    Show/change paneling

  .PLOP    Plotting options

   WDEF f  Write  current-settings file
   RDEF f  Reread current-settings file
   NAME s  Specify new airfoil name
   NINC    Increment name version number

   Z       Zoom    | (available in all menus)
   U       Unzoom  | 

 XFOIL   c>  
 Labeled airfoil file.  Name:  AG46c -03f                                      

 Number of input coordinate points: 172
 Counterclockwise ordering
 Max thickness =     0.060236  at x =   0.232
 Max camber    =     0.017079  at x =   0.316

  LE  x,y  =   0.00023   0.00016  |   Chord =   1.00001
  TE  x,y  =   1.00012   0.01545  |

 Current airfoil nodes set from buffer airfoil nodes ( 172 )

 XFOIL   c>  
 XFOIL   c>  
 Blunt trailing edge.  Gap =  0.00080

 Paneling parameters used...
   Number of panel nodes       160
   Panel bunching parameter    1.000
   TE/LE panel density ratio   0.150
   Refined-area/LE panel density ratio    0.200
   Top    side refined area x/c limits  1.000 1.000
   Bottom side refined area x/c limits  1.000 1.000

 XFOIL   c>  
.OPERi   c>  
 Xtr/c     =  1.0000    top    side
 Xtr/c     =  1.0000    bottom side
 Ncrit     =    9.00   ( 0.070 % turb. level )
 Vacc      =  0.0100

 Klag  =  5.6000     Uxwt  =    1.00
 A     =  6.7000     B     =  0.7500       KCt = 0.01485
 CtiniK=  1.8000     CtiniX=  3.3000

..VPAR   c>  
..VPAR   c>  
.OPERi   c>  
 M  =    0.0000
 Re =    150000

.OPERv   c>  
.OPERv   c>  
.OPERv   c>  
 Polar  1 newly created for accumulation
 Airfoil archived with polar: AG46c -03f                                      

Enter  polar save filename  OR  <return> for no file   s>  
 New polar save file available

Enter  polar dump filename  OR  <return> for no file   s>  
 Polar dump file will NOT be written

 Polar accumulation enabled

.OPERva   c>   Calculating unit vorticity distributions ...
 Calculating wake trajectory ...
 Calculating source influence matrix ...

 Solving BL system ...

 Initializing BL ...
    side            1  ...
 MRCHUE: Inverse mode at  52     Hk =   3.800
 MRCHUE: Inverse mode at  53     Hk =   4.081
 MRCHUE: Inverse mode at  54     Hk =   4.343
 MRCHUE: Inverse mode at  55     Hk =   4.564
 MRCHUE: Inverse mode at  56     Hk =   4.809
 MRCHUE: Inverse mode at  57     Hk =   5.071
 MRCHUE: Inverse mode at  76     Hk =   3.800
 MRCHUE: Inverse mode at  77     Hk =   3.890
    side            2  ...
 MRCHUE: Inverse mode at   9     Hk =   3.800
 MRCHUE: Inverse mode at  10     Hk =   4.699
 MRCHUE: Convergence failed at  11  side 2    Res =  0.1932E+01
 MRCHUE: Inverse mode at  12     Hk =   5.751
 MRCHUE: Inverse mode at  13     Hk =   6.893
 MRCHUE: Convergence failed at  14  side 2    Res =  0.7909E+02
 MRCHUE: Inverse mode at  15     Hk =   8.512
 MRCHUE: Inverse mode at  16     Hk =   4.986
 MRCHUE: Inverse mode at  17     Hk =   2.500
 MRCHUE: Inverse mode at  18     Hk =   2.500
 MRCHUE: Inverse mode at  19     Hk =   2.500

 MRCHDU: Convergence failed at  13  side 2    Res =  0.5024E+01
 MRCHDU: Convergence failed at  14  side 2    Res =  0.2486E+01
 MRCHDU: Convergence failed at  15  side 2    Res =  0.1113E+02
 MRCHDU: Convergence failed at  16  side 2    Res =  0.1711E+01
 MRCHDU: Convergence failed at  17  side 2    Res =  0.1408E+01
 MRCHDU: Convergence failed at  18  side 2    Res =  0.1327E+02
 MRCHDU: Convergence failed at  19  side 2    Res =  0.3220E+02
 MRCHDU: Convergence failed at  20  side 2    Res =  0.1652E+02
 MRCHDU: Convergence failed at  21  side 2    Res =  0.7894E+02
 MRCHDU: Convergence failed at  22  side 2    Res =  0.1108E+02
 MRCHDU: Convergence failed at  23  side 2    Res =  0.4737E+03
 MRCHDU: Convergence failed at  24  side 2    Res =  0.1027E+02
 MRCHDU: Convergence failed at  25  side 2    Res =  0.9848E+01
 MRCHDU: Convergence failed at  26  side 2    Res =  0.9695E+01
 MRCHDU: Convergence failed at  27  side 2    Res =  0.9804E+03
 MRCHDU: Convergence failed at  28  side 2    Res =  0.1127E+03
 MRCHDU: Convergence failed at  29  side 2    Res =  0.8963E+01
 MRCHDU: Convergence failed at  30  side 2    Res =  0.1144E+03
 MRCHDU: Convergence failed at  31  side 2    Res =  0.2879E+03
 MRCHDU: Convergence failed at  32  side 2    Res =  0.7786E+01
 MRCHDU: Convergence failed at  33  side 2    Res =  0.3273E+03
 MRCHDU: Convergence failed at  34  side 2    Res =  0.8107E+01
 MRCHDU: Convergence failed at  35  side 2    Res =  0.7235E+01
 MRCHDU: Convergence failed at  36  side 2    Res =  0.2826E+03
 MRCHDU: Convergence failed at  37  side 2    Res =  0.1272E+03
 MRCHDU: Convergence failed at  38  side 2    Res =  0.7057E+01
 MRCHDU: Convergence failed at  39  side 2    Res =  0.9540E+02
 MRCHDU: Convergence failed at  40  side 2    Res =  0.3873E+03
 MRCHDU: Convergence failed at  41  side 2    Res =  0.7603E+02
 MRCHDU: Convergence failed at  42  side 2    Res =  0.4306E+02
 MRCHDU: Convergence failed at  43  side 2    Res =  0.3086E+02
 MRCHDU: Convergence failed at  44  side 2    Res =  0.2470E+02
 MRCHDU: Convergence failed at  45  side 2    Res =  0.2101E+02
 MRCHDU: Convergence failed at  46  side 2    Res =  0.1843E+02
 MRCHDU: Convergence failed at  47  side 2    Res =  0.1641E+02
 MRCHDU: Convergence failed at  48  side 2    Res =  0.1507E+02
 MRCHDU: Convergence failed at  49  side 2    Res =  0.1393E+02
 MRCHDU: Convergence failed at  50  side 2    Res =  0.1296E+02
 MRCHDU: Convergence failed at  51  side 2    Res =  0.1227E+02
 MRCHDU: Convergence failed at  52  side 2    Res =  0.1161E+02
 MRCHDU: Convergence failed at  53  side 2    Res =  0.1108E+02
 MRCHDU: Convergence failed at  54  side 2    Res =  0.1059E+02
 MRCHDU: Convergence failed at  55  side 2    Res =  0.1015E+02
 MRCHDU: Convergence failed at  56  side 2    Res =  0.9838E+01
 MRCHDU: Convergence failed at  57  side 2    Res =  0.9469E+01
 MRCHDU: Convergence failed at  58  side 2    Res =  0.9223E+01
 MRCHDU: Convergence failed at  59  side 2    Res =  0.8903E+01
 MRCHDU: Convergence failed at  60  side 2    Res =  0.8686E+01
 MRCHDU: Convergence failed at  61  side 2    Res =  0.8453E+01
 MRCHDU: Convergence failed at  62  side 2    Res =  0.8236E+01
 MRCHDU: Convergence failed at  63  side 2    Res =  0.8055E+01
 MRCHDU: Convergence failed at  64  side 2    Res =  0.7842E+01
 MRCHDU: Convergence failed at  65  side 2    Res =  0.7723E+01
 MRCHDU: Convergence failed at  66  side 2    Res =  0.7545E+01
 MRCHDU: Convergence failed at  67  side 2    Res =  0.7397E+01
 MRCHDU: Convergence failed at  68  side 2    Res =  0.7246E+01
 MRCHDU: Convergence failed at  69  side 2    Res =  0.7110E+01
 MRCHDU: Convergence failed at  70  side 2    Res =  0.6971E+01
 MRCHDU: Convergence failed at  71  side 2    Res =  0.6819E+01

[TIMEOUT]
