
 ===================================================
  XFOIL Version 6.99
  Copyright (C) 2000   Mark Drela, Harold Youngren

  This software comes with ABSOLUTELY NO WARRANTY,
    subject to the GNU General Public License.

  Caveat computor
 ===================================================

 File  xfoil.def  not found

   QUIT    Exit program

  .OPER    Direct operating point(s)
  .MDES    Complex mapping design routine
  .QDES    Surface speed design routine
  .GDES    Geometry design routine

   SAVE f  Write airfoil to labeled coordinate file
   PSAV f  Write airfoil to plain coordinate file
   ISAV f  Write airfoil to ISES coordinate file
   MSAV f  Write airfoil to MSES coordinate file
   REVE    Reverse written-airfoil node ordering

   LOAD f  Read buffer airfoil from coordinate file
   NACA i  Set NACA 4,5-digit airfoil and buffer airfoil
   INTE    Set buffer airfoil by interpolating two airfoils
   NORM    Buffer airfoil normalization toggle
   XYCM rr Change CM reference location, currently  0.25000 0.00000

   BEND    Display structural properties of current airfoil

   PCOP    Set current-airfoil panel nodes directly from buffer airfoil points
   PANE    Set current-airfoil panel nodes ( 160 ) based on curvature
  .PPAR    Show/change paneling

  .PLOP    Plotting options

   WDEF f  Write  current-settings file
   RDEF f  Reread current-settings file
   NAME s  Specify new airfoil name
   NINC    Increment name version number

   Z       Zoom    | (available in all menus)
   U       Unzoom  | 

 XFOIL   c>  
 Labeled airfoil file.  Name:  AG52                                            

 Number of input coordinate points: 161
 Counterclockwise ordering
 Max thickness =     0.083519  at x =   0.282
 Max camber    =     0.017680  at x =   0.410

  LE  x,y  =  -0.00000  -0.00000  |   Chord =   1.00000
  TE  x,y  =   1.00000   0.00000  |

 Current airfoil nodes set from buffer airfoil nodes ( 161 )

 XFOIL   c>  
 XFOIL   c>  
 Blunt trailing edge.  Gap =  0.00040

 Paneling parameters used...
   Number of panel nodes       160
   Panel bunching parameter    1.000
   TE/LE panel density ratio   0.150
   Refined-area/LE panel density ratio    0.200
   Top    side refined area x/c limits  1.000 1.000
   Bottom side refined area x/c limits  1.000 1.000

 XFOIL   c>  
.OPERi   c>  
 Xtr/c     =  1.0000    top    side
 Xtr/c     =  1.0000    bottom side
 Ncrit     =    9.00   ( 0.070 % turb. level )
 Vacc      =  0.0100

 Klag  =  5.6000     Uxwt  =    1.00
 A     =  6.7000     B     =  0.7500       KCt = 0.01485
 CtiniK=  1.8000     CtiniX=  3.3000

..VPAR   c>  
..VPAR   c>  
.OPERi   c>  
 M  =    0.0000
 Re =    150000

.OPERv   c>  
.OPERv   c>  
.OPERv   c>  
 Polar  1 newly created for accumulation
 Airfoil archived with polar: AG52                                            

Enter  polar save filename  OR  <return> for no file   s>  
 New polar save file available

Enter  polar dump filename  OR  <return> for no file   s>  
 Polar dump file will NOT be written

 Polar accumulation enabled

.OPERva   c>   Calculating unit vorticity distributions ...
 Calculating wake trajectory ...
 Calculating source influence matrix ...

 Solving BL system ...

 Initializing BL ...
    side            1  ...
 MRCHUE: Inverse mode at  67     Hk =   3.943
 MRCHUE: Inverse mode at  68     Hk =   4.185
 MRCHUE: Inverse mode at  69     Hk =   4.423
 MRCHUE: Inverse mode at  70     Hk =   4.658
 MRCHUE: Inverse mode at  71     Hk =   4.890
 MRCHUE: Inverse mode at  72     Hk =   5.119
 MRCHUE: Inverse mode at  73     Hk =   5.344
 MRCHUE: Inverse mode at  74     Hk =   5.566
 MRCHUE: Inverse mode at  75     Hk =   5.778
 MRCHUE: Convergence failed at  76  side 1    Res =  0.2625E+01
 MRCHUE: Inverse mode at  77     Hk =   5.873
    side            2  ...
 MRCHUE: Inverse mode at  10     Hk =   3.856
 MRCHUE: Inverse mode at  11     Hk =   4.548
 MRCHUE: Inverse mode at  12     Hk =   5.282
 MRCHUE: Inverse mode at  13     Hk =   6.127
 MRCHUE: Inverse mode at  14     Hk =   7.132
 MRCHUE: Inverse mode at  15     Hk =   8.259
 MRCHUE: Inverse mode at  16     Hk =   9.408
 MRCHUE: Inverse mode at  17     Hk =  10.515
 MRCHUE: Inverse mode at  18     Hk =   7.108
 MRCHUE: Inverse mode at  19     Hk =   4.285
 MRCHUE: Inverse mode at  20     Hk =   2.646
 MRCHUE: Inverse mode at  85     Hk =   2.500

 MRCHDU: Convergence failed at  76  side 1    Res =  0.3752E+01
 MRCHDU: Convergence failed at  77  side 1    Res =  0.3177E+01
 Side 1 forced transition at x/c =  1.0000   77
 Side 2  free  transition at x/c =  0.0605   18

   1   rms: 0.3255E+00   max: 0.3006E+01   T at   18  2   RLX: 0.316
       a = -4.000      CL = -0.3275
      Cm = -0.0373     CD =  0.01406   =>   CDf =  0.00782    CDp =  0.00623

 MRCHDU: Convergence failed at  18  side 2    Res =  0.2108E+02
 MRCHDU: Convergence failed at  19  side 2    Res =  0.1473E+02
 MRCHDU: Convergence failed at  20  side 2    Res =  0.5070E+02
 MRCHDU: Convergence failed at  21  side 2    Res =  0.6386E+03
 MRCHDU: Convergence failed at  22  side 2    Res =  0.5243E+03
 MRCHDU: Convergence failed at  23  side 2    Res =  0.5837E+02
 MRCHDU: Convergence failed at  24  side 2    Res =  0.3950E+02
 MRCHDU: Convergence failed at  25  side 2    Res =  0.3445E+02
 MRCHDU: Convergence failed at  26  side 2    Res =  0.3101E+02
 MRCHDU: Convergence failed at  27  side 2    Res =  0.2957E+02
 MRCHDU: Convergence failed at  28  side 2    Res =  0.2805E+02
 MRCHDU: Convergence failed at  29  side 2    Res =  0.2717E+02
 MRCHDU: Convergence failed at  30  side 2    Res =  0.2625E+02
 MRCHDU: Convergence failed at  31  side 2    Res =  0.2667E+02
 MRCHDU: Convergence failed at  32  side 2    Res =  0.2657E+02
 MRCHDU: Convergence failed at  33  side 2    Res =  0.2614E+02
 MRCHDU: Convergence failed at  34  side 2    Res =  0.2585E+02
 MRCHDU: Convergence failed at  35  side 2    Res =  0.2550E+02
 MRCHDU: Convergence failed at  36  side 2    Res =  0.2491E+02
 MRCHDU: Convergence failed at  37  side 2    Res =  0.2456E+02
 MRCHDU: Convergence failed at  38  side 2    Res =  0.2409E+02
 MRCHDU: Convergence failed at  39  side 2    Res =  0.2365E+02
 MRCHDU: Convergence failed at  40  side 2    Res =  0.1888E+02
 MRCHDU: Convergence failed at  41  side 2    Res =  0.1944E+02
 MRCHDU: Convergence failed at  42  side 2    Res =  0.2002E+02
 MRCHDU: Convergence failed at  43  side 2    Res =  0.2058E+02
 MRCHDU: Convergence failed at  44  side 2    Res =  0.2115E+02
 MRCHDU: Convergence failed at  45  side 2    Res =  0.2704E+02
 MRCHDU: Convergence failed at  46  side 2    Res =  0.2631E+02
 MRCHDU: Convergence failed at  47  side 2    Res =  0.4573E+02
 MRCHDU: Convergence failed at  48  side 2    Res =  0.4283E+02
 MRCHDU: Convergence failed at  49  side 2    Res =  0.4068E+02
 MRCHDU: Convergence failed at  50  side 2    Res =  0.3761E+02
 MRCHDU: Convergence failed at  51  side 2    Res =  0.3607E+02
 MRCHDU: Convergence failed at  52  side 2    Res =  0.3431E+02
 MRCHDU: Convergence failed at  53  side 2    Res =  0.3308E+02
 MRCHDU: Convergence failed at  54  side 2    Res =  0.3206E+02
 MRCHDU: Convergence failed at  55  side 2    Res =  0.3023E+02
 MRCHDU: Convergence failed at  56  side 2    Res =  0.2847E+02
 MRCHDU: Convergence failed at  57  side 2    Res =  0.3521E+02
 MRCHDU: Convergence failed at  58  side 2    Res =  0.3409E+02
 MRCHDU: Convergence failed at  59  side 2    Res =  0.3170E+02
 MRCHDU: Convergence failed at  60  side 2    Res =  0.3064E+02
 MRCHDU: Convergence failed at  61  side 2    Res =  0.2319E+02
 MRCHDU: Convergence failed at  62  side 2    Res =  0.4200E+03
 MRCHDU: Convergence failed at  63  side 2    Res =  0.3119E+03
 MRCHDU: Convergence failed at  64  side 2    Res =  0.2442E+02
 MRCHDU: Convergence failed at  65  side 2    Res =  0.2657E+02
 MRCHDU: Convergence failed at  66  side 2    Res =  0.2503E+02
 MRCHDU: Convergence failed at  67  side 2    Res =  0.2554E+02

[TIMEOUT]
