  
       XFOIL         Version 6.99
  
 Calculated polar for: AH 63-K-127/24                                  
  
 1 1 Reynolds number fixed          Mach number fixed         
  
 xtrf =   1.000 (top)        1.000 (bottom)  
 Mach =   0.000     Re =     0.500 e 6     Ncrit =   9.000
  
   alpha    CL        CD       CDp       CM     Top_Xtr  Bot_Xtr
  ------ -------- --------- --------- -------- -------- --------
-4.000   0.0259   0.01600   0.00937  -0.1010   0.7591   0.0164
-3.500   0.0754   0.01481   0.00802  -0.1000   0.7564   0.0169
-3.000   0.1261   0.01388   0.00705  -0.0993   0.7514   0.0202
-2.500   0.1769   0.01267   0.00610  -0.0988   0.7476   0.1132
-2.000   0.2187   0.01049   0.00579  -0.0976   0.7445   0.6603
-1.500   0.2662   0.01061   0.00623  -0.0954   0.7401   0.7970
-1.000   0.3193   0.01075   0.00630  -0.0947   0.7354   0.8229
-0.500   0.3726   0.01084   0.00632  -0.0938   0.7322   0.8455
0.000   0.4267   0.01087   0.00627  -0.0933   0.7292   0.8594
0.500   0.4774   0.01087   0.00631  -0.0923   0.7228   0.8728
1.000   0.5311   0.01068   0.00610  -0.0918   0.7192   0.8849
1.500   0.5882   0.01044   0.00581  -0.0921   0.7166   0.8930
2.000   0.6403   0.01035   0.00579  -0.0918   0.7090   0.9008
2.500   0.6970   0.01001   0.00546  -0.0921   0.7052   0.9078
3.000   0.7504   0.00983   0.00536  -0.0919   0.6987   0.9171
3.500   0.8052   0.00944   0.00504  -0.0918   0.6927   0.9244
4.000   0.8598   0.00901   0.00468  -0.0917   0.6824   0.9324
4.500   0.9130   0.00855   0.00431  -0.0912   0.6686   0.9409
5.000   0.9655   0.00826   0.00409  -0.0906   0.6515   0.9505
5.500   1.0166   0.00815   0.00401  -0.0899   0.6213   0.9623
6.000   1.0737   0.00842   0.00421  -0.0908   0.5749   0.9786
6.500   1.1235   0.00912   0.00477  -0.0907   0.5155   1.0000
7.000   1.1496   0.01055   0.00577  -0.0863   0.4153   1.0000
7.500   1.1304   0.01358   0.00781  -0.0746   0.2391   1.0000
8.000   1.1195   0.01650   0.01016  -0.0658   0.1394   1.0000
8.500   1.1309   0.01907   0.01249  -0.0615   0.0914   1.0000
9.000   1.1494   0.02134   0.01463  -0.0583   0.0585   1.0000
9.500   1.1648   0.02383   0.01700  -0.0547   0.0322   1.0000
10.000   1.1730   0.02695   0.02008  -0.0504   0.0161   1.0000
10.250   1.1812   0.02826   0.02143  -0.0488   0.0130   1.0000
10.500   1.1783   0.03045   0.02371  -0.0461   0.0110   1.0000
10.750   1.1916   0.03144   0.02476  -0.0452   0.0101   1.0000
11.000   1.1992   0.03290   0.02629  -0.0437   0.0094   1.0000
11.250   1.2053   0.03451   0.02801  -0.0422   0.0089   1.0000
11.500   1.2131   0.03601   0.02958  -0.0409   0.0083   1.0000
11.750   1.2175   0.03785   0.03149  -0.0394   0.0080   1.0000
12.000   1.2188   0.04005   0.03379  -0.0377   0.0075   1.0000
12.250   1.2218   0.04218   0.03602  -0.0363   0.0074   1.0000
12.500   1.2238   0.04460   0.03859  -0.0346   0.0069   1.0000
12.750   1.2317   0.04648   0.04057  -0.0335   0.0069   1.0000
13.000   1.2397   0.04838   0.04261  -0.0325   0.0066   1.0000
13.250   1.2471   0.05045   0.04483  -0.0315   0.0065   1.0000
13.500   1.2538   0.05273   0.04727  -0.0305   0.0064   1.0000
13.750   1.2595   0.05522   0.04993  -0.0296   0.0063   1.0000
14.000   1.2631   0.05799   0.05289  -0.0288   0.0063   1.0000
14.250   1.2640   0.06120   0.05632  -0.0280   0.0062   1.0000
14.500   1.2620   0.06484   0.06020  -0.0274   0.0063   1.0000
14.750   1.2559   0.06901   0.06462  -0.0271   0.0062   1.0000
15.000   1.2463   0.07380   0.06965  -0.0271   0.0063   1.0000
15.250   1.2352   0.07884   0.07492  -0.0275   0.0064   1.0000
15.500   1.2211   0.08452   0.08082  -0.0285   0.0065   1.0000
15.750   1.2045   0.09078   0.08731  -0.0300   0.0065   1.0000
16.000   1.1861   0.09765   0.09440  -0.0322   0.0066   1.0000
