
 ===================================================
  XFOIL Version 6.99
  Copyright (C) 2000   Mark Drela, Harold Youngren

  This software comes with ABSOLUTELY NO WARRANTY,
    subject to the GNU General Public License.

  Caveat computor
 ===================================================

 File  xfoil.def  not found

   QUIT    Exit program

  .OPER    Direct operating point(s)
  .MDES    Complex mapping design routine
  .QDES    Surface speed design routine
  .GDES    Geometry design routine

   SAVE f  Write airfoil to labeled coordinate file
   PSAV f  Write airfoil to plain coordinate file
   ISAV f  Write airfoil to ISES coordinate file
   MSAV f  Write airfoil to MSES coordinate file
   REVE    Reverse written-airfoil node ordering

   LOAD f  Read buffer airfoil from coordinate file
   NACA i  Set NACA 4,5-digit airfoil and buffer airfoil
   INTE    Set buffer airfoil by interpolating two airfoils
   NORM    Buffer airfoil normalization toggle
   XYCM rr Change CM reference location, currently  0.25000 0.00000

   BEND    Display structural properties of current airfoil

   PCOP    Set current-airfoil panel nodes directly from buffer airfoil points
   PANE    Set current-airfoil panel nodes ( 160 ) based on curvature
  .PPAR    Show/change paneling

  .PLOP    Plotting options

   WDEF f  Write  current-settings file
   RDEF f  Reread current-settings file
   NAME s  Specify new airfoil name
   NINC    Increment name version number

   Z       Zoom    | (available in all menus)
   U       Unzoom  | 

 XFOIL   c>  
 Labeled airfoil file.  Name:  AH 63-K-127/24                                  

 Number of input coordinate points:  97
 Counterclockwise ordering
 Max thickness =     0.127070  at x =   0.402
 Max camber    =     0.037549  at x =   0.435

  LE  x,y  =  -0.00000   0.00018  |   Chord =   1.00000
  TE  x,y  =   1.00000   0.00000  |

 Current airfoil nodes set from buffer airfoil nodes (  97 )

 XFOIL   c>  
 XFOIL   c>  
 Sharp trailing edge

 Paneling parameters used...
   Number of panel nodes       160
   Panel bunching parameter    1.000
   TE/LE panel density ratio   0.150
   Refined-area/LE panel density ratio    0.200
   Top    side refined area x/c limits  1.000 1.000
   Bottom side refined area x/c limits  1.000 1.000

 XFOIL   c>  
.OPERi   c>  
 Xtr/c     =  1.0000    top    side
 Xtr/c     =  1.0000    bottom side
 Ncrit     =    9.00   ( 0.070 % turb. level )
 Vacc      =  0.0100

 Klag  =  5.6000     Uxwt  =    1.00
 A     =  6.7000     B     =  0.7500       KCt = 0.01485
 CtiniK=  1.8000     CtiniX=  3.3000

..VPAR   c>  
..VPAR   c>  
.OPERi   c>  
 M  =    0.0000
 Re =    600000

.OPERv   c>  
.OPERv   c>  
.OPERv   c>  
 Polar  1 newly created for accumulation
 Airfoil archived with polar: AH 63-K-127/24                                  

Enter  polar save filename  OR  <return> for no file   s>  
 New polar save file available

Enter  polar dump filename  OR  <return> for no file   s>  
 Polar dump file will NOT be written

 Polar accumulation enabled

.OPERva   c>   Calculating unit vorticity distributions ...
 Calculating wake trajectory ...
 Calculating source influence matrix ...

 Solving BL system ...

 Initializing BL ...
    side            1  ...
 MRCHUE: Inverse mode at  53     Hk =   4.080
 MRCHUE: Inverse mode at  54     Hk =   4.739
 MRCHUE: Inverse mode at  55     Hk =   5.385
 MRCHUE: Inverse mode at  56     Hk =   6.028
 MRCHUE: Inverse mode at  57     Hk =   6.669
 MRCHUE: Inverse mode at  58     Hk =   7.306
 MRCHUE: Inverse mode at  59     Hk =   7.936
 MRCHUE: Inverse mode at  60     Hk =   8.553
 MRCHUE: Inverse mode at  61     Hk =   9.156
 MRCHUE: Inverse mode at  62     Hk =   8.722
 MRCHUE: Inverse mode at  63     Hk =   6.235
 MRCHUE: Inverse mode at  64     Hk =   4.699
 MRCHUE: Inverse mode at  65     Hk =   3.565
 MRCHUE: Inverse mode at  66     Hk =   2.711
 MRCHUE: Convergence failed at  78  side 1    Res =  0.8542E+00
    side            2  ...
 MRCHUE: Inverse mode at  10     Hk =   4.466
 MRCHUE: Inverse mode at  11     Hk =   6.112
 MRCHUE: Convergence failed at  12  side 2    Res =  0.9116E+01
 MRCHUE: Inverse mode at  13     Hk =   8.225
 MRCHUE: Inverse mode at  14     Hk =   2.500
 MRCHUE: Inverse mode at  84     Hk =   2.500

 MRCHDU: Convergence failed at  78  side 1    Res =  0.3879E+00
 MRCHDU: Convergence failed at  14  side 2    Res =  0.8343E+01
 MRCHDU: Convergence failed at  15  side 2    Res =  0.1064E+02
 MRCHDU: Convergence failed at  16  side 2    Res =  0.6217E+02
 MRCHDU: Convergence failed at  17  side 2    Res =  0.2462E+02
 MRCHDU: Convergence failed at  18  side 2    Res =  0.9839E+01
 MRCHDU: Convergence failed at  19  side 2    Res =  0.9500E+02
 MRCHDU: Convergence failed at  20  side 2    Res =  0.1551E+03
 MRCHDU: Convergence failed at  21  side 2    Res =  0.4294E+02
 MRCHDU: Convergence failed at  22  side 2    Res =  0.2020E+02
 MRCHDU: Convergence failed at  23  side 2    Res =  0.2538E+02
 MRCHDU: Convergence failed at  24  side 2    Res =  0.2527E+02
 MRCHDU: Convergence failed at  25  side 2    Res =  0.2565E+02
 MRCHDU: Convergence failed at  26  side 2    Res =  0.2718E+02
 MRCHDU: Convergence failed at  27  side 2    Res =  0.2879E+02
 MRCHDU: Convergence failed at  28  side 2    Res =  0.2938E+02
 MRCHDU: Convergence failed at  29  side 2    Res =  0.3114E+02
 MRCHDU: Convergence failed at  30  side 2    Res =  0.3234E+02
 MRCHDU: Convergence failed at  31  side 2    Res =  0.3134E+02
 MRCHDU: Convergence failed at  32  side 2    Res =  0.7198E+02
 MRCHDU: Convergence failed at  33  side 2    Res =  0.3132E+02
 MRCHDU: Convergence failed at  34  side 2    Res =  0.2293E+02
 MRCHDU: Convergence failed at  35  side 2    Res =  0.2383E+02
 MRCHDU: Convergence failed at  36  side 2    Res =  0.2382E+02
 MRCHDU: Convergence failed at  37  side 2    Res =  0.2383E+02
 MRCHDU: Convergence failed at  38  side 2    Res =  0.2389E+02
 MRCHDU: Convergence failed at  39  side 2    Res =  0.2421E+02
 MRCHDU: Convergence failed at  40  side 2    Res =  0.2247E+02
 MRCHDU: Convergence failed at  41  side 2    Res =  0.2302E+02
 MRCHDU: Convergence failed at  42  side 2    Res =  0.2391E+02
 MRCHDU: Convergence failed at  43  side 2    Res =  0.2473E+02
 MRCHDU: Convergence failed at  44  side 2    Res =  0.2361E+02
 MRCHDU: Convergence failed at  45  side 2    Res =  0.2433E+02
 MRCHDU: Convergence failed at  46  side 2    Res =  0.2491E+02
 MRCHDU: Convergence failed at  47  side 2    Res =  0.2546E+02
 MRCHDU: Convergence failed at  48  side 2    Res =  0.2601E+02
 MRCHDU: Convergence failed at  49  side 2    Res =  0.2676E+02
 MRCHDU: Convergence failed at  50  side 2    Res =  0.2771E+02
 MRCHDU: Convergence failed at  51  side 2    Res =  0.2894E+02
 MRCHDU: Convergence failed at  52  side 2    Res =  0.3071E+02
 MRCHDU: Convergence failed at  53  side 2    Res =  0.3149E+02
 MRCHDU: Convergence failed at  54  side 2    Res =  0.3187E+02
 MRCHDU: Convergence failed at  55  side 2    Res =  0.3244E+02
 MRCHDU: Convergence failed at  56  side 2    Res =  0.3339E+02
 MRCHDU: Convergence failed at  57  side 2    Res =  0.3447E+02
 MRCHDU: Convergence failed at  58  side 2    Res =  0.3567E+02
 MRCHDU: Convergence failed at  59  side 2    Res =  0.3465E+02
 MRCHDU: Convergence failed at  60  side 2    Res =  0.3713E+02
 MRCHDU: Convergence failed at  61  side 2    Res =  0.4208E+02
 MRCHDU: Convergence failed at  62  side 2    Res =  0.4652E+02
 MRCHDU: Convergence failed at  63  side 2    Res =  0.5680E+02
 MRCHDU: Convergence failed at  64  side 2    Res =  0.9550E+02
 MRCHDU: Convergence failed at  65  side 2    Res =  0.1326E+03
 MRCHDU: Convergence failed at  66  side 2    Res =  0.2810E+03
 MRCHDU: Convergence failed at  67  side 2    Res =  0.1693E+03
 MRCHDU: Convergence failed at  68  side 2    Res =  0.1215E+03
 MRCHDU: Convergence failed at  69  side 2    Res =  0.9281E+02
 MRCHDU: Convergence failed at  70  side 2    Res =  0.3093E+02
 MRCHDU: Convergence failed at  71  side 2    Res =  0.4277E+02
 MRCHDU: Convergence failed at  72  side 2    Res =  0.5265E+02
 MRCHDU: Convergence failed at  73  side 2    Res =  0.5276E+02
 MRCHDU: Convergence failed at  74  side 2    Res =  0.6486E+02
 MRCHDU: Convergence failed at  75  side 2    Res =  0.7699E+02
 MRCHDU: Convergence failed at  76  side 2    Res =  0.8823E+02
 MRCHDU: Convergence failed at  77  side 2    Res =  0.9722E+02
 MRCHDU: Convergence failed at  78  side 2    Res =  0.5905E+02
 MRCHDU: Convergence failed at  79  side 2    Res =  0.5412E+02
 MRCHDU: Convergence failed at  80  side 2    Res =  0.1185E+03
 MRCHDU: Convergence failed at  81  side 2    Res =  0.9933E+02
 MRCHDU: Convergence failed at  82  side 2    Res =  0.4972E+02
 MRCHDU: Convergence failed at  83  side 2    Res =  0.1426E+03
 MRCHDU: Convergence failed at  84  side 2    Res =  0.8946E+02
 Side 1  free  transition at x/c =  0.7924   62
 Side 2  free  transition at x/c =  0.0182   14

   1   rms: 0.1401E+01   max: 0.2953E+01   D at   86  2   RLX: 0.377
       a = -4.000      CL = -1.0294
      Cm =  0.2050     CD =  0.00321   =>   CDf =  0.00229    CDp =  0.00092

 Side 1  free  transition at x/c =  0.7749   61
 Side 2  free  transition at x/c =  0.0152   14

   2   rms: 0.5587E+00   max: 0.5024E+00   D at   94  2   RLX: 0.404
       a = -4.000      CL = -0.3653
      Cm =  0.0102     CD =  0.01527   =>   CDf =  0.00575    CDp =  0.00951

 Side 1  free  transition at x/c =  0.7675   60
 Side 2  free  transition at x/c =  0.0145   14

   3   rms: 0.5673E+00   max: -.2418E+01   C at   30  2   RLX: 0.156
       a = -4.000      CL = -0.2751
      Cm = -0.0192     CD =  0.01519   =>   CDf =  0.00550    CDp =  0.00969

 Side 1  free  transition at x/c =  0.7641   60
 Side 2  free  transition at x/c =  0.0143   14

   4   rms: 0.4350E+00   max: -.1429E+01   D at   28  2   RLX: 0.350
       a = -4.000      CL = -0.1432
      Cm = -0.0567     CD =  0.01527   =>   CDf =  0.00546    CDp =  0.00981

 Side 1  free  transition at x/c =  0.7599   60
 Side 2  free  transition at x/c =  0.0142   13

   5   rms: 0.5266E+00   max: -.3205E+01   D at   40  2   RLX: 0.156
       a = -4.000      CL = -0.1135
      Cm = -0.0656     CD =  0.01471   =>   CDf =  0.00564    CDp =  0.00908

 MRCHDU: Convergence failed at  38  side 2    Res =  0.2997E+01
 MRCHDU: Convergence failed at  39  side 2    Res =  0.2990E+00
 MRCHDU: Convergence failed at  40  side 2    Res =  0.8179E-01
 MRCHDU: Convergence failed at  43  side 2    Res =  0.1938E+01
 Side 1  free  transition at x/c =  0.7590   60
 Side 2  free  transition at x/c =  0.0142   13

   6   rms: 0.4515E+00   max: -.2153E+01   D at   50  2   RLX: 0.232
       a = -4.000      CL = -0.1171
      Cm = -0.0657     CD =  0.01507   =>   CDf =  0.00608    CDp =  0.00899

 MRCHDU: Convergence failed at  40  side 2    Res =  0.4013E+00
 MRCHDU: Convergence failed at  41  side 2    Res =  0.1513E+01
 MRCHDU: Convergence failed at  42  side 2    Res =  0.8642E+00
 MRCHDU: Convergence failed at  43  side 2    Res =  0.1252E+01
 MRCHDU: Convergence failed at  46  side 2    Res =  0.3850E+00
 MRCHDU: Convergence failed at  47  side 2    Res =  0.6806E+00
 MRCHDU: Convergence failed at  48  side 2    Res =  0.7921E+00
 MRCHDU: Convergence failed at  49  side 2    Res =  0.8999E+00
 MRCHDU: Convergence failed at  50  side 2    Res =  0.9070E+00
 MRCHDU: Convergence failed at  51  side 2    Res =  0.1707E+01
 MRCHDU: Convergence failed at  52  side 2    Res =  0.9544E+00
 MRCHDU: Convergence failed at  53  side 2    Res =  0.1912E+01
 MRCHDU: Convergence failed at  54  side 2    Res =  0.3486E+01
 MRCHDU: Convergence failed at  55  side 2    Res =  0.1439E+01
 Side 1  free  transition at x/c =  0.7579   60
 Side 2  free  transition at x/c =  0.0142   13

   7   rms: 0.6792E+00   max: -.2805E+01   D at   61  2   RLX: 0.178
       a = -4.000      CL = -0.2844
      Cm = -0.0237     CD =  0.01438   =>   CDf =  0.00776    CDp =  0.00662

 MRCHDU: Convergence failed at  58  side 2    Res =  0.7643E+00
 MRCHDU: Convergence failed at  59  side 2    Res =  0.1109E+01
 MRCHDU: Convergence failed at  60  side 2    Res =  0.1084E+01
 MRCHDU: Convergence failed at  61  side 2    Res =  0.1250E+01
 MRCHDU: Convergence failed at  62  side 2    Res =  0.1887E+01
 MRCHDU: Convergence failed at  63  side 2    Res =  0.4513E+01
 MRCHDU: Convergence failed at  64  side 2    Res =  0.8279E+01
 MRCHDU: Convergence failed at  65  side 2    Res =  0.2154E+01
 MRCHDU: Convergence failed at  66  side 2    Res =  0.1340E+01
 MRCHDU: Convergence failed at  67  side 2    Res =  0.1096E+01
 MRCHDU: Convergence failed at  68  side 2    Res =  0.1351E+01
 MRCHDU: Convergence failed at  69  side 2    Res =  0.1973E+01
 MRCHDU: Convergence failed at  70  side 2    Res =  0.3602E+01
 MRCHDU: Convergence failed at  71  side 2    Res =  0.2442E+02
 MRCHDU: Convergence failed at  72  side 2    Res =  0.5115E+01
 MRCHDU: Convergence failed at  73  side 2    Res =  0.2794E+01
 MRCHDU: Convergence failed at  74  side 2    Res =  0.2130E+01
 MRCHDU: Convergence failed at  75  side 2    Res =  0.1813E+01
 MRCHDU: Convergence failed at  76  side 2    Res =  0.1647E+01
 MRCHDU: Convergence failed at  77  side 2    Res =  0.1564E+01
 MRCHDU: Convergence failed at  78  side 2    Res =  0.1521E+01
 MRCHDU: Convergence failed at  79  side 2    Res =  0.1503E+01
 MRCHDU: Convergence failed at  80  side 2    Res =  0.1542E+01
 MRCHDU: Convergence failed at  81  side 2    Res =  0.1541E+01
 MRCHDU: Convergence failed at  82  side 2    Res =  0.1463E+01
 MRCHDU: Convergence failed at  83  side 2    Res =  0.6959E+01
 MRCHDU: Convergence failed at  84  side 2    Res =  0.3590E+01
 Side 1  free  transition at x/c =  0.7570   60
 Side 2  free  transition at x/c =  0.0142   13

   8   rms: 0.4799E+00   max: -.4894E+00   U at   84  2   RLX: 0.766
       a = -4.000      CL = -0.1151
      Cm = -0.0489     CD =  0.01139   =>   CDf =  0.00915    CDp =  0.00224

 Side 1  free  transition at x/c =  0.7551   59
 Side 2  free  transition at x/c =  0.0144   14

   9   rms: 0.1712E+00   max: 0.2887E+00   D at   91  2
       a = -4.000      CL =  0.0250
      Cm = -0.1005     CD =  0.01490   =>   CDf =  0.00711    CDp =  0.00779

 Side 1  free  transition at x/c =  0.7515   59
 Side 2  free  transition at x/c =  0.0145   14

  10   rms: 0.7155E-02   max: 0.5024E-01   D at   63  1
       a = -4.000      CL =  0.0289
      Cm = -0.1010     CD =  0.01563   =>   CDf =  0.00640    CDp =  0.00923

 Side 1  free  transition at x/c =  0.7514   59
 Side 2  free  transition at x/c =  0.0145   14

  11   rms: 0.1096E-03   max: -.1537E-02   D at   63  1
       a = -4.000      CL =  0.0289
      Cm = -0.1010     CD =  0.01563   =>   CDf =  0.00640    CDp =  0.00923

 Side 1  free  transition at x/c =  0.7514   59
 Side 2  free  transition at x/c =  0.0145   14

  12   rms: 0.7292E-06   max: 0.3566E-05   T at   59  1
       a = -4.000      CL =  0.0289
      Cm = -0.1010     CD =  0.01563   =>   CDf =  0.00640    CDp =  0.00923
 plradd ia,ip,cpol            1           0  6.22308056E-04

 Point added to stored polar  1
 Point written to save file  ah63k127_Re600k.base.pol                        
 Dump file unspecified or not available
 Calculating wake trajectory ...
 Calculating source influence matrix ...

 Solving BL system ...

 Side 1  free  transition at x/c =  0.7514   59
 Side 2  free  transition at x/c =  0.0145   14

   1   rms: 0.9915E-01   max: -.2639E+00   D at   16  2
       a = -3.500      CL =  0.0808
      Cm = -0.1004     CD =  0.01433   =>   CDf =  0.00650    CDp =  0.00783

 Side 1  free  transition at x/c =  0.7475   60
 Side 2  free  transition at x/c =  0.0145   13

   2   rms: 0.2399E-01   max: 0.1586E+00   D at   13  2
       a = -3.500      CL =  0.0788
      Cm = -0.1000     CD =  0.01395   =>   CDf =  0.00652    CDp =  0.00743

 Side 1  free  transition at x/c =  0.7481   60
 Side 2  free  transition at x/c =  0.0145   13

   3   rms: 0.1407E-02   max: 0.9272E-02   D at   14  2
       a = -3.500      CL =  0.0787
      Cm = -0.1000     CD =  0.01392   =>   CDf =  0.00653    CDp =  0.00739

 Side 1  free  transition at x/c =  0.7481   60
 Side 2  free  transition at x/c =  0.0145   13

   4   rms: 0.3175E-05   max: 0.3365E-04   D at   13  2
       a = -3.500      CL =  0.0787
      Cm = -0.1000     CD =  0.01392   =>   CDf =  0.00653    CDp =  0.00739
 plradd ia,ip,cpol            2           0  1.73409970E-03

 Point added to stored polar  1
 Point written to save file  ah63k127_Re600k.base.pol                        
 Dump file unspecified or not available
 Calculating wake trajectory ...
 Calculating source influence matrix ...

 Solving BL system ...

 Side 1  free  transition at x/c =  0.7481   60
 Side 2  free  transition at x/c =  0.0145   13

   1   rms: 0.1760E+00   max: -.7287E+00   D at   14  2   RLX: 0.686
       a = -3.000      CL =  0.1114
      Cm = -0.0992     CD =  0.01256   =>   CDf =  0.00653    CDp =  0.00603

 Side 1  free  transition at x/c =  0.7460   60
 Side 2  free  transition at x/c =  0.0162   13

   2   rms: 0.4100E-01   max: -.1567E+00   T at   13  2
       a = -3.000      CL =  0.1292
      Cm = -0.0993     CD =  0.01258   =>   CDf =  0.00665    CDp =  0.00593

 Side 1  free  transition at x/c =  0.7453   60
 Side 2  free  transition at x/c =  0.0182   13

   3   rms: 0.1347E-01   max: 0.2048E+00   D at   13  2
       a = -3.000      CL =  0.1296
      Cm = -0.0994     CD =  0.01266   =>   CDf =  0.00669    CDp =  0.00597

 Side 1  free  transition at x/c =  0.7453   60
 Side 2  free  transition at x/c =  0.0179   13

   4   rms: 0.5098E-03   max: 0.5737E-02   D at   13  2
       a = -3.000      CL =  0.1296
      Cm = -0.0994     CD =  0.01266   =>   CDf =  0.00667    CDp =  0.00599

 Side 1  free  transition at x/c =  0.7453   60
 Side 2  free  transition at x/c =  0.0179   13

   5   rms: 0.1915E-05   max: -.1210E-04   T at   60  1
       a = -3.000      CL =  0.1296
      Cm = -0.0994     CD =  0.01266   =>   CDf =  0.00667    CDp =  0.00599
 plradd ia,ip,cpol            3           0  1.73409970E-03

 Point added to stored polar  1
 Point written to save file  ah63k127_Re600k.base.pol                        
 Dump file unspecified or not available
 Calculating wake trajectory ...
 Calculating source influence matrix ...

 Solving BL system ...

 Side 1  free  transition at x/c =  0.7453   60
 Side 2  free  transition at x/c =  0.0179   13

   1   rms: 0.1100E+00   max: -.7262E+00   T at   13  2   RLX: 0.689
       a = -2.500      CL =  0.1667
      Cm = -0.0993     CD =  0.01222   =>   CDf =  0.00667    CDp =  0.00555

 Side 1  free  transition at x/c =  0.7436   60
 Side 2  free  transition at x/c =  0.0226   14

   2   rms: 0.8814E-01   max: -.5037E+00   T at   14  2   RLX: 0.993
       a = -2.500      CL =  0.1826
      Cm = -0.0990     CD =  0.01189   =>   CDf =  0.00675    CDp =  0.00514

 Side 1  free  transition at x/c =  0.7431   59
 Side 2  free  transition at x/c =  0.0589   17

   3   rms: 0.7800E-01   max: -.1426E+01   C at   17  2   RLX: 0.351
       a = -2.500      CL =  0.1818
      Cm = -0.0991     CD =  0.01183   =>   CDf =  0.00665    CDp =  0.00517

 Side 1  free  transition at x/c =  0.7429   59
 Side 2  free  transition at x/c =  0.0809   18

   4   rms: 0.3366E-01   max: -.7919E+00   C at   18  2   RLX: 0.631
       a = -2.500      CL =  0.1818
      Cm = -0.0990     CD =  0.01177   =>   CDf =  0.00654    CDp =  0.00522

 Side 1  free  transition at x/c =  0.7428   59
 Side 2  free  transition at x/c =  0.0889   19

   5   rms: 0.2342E-01   max: 0.5308E+00   C at   19  2
       a = -2.500      CL =  0.1821
      Cm = -0.0990     CD =  0.01182   =>   CDf =  0.00651    CDp =  0.00531

 Side 1  free  transition at x/c =  0.7427   59
 Side 2  free  transition at x/c =  0.0792   18

   6   rms: 0.1063E-01   max: 0.2566E+00   C at   18  2
       a = -2.500      CL =  0.1821
      Cm = -0.0990     CD =  0.01184   =>   CDf =  0.00655    CDp =  0.00529

 Side 1  free  transition at x/c =  0.7427   59
 Side 2  free  transition at x/c =  0.0740   18

   7   rms: 0.4086E-03   max: -.7266E-02   C at   18  2
       a = -2.500      CL =  0.1821
      Cm = -0.0990     CD =  0.01184   =>   CDf =  0.00657    CDp =  0.00527

 Side 1  free  transition at x/c =  0.7427   59
 Side 2  free  transition at x/c =  0.0741   18

   8   rms: 0.1713E-05   max: -.2575E-04   C at   18  2
       a = -2.500      CL =  0.1821
      Cm = -0.0990     CD =  0.01184   =>   CDf =  0.00657    CDp =  0.00527
 plradd ia,ip,cpol            4           0  1.73409970E-03

 Point added to stored polar  1
 Point written to save file  ah63k127_Re600k.base.pol                        
 Dump file unspecified or not available
 Calculating wake trajectory ...
 Calculating source influence matrix ...

 Solving BL system ...

 Side 1  free  transition at x/c =  0.7427   59
 Side 2  free  transition at x/c =  0.0741   18

   1   rms: 0.1409E+01   max: -.3143E+02   C at   18  2   RLX: 0.016
       a = -2.000      CL =  0.1827
      Cm = -0.0990     CD =  0.01178   =>   CDf =  0.00657    CDp =  0.00521

 Side 1  free  transition at x/c =  0.7426   59
 Side 2  free  transition at x/c =  0.0825   18

   2   rms: 0.1210E+01   max: -.2942E+02   C at   18  2   RLX: 0.017
       a = -2.000      CL =  0.1837
      Cm = -0.0990     CD =  0.01176   =>   CDf =  0.00654    CDp =  0.00522

 Side 1  free  transition at x/c =  0.7425   59
 Side 2  free  transition at x/c =  0.0941   19

   3   rms: 0.7713E+00   max: -.1796E+02   C at   19  2   RLX: 0.028
       a = -2.000      CL =  0.1849
      Cm = -0.0989     CD =  0.01169   =>   CDf =  0.00649    CDp =  0.00520

 Side 1  free  transition at x/c =  0.7424   59
 Side 2  free  transition at x/c =  0.1101   20

   4   rms: 0.4674E+00   max: -.1046E+02   C at   20  2   RLX: 0.048
       a = -2.000      CL =  0.1870
      Cm = -0.0990     CD =  0.01161   =>   CDf =  0.00643    CDp =  0.00518

 Side 1  free  transition at x/c =  0.7422   59
 Side 2  free  transition at x/c =  0.1368   22

   5   rms: 0.2973E+00   max: -.6056E+01   C at   22  2   RLX: 0.083
       a = -2.000      CL =  0.1903
      Cm = -0.0990     CD =  0.01147   =>   CDf =  0.00639    CDp =  0.00509

 Side 1  free  transition at x/c =  0.7418   60
 Side 2  free  transition at x/c =  0.1714   24

   6   rms: 0.6449E+00   max: -.1134E+02   C at   24  2   RLX: 0.044
       a = -2.000      CL =  0.1912
      Cm = -0.0990     CD =  0.01131   =>   CDf =  0.00621    CDp =  0.00510

 Side 1  free  transition at x/c =  0.7416   60
 Side 2  free  transition at x/c =  0.1813   24

   7   rms: 0.7580E+00   max: -.1691E+02   C at   24  2   RLX: 0.030
       a = -2.000      CL =  0.1925
      Cm = -0.0990     CD =  0.01128   =>   CDf =  0.00617    CDp =  0.00512

 Side 1  free  transition at x/c =  0.7414   60
 Side 2  free  transition at x/c =  0.1862   25

   8   rms: 0.5116E+00   max: -.1104E+02   C at   25  2   RLX: 0.045
       a = -2.000      CL =  0.1944
      Cm = -0.0990     CD =  0.01124   =>   CDf =  0.00615    CDp =  0.00509

 Side 1  free  transition at x/c =  0.7413   60
 Side 2  free  transition at x/c =  0.1962   25

   9   rms: 0.6630E+00   max: -.1463E+02   C at   25  2   RLX: 0.034
       a = -2.000      CL =  0.1957
      Cm = -0.0990     CD =  0.01121   =>   CDf =  0.00611    CDp =  0.00510

 Side 1  free  transition at x/c =  0.7411   60
 Side 2  free  transition at x/c =  0.2030   26

  10   rms: 0.5171E+00   max: -.1142E+02   C at   26  2   RLX: 0.044
       a = -2.000      CL =  0.1973
      Cm = -0.0989     CD =  0.01117   =>   CDf =  0.00608    CDp =  0.00508

 Side 1  free  transition at x/c =  0.7410   60
 Side 2  free  transition at x/c =  0.2129   27

  11   rms: 0.4876E+00   max: -.1034E+02   C at   27  2   RLX: 0.048
       a = -2.000      CL =  0.1989
      Cm = -0.0989     CD =  0.01111   =>   CDf =  0.00605    CDp =  0.00506

 Side 1  free  transition at x/c =  0.7408   60
 Side 2  free  transition at x/c =  0.2240   27

  12   rms: 0.4710E+00   max: -.1029E+02   C at   27  2   RLX: 0.049
       a = -2.000      CL =  0.2006
      Cm = -0.0989     CD =  0.01108   =>   CDf =  0.00601    CDp =  0.00508

 Side 1  free  transition at x/c =  0.7406   60
 Side 2  free  transition at x/c =  0.2367   28

  13   rms: 0.3921E+00   max: -.8522E+01   C at   28  2   RLX: 0.059
       a = -2.000      CL =  0.2022
      Cm = -0.0989     CD =  0.01103   =>   CDf =  0.00596    CDp =  0.00506

 Side 1  free  transition at x/c =  0.7404   60
 Side 2  free  transition at x/c =  0.2513   29

  14   rms: 0.3282E+00   max: -.7060E+01   C at   29  2   RLX: 0.071
       a = -2.000      CL =  0.2040
      Cm = -0.0989     CD =  0.01097   =>   CDf =  0.00592    CDp =  0.00505

 Side 1  free  transition at x/c =  0.7402   60
 Side 2  free  transition at x/c =  0.2676   30

  15   rms: 0.2594E+00   max: -.5498E+01   C at   30  2   RLX: 0.091
       a = -2.000      CL =  0.2062
      Cm = -0.0989     CD =  0.01090   =>   CDf =  0.00586    CDp =  0.00504

 Side 1  free  transition at x/c =  0.7400   60
 Side 2  free  transition at x/c =  0.2881   32

  16   rms: 0.2953E+00   max: -.6164E+01   C at   32  2   RLX: 0.081
       a = -2.000      CL =  0.2077
      Cm = -0.0989     CD =  0.01080   =>   CDf =  0.00579    CDp =  0.00500

 Side 1  free  transition at x/c =  0.7398   60
 Side 2  free  transition at x/c =  0.2990   33

  17   rms: 0.2563E+00   max: -.5175E+01   C at   33  2   RLX: 0.097
       a = -2.000      CL =  0.2098
      Cm = -0.0989     CD =  0.01074   =>   CDf =  0.00576    CDp =  0.00498

 Side 1  free  transition at x/c =  0.7396   60
 Side 2  free  transition at x/c =  0.3112   33

  18   rms: 0.2888E+00   max: -.6016E+01   C at   33  2   RLX: 0.083
       a = -2.000      CL =  0.2116
      Cm = -0.0989     CD =  0.01071   =>   CDf =  0.00572    CDp =  0.00499

 Side 1  free  transition at x/c =  0.7394   60
 Side 2  free  transition at x/c =  0.3228   34

  19   rms: 0.3158E+00   max: -.6581E+01   C at   34  2   RLX: 0.076
       a = -2.000      CL =  0.2129
      Cm = -0.0989     CD =  0.01065   =>   CDf =  0.00567    CDp =  0.00498

 Side 1  free  transition at x/c =  0.7393   60
 Side 2  free  transition at x/c =  0.3337   35

  20   rms: 0.3182E+00   max: -.6623E+01   C at   35  2   RLX: 0.075
       a = -2.000      CL =  0.2141
      Cm = -0.0989     CD =  0.01059   =>   CDf =  0.00563    CDp =  0.00496

 Side 1  free  transition at x/c =  0.7392   60
 Side 2  free  transition at x/c =  0.3459   36

  21   rms: 0.3388E+00   max: -.7030E+01   C at   36  2   RLX: 0.071
       a = -2.000      CL =  0.2150
      Cm = -0.0989     CD =  0.01054   =>   CDf =  0.00559    CDp =  0.00495

 Side 1  free  transition at x/c =  0.7391   60
 Side 2  free  transition at x/c =  0.3585   37

  22   rms: 0.3565E+00   max: -.7372E+01   C at   37  2   RLX: 0.068
       a = -2.000      CL =  0.2158
      Cm = -0.0989     CD =  0.01048   =>   CDf =  0.00554    CDp =  0.00494

 Side 1  free  transition at x/c =  0.7390   60
 Side 2  free  transition at x/c =  0.3714   38

  23   rms: 0.3139E+00   max: -.6481E+01   C at   38  2   RLX: 0.077
       a = -2.000      CL =  0.2167
      Cm = -0.0989     CD =  0.01043   =>   CDf =  0.00550    CDp =  0.00493

 Side 1  free  transition at x/c =  0.7389   60
 Side 2  free  transition at x/c =  0.3860   39

  24   rms: 0.3295E+00   max: -.6778E+01   C at   39  2   RLX: 0.074
       a = -2.000      CL =  0.2174
      Cm = -0.0989     CD =  0.01037   =>   CDf =  0.00545    CDp =  0.00492

 Side 1  free  transition at x/c =  0.7388   60
 Side 2  free  transition at x/c =  0.3992   39

  25   rms: 0.3624E+00   max: -.7101E+01   C at   39  2   RLX: 0.070
       a = -2.000      CL =  0.2181
      Cm = -0.0989     CD =  0.01033   =>   CDf =  0.00541    CDp =  0.00493

 Side 1  free  transition at x/c =  0.7387   60
 Side 2  free  transition at x/c =  0.4122   40

  26   rms: 0.2933E+00   max: -.5806E+01   C at   40  2   RLX: 0.086
       a = -2.000      CL =  0.2188
      Cm = -0.0988     CD =  0.01029   =>   CDf =  0.00537    CDp =  0.00492

 Side 1  free  transition at x/c =  0.7386   60
 Side 2  free  transition at x/c =  0.4278   41

  27   rms: 0.2317E+00   max: -.4568E+01   C at   41  2   RLX: 0.109
       a = -2.000      CL =  0.2196
      Cm = -0.0988     CD =  0.01023   =>   CDf =  0.00532    CDp =  0.00491

 Side 1  free  transition at x/c =  0.7386   60
 Side 2  free  transition at x/c =  0.4466   43

  28   rms: 0.1944E+00   max: -.3928E+01   C at   43  2   RLX: 0.127
       a = -2.000      CL =  0.2202
      Cm = -0.0987     CD =  0.01014   =>   CDf =  0.00525    CDp =  0.00489

 Side 1  free  transition at x/c =  0.7385   60
 Side 2  free  transition at x/c =  0.4595   44

  29   rms: 0.1567E+00   max: -.3141E+01   C at   44  2   RLX: 0.159
       a = -2.000      CL =  0.2212
      Cm = -0.0987     CD =  0.01009   =>   CDf =  0.00522    CDp =  0.00487

 Side 1  free  transition at x/c =  0.7383   60
 Side 2  free  transition at x/c =  0.4724   44

  30   rms: 0.1373E+00   max: -.2674E+01   C at   44  2   RLX: 0.187
       a = -2.000      CL =  0.2223
      Cm = -0.0988     CD =  0.01005   =>   CDf =  0.00517    CDp =  0.00488

 Side 1  free  transition at x/c =  0.7382   60
 Side 2  free  transition at x/c =  0.4890   46

  31   rms: 0.1131E+00   max: -.2255E+01   C at   46  2   RLX: 0.222
       a = -2.000      CL =  0.2230
      Cm = -0.0987     CD =  0.00997   =>   CDf =  0.00511    CDp =  0.00486

 Side 1  free  transition at x/c =  0.7381   60
 Side 2  free  transition at x/c =  0.5020   47

  32   rms: 0.8729E-01   max: -.1729E+01   C at   47  2   RLX: 0.289
       a = -2.000      CL =  0.2239
      Cm = -0.0987     CD =  0.00992   =>   CDf =  0.00507    CDp =  0.00485

 Side 1  free  transition at x/c =  0.7380   60
 Side 2  free  transition at x/c =  0.5153   47

  33   rms: 0.6733E-01   max: -.1297E+01   C at   47  2   RLX: 0.385
       a = -2.000      CL =  0.2248
      Cm = -0.0986     CD =  0.00989   =>   CDf =  0.00502    CDp =  0.00486

 Side 1  free  transition at x/c =  0.7379   60
 Side 2  free  transition at x/c =  0.5324   49

  34   rms: 0.3734E-01   max: -.7362E+00   C at   49  2   RLX: 0.679
       a = -2.000      CL =  0.2253
      Cm = -0.0985     CD =  0.00981   =>   CDf =  0.00497    CDp =  0.00484

 Side 1  free  transition at x/c =  0.7378   60
 Side 2  free  transition at x/c =  0.5454   50

  35   rms: 0.1603E-01   max: -.3159E+00   C at   50  2
       a = -2.000      CL =  0.2257
      Cm = -0.0985     CD =  0.00978   =>   CDf =  0.00493    CDp =  0.00486

 Side 1  free  transition at x/c =  0.7378   60
 Side 2  free  transition at x/c =  0.5548   50

  36   rms: 0.1895E-02   max: -.3724E-01   C at   50  2
       a = -2.000      CL =  0.2257
      Cm = -0.0985     CD =  0.00979   =>   CDf =  0.00489    CDp =  0.00489

 Side 1  free  transition at x/c =  0.7378   60
 Side 2  free  transition at x/c =  0.5560   50

  37   rms: 0.3915E-04   max: -.7570E-03   C at   50  2
       a = -2.000      CL =  0.2257
      Cm = -0.0985     CD =  0.00979   =>   CDf =  0.00489    CDp =  0.00490
 plradd ia,ip,cpol            5           0  1.73409970E-03

 Point added to stored polar  1
 Point written to save file  ah63k127_Re600k.base.pol                        
 Dump file unspecified or not available
 Calculating wake trajectory ...
 Calculating source influence matrix ...

 Solving BL system ...

 Side 1  free  transition at x/c =  0.7378   60
 Side 2  free  transition at x/c =  0.5560   50

   1   rms: 0.7535E+00   max: -.1457E+02   C at   50  2   RLX: 0.034
       a = -1.500      CL =  0.2272
      Cm = -0.0984     CD =  0.00973   =>   CDf =  0.00489    CDp =  0.00484

 Side 1  free  transition at x/c =  0.7377   60
 Side 2  free  transition at x/c =  0.5747   52

   2   rms: 0.7285E+00   max: -.1410E+02   C at   52  2   RLX: 0.035
       a = -1.500      CL =  0.2285
      Cm = -0.0983     CD =  0.00965   =>   CDf =  0.00483    CDp =  0.00482

 Side 1  free  transition at x/c =  0.7375   60
 Side 2  free  transition at x/c =  0.5880   52

   3   rms: 0.6589E+00   max: -.1251E+02   C at   52  2   RLX: 0.040
       a = -1.500      CL =  0.2304
      Cm = -0.0984     CD =  0.00961   =>   CDf =  0.00478    CDp =  0.00483

 Side 1  free  transition at x/c =  0.7374   60
 Side 2  free  transition at x/c =  0.6058   54

   4   rms: 0.6280E+00   max: -.1210E+02   C at   54  2   RLX: 0.041
       a = -1.500      CL =  0.2318
      Cm = -0.0982     CD =  0.00954   =>   CDf =  0.00471    CDp =  0.00482

 Side 1  free  transition at x/c =  0.7372   60
 Side 2  free  transition at x/c =  0.6195   55

   5   rms: 0.5435E+00   max: -.1040E+02   C at   55  2   RLX: 0.048
       a = -1.500      CL =  0.2337
      Cm = -0.0982     CD =  0.00949   =>   CDf =  0.00467    CDp =  0.00483

 Side 1  free  transition at x/c =  0.7371   60
 Side 2  free  transition at x/c =  0.6329   56

   6   rms: 0.4608E+00   max: -.8751E+01   C at   56  2   RLX: 0.057
       a = -1.500      CL =  0.2359
      Cm = -0.0982     CD =  0.00945   =>   CDf =  0.00462    CDp =  0.00483

 Side 1  free  transition at x/c =  0.7369   60
 Side 2  free  transition at x/c =  0.6463   57

   7   rms: 0.3929E+00   max: -.7355E+01   C at   57  2   RLX: 0.068
       a = -1.500      CL =  0.2384
      Cm = -0.0982     CD =  0.00941   =>   CDf =  0.00458    CDp =  0.00483

 Side 1  free  transition at x/c =  0.7367   60
 Side 2  free  transition at x/c =  0.6597   57

   8   rms: 0.2962E+00   max: -.5471E+01   C at   57  2   RLX: 0.091
       a = -1.500      CL =  0.2418
      Cm = -0.0982     CD =  0.00939   =>   CDf =  0.00453    CDp =  0.00486

 Side 1  free  transition at x/c =  0.7364   60
 Side 2  free  transition at x/c =  0.6823   59

   9   rms: 0.2102E+00   max: -.3688E+01   C at   59  2   RLX: 0.136
       a = -1.500      CL =  0.2457
      Cm = -0.0979     CD =  0.00934   =>   CDf =  0.00445    CDp =  0.00489

 Side 1  free  transition at x/c =  0.7361   60
 Side 2  free  transition at x/c =  0.7042   61

  10   rms: 0.1458E+00   max: -.2161E+01   C at   61  2   RLX: 0.231
       a = -1.500      CL =  0.2520
      Cm = -0.0976     CD =  0.00930   =>   CDf =  0.00442    CDp =  0.00488

 Side 1  free  transition at x/c =  0.7357   60
 Side 2  free  transition at x/c =  0.7245   62

  11   rms: 0.7767E-01   max: 0.4720E+00   D at   63  2
       a = -1.500      CL =  0.2747
      Cm = -0.0970     CD =  0.00931   =>   CDf =  0.00437    CDp =  0.00494

 MRCHDU: Convergence failed at  66  side 2    Res =  0.1740E+02
 MRCHDU: Convergence failed at  67  side 2    Res =  0.2312E+01
 MRCHDU: Convergence failed at  68  side 2    Res =  0.1564E+01
 MRCHDU: Convergence failed at  69  side 2    Res =  0.1555E+01
 MRCHDU: Convergence failed at  70  side 2    Res =  0.2190E+01
 MRCHDU: Convergence failed at  71  side 2    Res =  0.3867E+01
 MRCHDU: Convergence failed at  72  side 2    Res =  0.2520E+01
 MRCHDU: Convergence failed at  73  side 2    Res =  0.2773E+01
 MRCHDU: Convergence failed at  74  side 2    Res =  0.3000E+01
 MRCHDU: Convergence failed at  75  side 2    Res =  0.3201E+01
 MRCHDU: Convergence failed at  76  side 2    Res =  0.3365E+01
 MRCHDU: Convergence failed at  77  side 2    Res =  0.3477E+01
 MRCHDU: Convergence failed at  78  side 2    Res =  0.3636E+01
 MRCHDU: Convergence failed at  79  side 2    Res =  0.3734E+01
 MRCHDU: Convergence failed at  80  side 2    Res =  0.3691E+01
 MRCHDU: Convergence failed at  81  side 2    Res =  0.3797E+01
 MRCHDU: Convergence failed at  82  side 2    Res =  0.3557E+01
 Side 1  free  transition at x/c =  0.7341   60
 Side 2  free  transition at x/c =  0.8566   71

  12   rms: 0.1566E+00   max: 0.1154E+01   C at   71  2
       a = -1.500      CL =  0.2982
      Cm = -0.1020     CD =  0.00879   =>   CDf =  0.00393    CDp =  0.00487

 Side 1  free  transition at x/c =  0.7346   60
 Side 2  free  transition at x/c =  0.8096   68

  13   rms: 0.6942E-01   max: -.5689E+00   D at   72  2   RLX: 0.879
       a = -1.500      CL =  0.2770
      Cm = -0.0973     CD =  0.00928   =>   CDf =  0.00417    CDp =  0.00512

 Side 1  free  transition at x/c =  0.7343   60
 Side 2  free  transition at x/c =  0.7841   66

  14   rms: 0.2957E-01   max: -.3851E+00   D at   67  2
       a = -1.500      CL =  0.2738
      Cm = -0.0967     CD =  0.00933   =>   CDf =  0.00424    CDp =  0.00508

 Side 1  free  transition at x/c =  0.7343   60
 Side 2  free  transition at x/c =  0.7805   66

  15   rms: 0.1446E-02   max: -.1834E-01   D at   69  2
       a = -1.500      CL =  0.2738
      Cm = -0.0966     CD =  0.00934   =>   CDf =  0.00425    CDp =  0.00509

 Side 1  free  transition at x/c =  0.7343   60
 Side 2  free  transition at x/c =  0.7799   66

  16   rms: 0.3106E-04   max: -.3580E-03   C at   66  2
       a = -1.500      CL =  0.2738
      Cm = -0.0966     CD =  0.00934   =>   CDf =  0.00425    CDp =  0.00509
 plradd ia,ip,cpol            6           0  1.73409970E-03

 Point added to stored polar  1
 Point written to save file  ah63k127_Re600k.base.pol                        
 Dump file unspecified or not available
 Calculating wake trajectory ...
 Calculating source influence matrix ...

 Solving BL system ...

 Side 1  free  transition at x/c =  0.7343   60
 Side 2  free  transition at x/c =  0.7799   66

   1   rms: 0.1422E+00   max: 0.9312E+00   D at   67  2   RLX: 0.785
       a = -1.000      CL =  0.3139
      Cm = -0.0953     CD =  0.00940   =>   CDf =  0.00430    CDp =  0.00510

 Side 1  free  transition at x/c =  0.7318   61
 Side 2  free  transition at x/c =  0.7840   65

   2   rms: 0.8908E-01   max: -.8286E+00   T at   65  2   RLX: 0.603
       a = -1.000      CL =  0.3296
      Cm = -0.0984     CD =  0.01052   =>   CDf =  0.00441    CDp =  0.00611

 MRCHDU: Convergence failed at  67  side 2    Res =  0.7869E+02
 MRCHDU: Convergence failed at  68  side 2    Res =  0.2473E+01
 MRCHDU: Convergence failed at  69  side 2    Res =  0.2194E+01
 MRCHDU: Convergence failed at  70  side 2    Res =  0.2266E+01
 MRCHDU: Convergence failed at  71  side 2    Res =  0.2782E+01
 MRCHDU: Convergence failed at  72  side 2    Res =  0.3250E+01
 MRCHDU: Convergence failed at  73  side 2    Res =  0.3779E+01
 MRCHDU: Convergence failed at  74  side 2    Res =  0.4042E+01
 MRCHDU: Convergence failed at  75  side 2    Res =  0.4217E+01
 MRCHDU: Convergence failed at  76  side 2    Res =  0.4313E+01
 MRCHDU: Convergence failed at  77  side 2    Res =  0.3980E+01
 MRCHDU: Convergence failed at  78  side 2    Res =  0.3453E+01
 MRCHDU: Convergence failed at  79  side 2    Res =  0.3308E+01
 MRCHDU: Convergence failed at  80  side 2    Res =  0.2529E+01
 MRCHDU: Convergence failed at  81  side 2    Res =  0.3802E+01
 Side 1  free  transition at x/c =  0.7317   61
 Side 2  free  transition at x/c =  0.8115   67

   3   rms: 0.1454E+00   max: 0.8695E+00   T at   74  2
       a = -1.000      CL =  0.3396
      Cm = -0.0988     CD =  0.00898   =>   CDf =  0.00394    CDp =  0.00505

 Side 1  free  transition at x/c =  0.7318   61
 Side 2  free  transition at x/c =  0.8075   67

   4   rms: 0.1984E-01   max: -.2536E+00   D at   68  2
       a = -1.000      CL =  0.3296
      Cm = -0.0965     CD =  0.00937   =>   CDf =  0.00435    CDp =  0.00502

 Side 1  free  transition at x/c =  0.7316   61
 Side 2  free  transition at x/c =  0.8095   67

   5   rms: 0.2166E-02   max: 0.2973E-01   D at   68  2
       a = -1.000      CL =  0.3294
      Cm = -0.0964     CD =  0.00937   =>   CDf =  0.00433    CDp =  0.00504

 Side 1  free  transition at x/c =  0.7316   61
 Side 2  free  transition at x/c =  0.8089   67

   6   rms: 0.2170E-04   max: -.3656E-03   D at   67  2
       a = -1.000      CL =  0.3294
      Cm = -0.0964     CD =  0.00937   =>   CDf =  0.00433    CDp =  0.00504
 plradd ia,ip,cpol            7           0  0.39781049    

 Point added to stored polar  1
 Point written to save file  ah63k127_Re600k.base.pol                        
 Dump file unspecified or not available
 Calculating wake trajectory ...
 Calculating source influence matrix ...

 Solving BL system ...

 Side 1  free  transition at x/c =  0.7316   61
 Side 2  free  transition at x/c =  0.8089   67

   1   rms: 0.9569E-01   max: -.4768E+00   T at   67  2
       a = -0.500      CL =  0.3838
      Cm = -0.0958     CD =  0.00944   =>   CDf =  0.00434    CDp =  0.00510

 Side 1  free  transition at x/c =  0.7295   60
 Side 2  free  transition at x/c =  0.8283   68

   2   rms: 0.1036E-01   max: -.9876E-01   T at   68  2
       a = -0.500      CL =  0.3832
      Cm = -0.0958     CD =  0.00951   =>   CDf =  0.00441    CDp =  0.00510

 Side 1  free  transition at x/c =  0.7284   60
 Side 2  free  transition at x/c =  0.8325   68

   3   rms: 0.2659E-02   max: -.3578E-01   D at   69  2
       a = -0.500      CL =  0.3835
      Cm = -0.0959     CD =  0.00952   =>   CDf =  0.00438    CDp =  0.00514

 Side 1  free  transition at x/c =  0.7284   60
 Side 2  free  transition at x/c =  0.8331   68

   4   rms: 0.1200E-04   max: 0.1106E-03   D at   69  2
       a = -0.500      CL =  0.3835
      Cm = -0.0959     CD =  0.00952   =>   CDf =  0.00439    CDp =  0.00514
 plradd ia,ip,cpol            8           0  0.38374102    

 Point added to stored polar  1
 Point written to save file  ah63k127_Re600k.base.pol                        
 Dump file unspecified or not available
 Calculating wake trajectory ...
 Calculating source influence matrix ...

 Solving BL system ...

 Side 1  free  transition at x/c =  0.7284   60
 Side 2  free  transition at x/c =  0.8331   68

   1   rms: 0.9023E-01   max: 0.5147E+00   C at   68  2
       a =  0.000      CL =  0.4379
      Cm = -0.0961     CD =  0.00968   =>   CDf =  0.00440    CDp =  0.00528

 MRCHDU: Convergence failed at  69  side 2    Res =  0.3723E+01
 MRCHDU: Convergence failed at  70  side 2    Res =  0.5782E+01
 MRCHDU: Convergence failed at  71  side 2    Res =  0.4288E+01
 MRCHDU: Convergence failed at  72  side 2    Res =  0.7676E+01
 MRCHDU: Convergence failed at  73  side 2    Res =  0.1305E+02
 MRCHDU: Convergence failed at  74  side 2    Res =  0.2288E+02
 MRCHDU: Convergence failed at  75  side 2    Res =  0.3404E+02
 MRCHDU: Convergence failed at  76  side 2    Res =  0.4208E+02
 MRCHDU: Convergence failed at  77  side 2    Res =  0.3248E+02
 MRCHDU: Convergence failed at  78  side 2    Res =  0.2167E+02
 MRCHDU: Convergence failed at  79  side 2    Res =  0.8266E+01
 MRCHDU: Convergence failed at  80  side 2    Res =  0.1205E+02
 Side 1  free  transition at x/c =  0.7204   61
 Side 2  free  transition at x/c =  0.8517   69

   2   rms: 0.1688E+00   max: 0.1075E+01   T at   76  2   RLX: 0.609
       a =  0.000      CL =  0.4119
      Cm = -0.0851     CD =  0.00892   =>   CDf =  0.00403    CDp =  0.00489

 Side 1  free  transition at x/c =  0.7217   61
 Side 2  free  transition at x/c =  0.8472   68

   3   rms: 0.4797E-01   max: -.4396E+00   D at   70  2
       a =  0.000      CL =  0.4369
      Cm = -0.0954     CD =  0.00957   =>   CDf =  0.00445    CDp =  0.00511

 Side 1  free  transition at x/c =  0.7231   61
 Side 2  free  transition at x/c =  0.8462   68

   4   rms: 0.3137E-02   max: 0.5978E-01   D at   71  2
       a =  0.000      CL =  0.4373
      Cm = -0.0956     CD =  0.00954   =>   CDf =  0.00439    CDp =  0.00515

 Side 1  free  transition at x/c =  0.7232   61
 Side 2  free  transition at x/c =  0.8463   68

   5   rms: 0.1017E-03   max: -.2269E-02   D at   71  2
       a =  0.000      CL =  0.4373
      Cm = -0.0956     CD =  0.00954   =>   CDf =  0.00438    CDp =  0.00515

 Side 1  free  transition at x/c =  0.7232   61
 Side 2  free  transition at x/c =  0.8463   68

   6   rms: 0.4467E-06   max: -.3666E-05   D at   71  2
       a =  0.000      CL =  0.4373
      Cm = -0.0956     CD =  0.00954   =>   CDf =  0.00438    CDp =  0.00515
 plradd ia,ip,cpol            9           0  0.38374102    

 Point added to stored polar  1
 Point written to save file  ah63k127_Re600k.base.pol                        
 Dump file unspecified or not available
 Calculating wake trajectory ...
 Calculating source influence matrix ...

 Solving BL system ...

 Side 1  free  transition at x/c =  0.7232   61
 Side 2  free  transition at x/c =  0.8463   68

   1   rms: 0.8313E-01   max: -.4143E+00   T at   68  2
       a =  0.500      CL =  0.4942
      Cm = -0.0960     CD =  0.00953   =>   CDf =  0.00439    CDp =  0.00515

 Side 1  free  transition at x/c =  0.7190   62
 Side 2  free  transition at x/c =  0.8618   69

   2   rms: 0.2021E-01   max: 0.2733E+00   D at   69  2
       a =  0.500      CL =  0.4935
      Cm = -0.0957     CD =  0.00949   =>   CDf =  0.00442    CDp =  0.00507

 Side 1  free  transition at x/c =  0.7198   62
 Side 2  free  transition at x/c =  0.8593   68

   3   rms: 0.6212E-02   max: 0.1194E+00   D at   69  2
       a =  0.500      CL =  0.4926
      Cm = -0.0954     CD =  0.00943   =>   CDf =  0.00442    CDp =  0.00502

 Side 1  free  transition at x/c =  0.7198   62
 Side 2  free  transition at x/c =  0.8582   68

   4   rms: 0.1015E-02   max: 0.1656E-01   D at   69  2
       a =  0.500      CL =  0.4925
      Cm = -0.0954     CD =  0.00944   =>   CDf =  0.00441    CDp =  0.00502

 Side 1  free  transition at x/c =  0.7198   62
 Side 2  free  transition at x/c =  0.8581   68

   5   rms: 0.4244E-05   max: 0.6304E-04   D at   69  2
       a =  0.500      CL =  0.4925
      Cm = -0.0954     CD =  0.00944   =>   CDf =  0.00441    CDp =  0.00503
 plradd ia,ip,cpol           10           0  0.36968797    

 Point added to stored polar  1
 Point written to save file  ah63k127_Re600k.base.pol                        
 Dump file unspecified or not available
 Calculating wake trajectory ...
 Calculating source influence matrix ...

 Solving BL system ...

 Side 1  free  transition at x/c =  0.7198   62
 Side 2  free  transition at x/c =  0.8581   68

   1   rms: 0.8237E-01   max: -.3820E+00   T at   68  2
       a =  1.000      CL =  0.5492
      Cm = -0.0956     CD =  0.00933   =>   CDf =  0.00441    CDp =  0.00492

 Side 1  free  transition at x/c =  0.7168   62
 Side 2  free  transition at x/c =  0.8716   69

   2   rms: 0.2102E-01   max: 0.2849E+00   D at   70  2
       a =  1.000      CL =  0.5483
      Cm = -0.0953     CD =  0.00928   =>   CDf =  0.00444    CDp =  0.00484

 Side 1  free  transition at x/c =  0.7171   62
 Side 2  free  transition at x/c =  0.8704   69

   3   rms: 0.2661E-02   max: 0.4766E-01   D at   70  2
       a =  1.000      CL =  0.5481
      Cm = -0.0953     CD =  0.00929   =>   CDf =  0.00445    CDp =  0.00484

 Side 1  free  transition at x/c =  0.7171   62
 Side 2  free  transition at x/c =  0.8700   69

   4   rms: 0.2957E-04   max: 0.5955E-03   D at   70  2
       a =  1.000      CL =  0.5481
      Cm = -0.0953     CD =  0.00929   =>   CDf =  0.00445    CDp =  0.00484
 plradd ia,ip,cpol           11           0  0.35564858    

 Point added to stored polar  1
 Point written to save file  ah63k127_Re600k.base.pol                        
 Dump file unspecified or not available
 Calculating wake trajectory ...
 Calculating source influence matrix ...

 Solving BL system ...

 Side 1  free  transition at x/c =  0.7171   62
 Side 2  free  transition at x/c =  0.8700   69

   1   rms: 0.8045E-01   max: -.3058E+00   T at   69  2
       a =  1.500      CL =  0.6048
      Cm = -0.0955     CD =  0.00917   =>   CDf =  0.00441    CDp =  0.00476

 Side 1  free  transition at x/c =  0.7150   62
 Side 2  free  transition at x/c =  0.8760   69

   2   rms: 0.3803E-01   max: -.2376E+00   D at   69  2
       a =  1.500      CL =  0.6001
      Cm = -0.0949     CD =  0.00922   =>   CDf =  0.00446    CDp =  0.00476

 Side 1  free  transition at x/c =  0.7103   62
 Side 2  free  transition at x/c =  0.8792   69

   3   rms: 0.5145E-02   max: -.5027E-01   D at   71  2
       a =  1.500      CL =  0.6017
      Cm = -0.0951     CD =  0.00923   =>   CDf =  0.00438    CDp =  0.00485

 Side 1  free  transition at x/c =  0.7109   62
 Side 2  free  transition at x/c =  0.8785   69

   4   rms: 0.2820E-03   max: -.2550E-02   D at   71  2
       a =  1.500      CL =  0.6017
      Cm = -0.0951     CD =  0.00923   =>   CDf =  0.00439    CDp =  0.00484

 Side 1  free  transition at x/c =  0.7110   62
 Side 2  free  transition at x/c =  0.8785   69

   5   rms: 0.1553E-05   max: 0.6948E-05   D at   77  2
       a =  1.500      CL =  0.6018
      Cm = -0.0951     CD =  0.00923   =>   CDf =  0.00439    CDp =  0.00483
 plradd ia,ip,cpol           12           0  0.35564858    

 Point added to stored polar  1
 Point written to save file  ah63k127_Re600k.base.pol                        
 Dump file unspecified or not available
 Calculating wake trajectory ...
 Calculating source influence matrix ...

 Solving BL system ...

 Side 1  free  transition at x/c =  0.7110   62
 Side 2  free  transition at x/c =  0.8785   69

   1   rms: 0.7744E-01   max: -.2611E+00   T at   69  2
       a =  2.000      CL =  0.6562
      Cm = -0.0950     CD =  0.00902   =>   CDf =  0.00439    CDp =  0.00462

 Side 1  free  transition at x/c =  0.7054   62
 Side 2  free  transition at x/c =  0.8840   69

   2   rms: 0.1946E-01   max: -.1580E+00   D at   69  2
       a =  2.000      CL =  0.6583
      Cm = -0.0955     CD =  0.00901   =>   CDf =  0.00439    CDp =  0.00462

 Side 1  free  transition at x/c =  0.7066   62
 Side 2  free  transition at x/c =  0.8855   69

   3   rms: 0.7735E-03   max: 0.9714E-02   D at   70  2
       a =  2.000      CL =  0.6583
      Cm = -0.0955     CD =  0.00899   =>   CDf =  0.00439    CDp =  0.00461

 Side 1  free  transition at x/c =  0.7066   62
 Side 2  free  transition at x/c =  0.8853   69

   4   rms: 0.4013E-05   max: -.1809E-04   D at   69  2
       a =  2.000      CL =  0.6583
      Cm = -0.0955     CD =  0.00899   =>   CDf =  0.00439    CDp =  0.00461
 plradd ia,ip,cpol           13           0  0.35564858    

 Point added to stored polar  1
 Point written to save file  ah63k127_Re600k.base.pol                        
 Dump file unspecified or not available
 Calculating wake trajectory ...
 Calculating source influence matrix ...

 Solving BL system ...

 Side 1  free  transition at x/c =  0.7066   62
 Side 2  free  transition at x/c =  0.8853   69

   1   rms: 0.7986E-01   max: -.2034E+00   T at   69  2
       a =  2.500      CL =  0.7161
      Cm = -0.0961     CD =  0.00874   =>   CDf =  0.00431    CDp =  0.00443

 Side 1  free  transition at x/c =  0.7028   62
 Side 2  free  transition at x/c =  0.8920   69

   2   rms: 0.6710E-02   max: -.6027E-01   D at   68  2
       a =  2.500      CL =  0.7162
      Cm = -0.0961     CD =  0.00874   =>   CDf =  0.00440    CDp =  0.00434

 Side 1  free  transition at x/c =  0.7030   62
 Side 2  free  transition at x/c =  0.8918   69

   3   rms: 0.3936E-03   max: 0.3529E-02   D at   69  2
       a =  2.500      CL =  0.7161
      Cm = -0.0961     CD =  0.00875   =>   CDf =  0.00440    CDp =  0.00435

 Side 1  free  transition at x/c =  0.7030   62
 Side 2  free  transition at x/c =  0.8917   69

   4   rms: 0.1856E-05   max: -.2136E-04   T at   69  2
       a =  2.500      CL =  0.7161
      Cm = -0.0961     CD =  0.00875   =>   CDf =  0.00440    CDp =  0.00435
 plradd ia,ip,cpol           14           0  0.34162229    

 Point added to stored polar  1
 Point written to save file  ah63k127_Re600k.base.pol                        
 Dump file unspecified or not available
 Calculating wake trajectory ...
 Calculating source influence matrix ...

 Solving BL system ...

 Side 1  free  transition at x/c =  0.7030   62
 Side 2  free  transition at x/c =  0.8917   69

   1   rms: 0.8450E-01   max: -.3043E+00   T at   69  2
       a =  3.000      CL =  0.7612
      Cm = -0.0944     CD =  0.00882   =>   CDf =  0.00440    CDp =  0.00443

 Side 1  free  transition at x/c =  0.6888   61
 Side 2  free  transition at x/c =  0.9000   69

   2   rms: 0.1060E+00   max: -.7468E+00   D at   64  1   RLX: 0.669
       a =  3.000      CL =  0.7737
      Cm = -0.0961     CD =  0.00864   =>   CDf =  0.00431    CDp =  0.00433

 MRCHDU: Convergence failed at  63  side 1    Res =  0.5701E+02
 MRCHDU: Convergence failed at  64  side 1    Res =  0.6539E+01
 MRCHDU: Convergence failed at  65  side 1    Res =  0.4237E+01
 MRCHDU: Convergence failed at  66  side 1    Res =  0.5199E+01
 MRCHDU: Convergence failed at  67  side 1    Res =  0.6164E+01
 MRCHDU: Convergence failed at  68  side 1    Res =  0.6972E+01
 MRCHDU: Convergence failed at  69  side 1    Res =  0.7843E+01
 MRCHDU: Convergence failed at  70  side 1    Res =  0.9107E+01
 MRCHDU: Convergence failed at  71  side 1    Res =  0.1140E+02
 MRCHDU: Convergence failed at  72  side 1    Res =  0.1491E+02
 MRCHDU: Convergence failed at  73  side 1    Res =  0.1807E+02
 MRCHDU: Convergence failed at  74  side 1    Res =  0.1875E+02
 MRCHDU: Convergence failed at  75  side 1    Res =  0.1823E+02
 MRCHDU: Convergence failed at  76  side 1    Res =  0.1718E+02
 MRCHDU: Convergence failed at  77  side 1    Res =  0.1558E+02
 MRCHDU: Convergence failed at  78  side 1    Res =  0.1417E+02
 MRCHDU: Convergence failed at  79  side 1    Res =  0.1349E+02
 MRCHDU: Convergence failed at  80  side 1    Res =  0.1301E+02
 MRCHDU: Convergence failed at  81  side 1    Res =  0.1229E+02
 MRCHDU: Convergence failed at  82  side 1    Res =  0.8735E+01
 MRCHDU: Convergence failed at  83  side 1    Res =  0.1136E+02
 MRCHDU: Convergence failed at  84  side 1    Res =  0.1472E+02
 MRCHDU: Convergence failed at  85  side 1    Res =  0.4331E+02
 Side 1  free  transition at x/c =  0.7084   63
 Side 2  free  transition at x/c =  0.8990   69

   3   rms: 0.5220E+00   max: 0.2442E+01   D at   85  1   RLX: 0.614
       a =  3.000      CL =  0.7525
      Cm = -0.1215     CD =  0.00431   =>   CDf =  0.00357    CDp =  0.00074

 Side 1  free  transition at x/c =  0.6860   61
 Side 2  free  transition at x/c =  0.9112   70

   4   rms: 0.1540E+00   max: -.5837E+00   D at   78  2   RLX: 0.718
       a =  3.000      CL =  0.7837
      Cm = -0.1062     CD =  0.00844   =>   CDf =  0.00480    CDp =  0.00365

 Side 1  free  transition at x/c =  0.6993   62
 Side 2  free  transition at x/c =  0.9026   69

   5   rms: 0.6948E-01   max: 0.3844E+00   D at   82  1
       a =  3.000      CL =  0.7735
      Cm = -0.0966     CD =  0.00844   =>   CDf =  0.00448    CDp =  0.00395

 Side 1  free  transition at x/c =  0.6963   62
 Side 2  free  transition at x/c =  0.8993   69

   6   rms: 0.5715E-02   max: -.3266E-01   D at   70  2
       a =  3.000      CL =  0.7689
      Cm = -0.0957     CD =  0.00860   =>   CDf =  0.00427    CDp =  0.00433

 Side 1  free  transition at x/c =  0.6953   62
 Side 2  free  transition at x/c =  0.9000   69

   7   rms: 0.3083E-03   max: -.3148E-02   D at   63  1
       a =  3.000      CL =  0.7689
      Cm = -0.0957     CD =  0.00860   =>   CDf =  0.00429    CDp =  0.00432

 Side 1  free  transition at x/c =  0.6953   62
 Side 2  free  transition at x/c =  0.9000   69

   8   rms: 0.2573E-05   max: -.1312E-04   D at   84  1
       a =  3.000      CL =  0.7689
      Cm = -0.0957     CD =  0.00860   =>   CDf =  0.00429    CDp =  0.00432
 plradd ia,ip,cpol           15           0  0.32761008    

 Point added to stored polar  1
 Point written to save file  ah63k127_Re600k.base.pol                        
 Dump file unspecified or not available
 Calculating wake trajectory ...
 Calculating source influence matrix ...

 Solving BL system ...

 Side 1  free  transition at x/c =  0.6953   62
 Side 2  free  transition at x/c =  0.9000   69

   1   rms: 0.7964E-01   max: -.2324E+00   T at   69  2
       a =  3.500      CL =  0.8254
      Cm = -0.0961     CD =  0.00835   =>   CDf =  0.00416    CDp =  0.00419

 Side 1  free  transition at x/c =  0.6862   62
 Side 2  free  transition at x/c =  0.9067   69

   2   rms: 0.2276E-01   max: -.1863E+00   D at   63  1
       a =  3.500      CL =  0.8255
      Cm = -0.0960     CD =  0.00825   =>   CDf =  0.00427    CDp =  0.00398

 Side 1  free  transition at x/c =  0.6891   62
 Side 2  free  transition at x/c =  0.9068   69

   3   rms: 0.2542E-02   max: 0.2260E-01   D at   63  1
       a =  3.500      CL =  0.8250
      Cm = -0.0960     CD =  0.00827   =>   CDf =  0.00425    CDp =  0.00402

 Side 1  free  transition at x/c =  0.6885   62
 Side 2  free  transition at x/c =  0.9067   69

   4   rms: 0.6947E-04   max: -.6754E-03   D at   63  1
       a =  3.500      CL =  0.8251
      Cm = -0.0960     CD =  0.00827   =>   CDf =  0.00424    CDp =  0.00403
 plradd ia,ip,cpol           16           0  0.32761008    

 Point added to stored polar  1
 Point written to save file  ah63k127_Re600k.base.pol                        
 Dump file unspecified or not available
 Calculating wake trajectory ...
 Calculating source influence matrix ...

 Solving BL system ...

 Side 1  free  transition at x/c =  0.6885   62
 Side 2  free  transition at x/c =  0.9067   69

   1   rms: 0.8045E-01   max: -.2537E+00   T at   69  2
       a =  4.000      CL =  0.8731
      Cm = -0.0947     CD =  0.00814   =>   CDf =  0.00425    CDp =  0.00389

 Side 1  free  transition at x/c =  0.6677   61
 Side 2  free  transition at x/c =  0.9138   69

   2   rms: 0.3479E-01   max: -.3152E+00   D at   62  1
       a =  4.000      CL =  0.8794
      Cm = -0.0957     CD =  0.00785   =>   CDf =  0.00430    CDp =  0.00355

 Side 1  free  transition at x/c =  0.6780   62
 Side 2  free  transition at x/c =  0.9139   69

   3   rms: 0.7563E-02   max: -.5573E-01   D at   66  1
       a =  4.000      CL =  0.8798
      Cm = -0.0958     CD =  0.00788   =>   CDf =  0.00417    CDp =  0.00371

 Side 1  free  transition at x/c =  0.6767   61
 Side 2  free  transition at x/c =  0.9137   69

   4   rms: 0.1068E-02   max: 0.1038E-01   D at   62  1
       a =  4.000      CL =  0.8795
      Cm = -0.0958     CD =  0.00791   =>   CDf =  0.00420    CDp =  0.00371

 Side 1  free  transition at x/c =  0.6763   61
 Side 2  free  transition at x/c =  0.9138   69

   5   rms: 0.3059E-04   max: -.4191E-03   D at   62  1
       a =  4.000      CL =  0.8795
      Cm = -0.0958     CD =  0.00791   =>   CDf =  0.00420    CDp =  0.00371
 plradd ia,ip,cpol           17           0  4.46587205E-02

 Point added to stored polar  1
 Point written to save file  ah63k127_Re600k.base.pol                        
 Dump file unspecified or not available
 Calculating wake trajectory ...
 Calculating source influence matrix ...

 Solving BL system ...

 Side 1  free  transition at x/c =  0.6763   61
 Side 2  free  transition at x/c =  0.9138   69

   1   rms: 0.8511E-01   max: -.4781E+00   C at   61  1
       a =  4.500      CL =  0.9276
      Cm = -0.0948     CD =  0.00794   =>   CDf =  0.00403    CDp =  0.00391

 Side 1  free  transition at x/c =  0.6503   61
 Side 2  free  transition at x/c =  0.9216   69

   2   rms: 0.3427E-01   max: -.3495E+00   D at   61  1
       a =  4.500      CL =  0.9324
      Cm = -0.0953     CD =  0.00757   =>   CDf =  0.00425    CDp =  0.00331

 Side 1  free  transition at x/c =  0.6631   61
 Side 2  free  transition at x/c =  0.9207   69

   3   rms: 0.5662E-02   max: 0.5756E-01   T at   61  1
       a =  4.500      CL =  0.9318
      Cm = -0.0953     CD =  0.00774   =>   CDf =  0.00409    CDp =  0.00365

 Side 1  free  transition at x/c =  0.6587   61
 Side 2  free  transition at x/c =  0.9207   69

   4   rms: 0.1796E-02   max: -.1802E-01   C at   61  1
       a =  4.500      CL =  0.9320
      Cm = -0.0954     CD =  0.00772   =>   CDf =  0.00410    CDp =  0.00362

 Side 1  free  transition at x/c =  0.6593   61
 Side 2  free  transition at x/c =  0.9206   69

   5   rms: 0.1765E-04   max: -.2057E-03   D at   61  1
       a =  4.500      CL =  0.9320
      Cm = -0.0954     CD =  0.00772   =>   CDf =  0.00410    CDp =  0.00363
 plradd ia,ip,cpol           18           0  1.67267136E-02

 Point added to stored polar  1
 Point written to save file  ah63k127_Re600k.base.pol                        
 Dump file unspecified or not available
 Calculating wake trajectory ...
 Calculating source influence matrix ...

 Solving BL system ...

 Side 1  free  transition at x/c =  0.6593   61
 Side 2  free  transition at x/c =  0.9206   69

   1   rms: 0.7790E-01   max: -.2618E+00   T at   69  2
       a =  5.000      CL =  0.9822
      Cm = -0.0945     CD =  0.00766   =>   CDf =  0.00410    CDp =  0.00356

 Side 1  free  transition at x/c =  0.6271   59
 Side 2  free  transition at x/c =  0.9279   69

   2   rms: 0.2625E-01   max: 0.3359E+00   D at   60  1
       a =  5.000      CL =  0.9826
      Cm = -0.0945     CD =  0.00758   =>   CDf =  0.00422    CDp =  0.00335

 Side 1  free  transition at x/c =  0.6397   60
 Side 2  free  transition at x/c =  0.9290   69

   3   rms: 0.1022E-01   max: 0.1301E+00   C at   60  1
       a =  5.000      CL =  0.9829
      Cm = -0.0946     CD =  0.00761   =>   CDf =  0.00402    CDp =  0.00359

 Side 1  free  transition at x/c =  0.6365   60
 Side 2  free  transition at x/c =  0.9288   69

   4   rms: 0.6688E-03   max: -.9638E-02   D at   62  1
       a =  5.000      CL =  0.9829
      Cm = -0.0946     CD =  0.00763   =>   CDf =  0.00408    CDp =  0.00356

 Side 1  free  transition at x/c =  0.6363   60
 Side 2  free  transition at x/c =  0.9288   69

   5   rms: 0.4561E-05   max: -.5973E-04   D at   62  1
       a =  5.000      CL =  0.9829
      Cm = -0.0946     CD =  0.00763   =>   CDf =  0.00408    CDp =  0.00355
 plradd ia,ip,cpol           19           0  7.06754345E-03

 Point added to stored polar  1
 Point written to save file  ah63k127_Re600k.base.pol                        
 Dump file unspecified or not available
 Calculating wake trajectory ...
 Calculating source influence matrix ...

 Solving BL system ...

 Side 1  free  transition at x/c =  0.6363   60
 Side 2  free  transition at x/c =  0.9288   69

   1   rms: 0.9359E-01   max: -.5470E+00   D at   61  1   RLX: 0.914
       a =  5.500      CL =  1.0290
      Cm = -0.0937     CD =  0.00762   =>   CDf =  0.00386    CDp =  0.00375

 Side 1  free  transition at x/c =  0.5980   58
 Side 2  free  transition at x/c =  0.9363   69

   2   rms: 0.2497E-01   max: 0.2715E+00   D at   60  1
       a =  5.500      CL =  1.0293
      Cm = -0.0929     CD =  0.00771   =>   CDf =  0.00415    CDp =  0.00356

 Side 1  free  transition at x/c =  0.5990   58
 Side 2  free  transition at x/c =  0.9376   69

   3   rms: 0.4022E-02   max: 0.5958E-01   C at   58  1
       a =  5.500      CL =  1.0292
      Cm = -0.0929     CD =  0.00774   =>   CDf =  0.00408    CDp =  0.00366

 Side 1  free  transition at x/c =  0.5977   58
 Side 2  free  transition at x/c =  0.9376   69

   4   rms: 0.9847E-04   max: -.2045E-02   D at   60  1
       a =  5.500      CL =  1.0292
      Cm = -0.0929     CD =  0.00774   =>   CDf =  0.00410    CDp =  0.00364
 plradd ia,ip,cpol           20           0  4.01549943E-04

 Point added to stored polar  1
 Point written to save file  ah63k127_Re600k.base.pol                        
 Dump file unspecified or not available
 Calculating wake trajectory ...
 Calculating source influence matrix ...

 Solving BL system ...

 Side 1  free  transition at x/c =  0.5977   58
 Side 2  free  transition at x/c =  0.9376   69

   1   rms: 0.1039E+00   max: 0.1019E+01   C at   58  1   RLX: 0.771
       a =  6.000      CL =  1.0608
      Cm = -0.0908     CD =  0.00801   =>   CDf =  0.00410    CDp =  0.00390

 Side 1  free  transition at x/c =  0.5606   55
 Side 2  free  transition at x/c =  0.9455   70

   2   rms: 0.2938E-01   max: -.2286E+00   C at   70  2
       a =  6.000      CL =  1.0719
      Cm = -0.0907     CD =  0.00808   =>   CDf =  0.00421    CDp =  0.00388

 Side 1  free  transition at x/c =  0.5520   54
 Side 2  free  transition at x/c =  0.9508   70

   3   rms: 0.3321E-02   max: -.4279E-01   D at   71  2
       a =  6.000      CL =  1.0710
      Cm = -0.0905     CD =  0.00813   =>   CDf =  0.00419    CDp =  0.00393

 Side 1  free  transition at x/c =  0.5528   54
 Side 2  free  transition at x/c =  0.9499   70

   4   rms: 0.8326E-04   max: -.1740E-02   D at   71  2
       a =  6.000      CL =  1.0710
      Cm = -0.0905     CD =  0.00813   =>   CDf =  0.00419    CDp =  0.00394
 plradd ia,ip,cpol           21           0  4.01549943E-04

 Point added to stored polar  1
 Point written to save file  ah63k127_Re600k.base.pol                        
 Dump file unspecified or not available
 Calculating wake trajectory ...
 Calculating source influence matrix ...

 Solving BL system ...

 Side 1  free  transition at x/c =  0.5528   54
 Side 2  free  transition at x/c =  0.9499   70

   1   rms: 0.8584E-01   max: 0.5399E+00   C at   54  1
       a =  6.500      CL =  1.1172
      Cm = -0.0890     CD =  0.00837   =>   CDf =  0.00395    CDp =  0.00442

 Side 1  free  transition at x/c =  0.4726   50
 Side 2  free  transition at x/c =  0.9615   70

   2   rms: 0.4106E-01   max: -.4549E+00   C at   50  1
       a =  6.500      CL =  1.1093
      Cm = -0.0877     CD =  0.00877   =>   CDf =  0.00446    CDp =  0.00431

 Side 1  free  transition at x/c =  0.4930   51
 Side 2  free  transition at x/c =  0.9728   71

   3   rms: 0.1040E-01   max: 0.1615E+00   C at   51  1
       a =  6.500      CL =  1.1122
      Cm = -0.0883     CD =  0.00882   =>   CDf =  0.00429    CDp =  0.00453

 Side 1  free  transition at x/c =  0.4868   51
 Side 2  free  transition at x/c =  0.9696   70

   4   rms: 0.1209E-02   max: -.2033E-01   C at   51  1
       a =  6.500      CL =  1.1122
      Cm = -0.0883     CD =  0.00885   =>   CDf =  0.00433    CDp =  0.00451

 Side 1  free  transition at x/c =  0.4873   51
 Side 2  free  transition at x/c =  0.9695   70

   5   rms: 0.4491E-05   max: 0.6596E-04   C at   70  2
       a =  6.500      CL =  1.1122
      Cm = -0.0884     CD =  0.00885   =>   CDf =  0.00433    CDp =  0.00452
 plradd ia,ip,cpol           22           0  2.73266814E-05

 Point added to stored polar  1
 Point written to save file  ah63k127_Re600k.base.pol                        
 Dump file unspecified or not available
 Calculating wake trajectory ...
 Calculating source influence matrix ...

 Solving BL system ...

 Side 1  free  transition at x/c =  0.4873   51
 Side 2  free  transition at x/c =  0.9695   70

   1   rms: 0.1958E+00   max: 0.2667E+01   C at   51  1   RLX: 0.287
       a =  7.000      CL =  1.1250
      Cm = -0.0882     CD =  0.00923   =>   CDf =  0.00433    CDp =  0.00490

 Side 1  free  transition at x/c =  0.4557   49
 Side 2  free  transition at x/c =  0.9729   71

   2   rms: 0.1531E+00   max: 0.1918E+01   C at   49  1   RLX: 0.325
       a =  7.000      CL =  1.1328
      Cm = -0.0877     CD =  0.00969   =>   CDf =  0.00448    CDp =  0.00522

 Side 1  free  transition at x/c =  0.4272   47
 Side 2  free  transition at x/c =  0.9843   71

   3   rms: 0.1508E+00   max: -.1914E+01   C at   71  2   RLX: 0.261
       a =  7.000      CL =  1.1372
      Cm = -0.0877     CD =  0.00997   =>   CDf =  0.00458    CDp =  0.00539

 Side 1  free  transition at x/c =  0.4084   45
 Side 2 forced transition at x/c =  1.0000   73

   4   rms: 0.8249E-01   max: 0.1456E+01   C at   45  1
       a =  7.000      CL =  1.1490
      Cm = -0.0867     CD =  0.01052   =>   CDf =  0.00466    CDp =  0.00587

 Side 1  free  transition at x/c =  0.3003   38
 Side 2 forced transition at x/c =  1.0000   73

   5   rms: 0.8291E-01   max: -.1677E+01   C at   38  1   RLX: 0.298
       a =  7.000      CL =  1.1455
      Cm = -0.0863     CD =  0.01088   =>   CDf =  0.00527    CDp =  0.00561

 Side 1  free  transition at x/c =  0.3115   38
 Side 2 forced transition at x/c =  1.0000   73

   6   rms: 0.8083E-01   max: -.1705E+01   C at   38  1   RLX: 0.293
       a =  7.000      CL =  1.1428
      Cm = -0.0857     CD =  0.01088   =>   CDf =  0.00520    CDp =  0.00568

 Side 1  free  transition at x/c =  0.3240   39
 Side 2 forced transition at x/c =  1.0000   73

   7   rms: 0.5714E-01   max: -.1200E+01   C at   39  1   RLX: 0.417
       a =  7.000      CL =  1.1409
      Cm = -0.0852     CD =  0.01082   =>   CDf =  0.00512    CDp =  0.00570

 Side 1  free  transition at x/c =  0.3352   40
 Side 2 forced transition at x/c =  1.0000   73

   8   rms: 0.2887E-01   max: -.6053E+00   C at   40  1   RLX: 0.826
       a =  7.000      CL =  1.1388
      Cm = -0.0847     CD =  0.01077   =>   CDf =  0.00505    CDp =  0.00572

 Side 1  free  transition at x/c =  0.3464   41
 Side 2 forced transition at x/c =  1.0000   73

   9   rms: 0.4284E-02   max: -.8728E-01   C at   41  1
       a =  7.000      CL =  1.1382
      Cm = -0.0846     CD =  0.01078   =>   CDf =  0.00499    CDp =  0.00579

 Side 1  free  transition at x/c =  0.3489   41
 Side 2 forced transition at x/c =  1.0000   73

  10   rms: 0.4954E-03   max: -.1044E-01   C at   41  1
       a =  7.000      CL =  1.1382
      Cm = -0.0846     CD =  0.01078   =>   CDf =  0.00498    CDp =  0.00580

 Side 1  free  transition at x/c =  0.3491   41
 Side 2 forced transition at x/c =  1.0000   73

  11   rms: 0.1009E-04   max: 0.2071E-03   C at   41  1
       a =  7.000      CL =  1.1382
      Cm = -0.0846     CD =  0.01078   =>   CDf =  0.00497    CDp =  0.00581
 plradd ia,ip,cpol           23           0  2.73266814E-05

 Point added to stored polar  1
 Point written to save file  ah63k127_Re600k.base.pol                        
 Dump file unspecified or not available
 Calculating wake trajectory ...
 Calculating source influence matrix ...

 Solving BL system ...

 Side 1  free  transition at x/c =  0.3491   41
 Side 2 forced transition at x/c =  1.0000   73

   1   rms: 0.4229E+00   max: 0.8574E+01   C at   41  1   RLX: 0.175
       a =  7.500      CL =  1.1366
      Cm = -0.0828     CD =  0.01135   =>   CDf =  0.00497    CDp =  0.00638

 Side 1  free  transition at x/c =  0.3040   38
 Side 2 forced transition at x/c =  1.0000   73

   2   rms: 0.3149E+00   max: 0.6369E+01   C at   38  1   RLX: 0.236
       a =  7.500      CL =  1.1329
      Cm = -0.0808     CD =  0.01205   =>   CDf =  0.00524    CDp =  0.00682

 Side 1  free  transition at x/c =  0.2616   35
 Side 2 forced transition at x/c =  1.0000   73

   3   rms: 0.2229E+00   max: 0.4548E+01   C at   35  1   RLX: 0.330
       a =  7.500      CL =  1.1284
      Cm = -0.0785     CD =  0.01276   =>   CDf =  0.00548    CDp =  0.00728

 Side 1  free  transition at x/c =  0.2230   32
 Side 2 forced transition at x/c =  1.0000   73

   4   rms: 0.1166E+00   max: 0.2371E+01   C at   32  1   RLX: 0.633
       a =  7.500      CL =  1.1216
      Cm = -0.0749     CD =  0.01344   =>   CDf =  0.00570    CDp =  0.00774

 Side 1  free  transition at x/c =  0.1919   30
 Side 2 forced transition at x/c =  1.0000   73

   5   rms: 0.2750E-01   max: 0.4755E+00   C at   30  1
       a =  7.500      CL =  1.1181
      Cm = -0.0729     CD =  0.01388   =>   CDf =  0.00588    CDp =  0.00799

 Side 1  free  transition at x/c =  0.1807   29
 Side 2 forced transition at x/c =  1.0000   73

   6   rms: 0.1505E-02   max: -.2670E-01   C at   29  1
       a =  7.500      CL =  1.1181
      Cm = -0.0729     CD =  0.01386   =>   CDf =  0.00594    CDp =  0.00792

 Side 1  free  transition at x/c =  0.1813   29
 Side 2 forced transition at x/c =  1.0000   73

   7   rms: 0.2124E-04   max: -.4546E-03   C at   29  1
       a =  7.500      CL =  1.1181
      Cm = -0.0729     CD =  0.01386   =>   CDf =  0.00594    CDp =  0.00792
 plradd ia,ip,cpol           24           0  2.73266814E-05

 Point added to stored polar  1
 Point written to save file  ah63k127_Re600k.base.pol                        
 Dump file unspecified or not available
 Calculating wake trajectory ...
 Calculating source influence matrix ...

 Solving BL system ...

 Side 1  free  transition at x/c =  0.1813   29
 Side 2 forced transition at x/c =  1.0000   73

   1   rms: 0.2672E+00   max: 0.5600E+01   C at   29  1   RLX: 0.268
       a =  8.000      CL =  1.1158
      Cm = -0.0704     CD =  0.01460   =>   CDf =  0.00594    CDp =  0.00866

 Side 1  free  transition at x/c =  0.1558   27
 Side 2 forced transition at x/c =  1.0000   73

   2   rms: 0.1445E+00   max: 0.2941E+01   C at   27  1   RLX: 0.510
       a =  8.000      CL =  1.1181
      Cm = -0.0680     CD =  0.01540   =>   CDf =  0.00609    CDp =  0.00931

 Side 1  free  transition at x/c =  0.1296   25
 Side 2 forced transition at x/c =  1.0000   73

   3   rms: 0.4465E-01   max: 0.7021E+00   C at   25  1
       a =  8.000      CL =  1.1236
      Cm = -0.0663     CD =  0.01608   =>   CDf =  0.00623    CDp =  0.00984

 Side 1  free  transition at x/c =  0.1111   24
 Side 2 forced transition at x/c =  1.0000   73

   4   rms: 0.7843E-02   max: -.1329E+00   C at   24  1
       a =  8.000      CL =  1.1220
      Cm = -0.0662     CD =  0.01614   =>   CDf =  0.00633    CDp =  0.00981

 Side 1  free  transition at x/c =  0.1140   24
 Side 2 forced transition at x/c =  1.0000   73

   5   rms: 0.3375E-03   max: -.6195E-02   C at   24  1
       a =  8.000      CL =  1.1219
      Cm = -0.0662     CD =  0.01615   =>   CDf =  0.00629    CDp =  0.00985

 Side 1  free  transition at x/c =  0.1142   24
 Side 2 forced transition at x/c =  1.0000   73

   6   rms: 0.3209E-05   max: -.2131E-04   C at   73  2
       a =  8.000      CL =  1.1219
      Cm = -0.0662     CD =  0.01615   =>   CDf =  0.00629    CDp =  0.00985
 plradd ia,ip,cpol           25           0  2.73266814E-05

 Point added to stored polar  1
 Point written to save file  ah63k127_Re600k.base.pol                        
 Dump file unspecified or not available
 Calculating wake trajectory ...
 Calculating source influence matrix ...

 Solving BL system ...

 Side 1  free  transition at x/c =  0.1142   24
 Side 2 forced transition at x/c =  1.0000   73

   1   rms: 0.1361E+00   max: 0.2225E+01   C at   24  1   RLX: 0.674
       a =  8.500      CL =  1.1312
      Cm = -0.0631     CD =  0.01767   =>   CDf =  0.00629    CDp =  0.01137

 Side 1  free  transition at x/c =  0.0852   22
 Side 2 forced transition at x/c =  1.0000   73

   2   rms: 0.3741E-01   max: -.2791E+00   D at   22  1
       a =  8.500      CL =  1.1377
      Cm = -0.0623     CD =  0.01842   =>   CDf =  0.00644    CDp =  0.01197

 Side 1  free  transition at x/c =  0.0767   21
 Side 2 forced transition at x/c =  1.0000   73

   3   rms: 0.3685E-02   max: -.5798E-01   D at   22  1
       a =  8.500      CL =  1.1387
      Cm = -0.0624     CD =  0.01834   =>   CDf =  0.00646    CDp =  0.01188

 Side 1  free  transition at x/c =  0.0759   21
 Side 2 forced transition at x/c =  1.0000   73

   4   rms: 0.1114E-03   max: -.9255E-03   D at   22  1
       a =  8.500      CL =  1.1387
      Cm = -0.0624     CD =  0.01834   =>   CDf =  0.00647    CDp =  0.01187

 Side 1  free  transition at x/c =  0.0760   21
 Side 2 forced transition at x/c =  1.0000   73

   5   rms: 0.2160E-05   max: -.2005E-04   C at   21  1
       a =  8.500      CL =  1.1386
      Cm = -0.0624     CD =  0.01834   =>   CDf =  0.00646    CDp =  0.01187
 plradd ia,ip,cpol           26           0  2.73266814E-05

 Point added to stored polar  1
 Point written to save file  ah63k127_Re600k.base.pol                        
 Dump file unspecified or not available
 Calculating wake trajectory ...
 Calculating source influence matrix ...

 Solving BL system ...

 Side 1  free  transition at x/c =  0.0760   21
 Side 2 forced transition at x/c =  1.0000   73

   1   rms: 0.1004E+00   max: 0.1283E+01   C at   21  1   RLX: 0.858
       a =  9.000      CL =  1.1600
      Cm = -0.0603     CD =  0.02011   =>   CDf =  0.00616    CDp =  0.01395

 Side 1  free  transition at x/c =  0.0520   20
 Side 2 forced transition at x/c =  1.0000   72

   2   rms: 0.1890E-01   max: -.1966E+00   D at   20  1
       a =  9.000      CL =  1.1594
      Cm = -0.0594     CD =  0.02050   =>   CDf =  0.00655    CDp =  0.01395

 Side 1  free  transition at x/c =  0.0472   20
 Side 2 forced transition at x/c =  1.0000   72

   3   rms: 0.2238E-02   max: 0.7927E-02   D at   72  1
       a =  9.000      CL =  1.1581
      Cm = -0.0593     CD =  0.02055   =>   CDf =  0.00658    CDp =  0.01396

 Side 1  free  transition at x/c =  0.0474   20
 Side 2 forced transition at x/c =  1.0000   72

   4   rms: 0.2291E-04   max: 0.1919E-03   D at   80  2
       a =  9.000      CL =  1.1581
      Cm = -0.0593     CD =  0.02055   =>   CDf =  0.00658    CDp =  0.01396
 plradd ia,ip,cpol           27           0  2.73266814E-05

 Point added to stored polar  1
 Point written to save file  ah63k127_Re600k.base.pol                        
 Dump file unspecified or not available
 Calculating wake trajectory ...
 Calculating source influence matrix ...

 Solving BL system ...

 Side 1  free  transition at x/c =  0.0474   20
 Side 2 forced transition at x/c =  1.0000   72

   1   rms: 0.1102E+00   max: -.1055E+01   D at   20  1   RLX: 0.474
       a =  9.500      CL =  1.1649
      Cm = -0.0575     CD =  0.02185   =>   CDf =  0.00658    CDp =  0.01527

 Side 1  free  transition at x/c =  0.0378   19
 Side 2 forced transition at x/c =  1.0000   72

   2   rms: 0.6095E-01   max: 0.5496E+00   C at   19  1   RLX: 0.919
       a =  9.500      CL =  1.1739
      Cm = -0.0559     CD =  0.02295   =>   CDf =  0.00662    CDp =  0.01634

 Side 1  free  transition at x/c =  0.0289   18
 Side 2 forced transition at x/c =  1.0000   72

   3   rms: 0.1660E-01   max: -.2510E+00   D at   18  1
       a =  9.500      CL =  1.1754
      Cm = -0.0558     CD =  0.02291   =>   CDf =  0.00663    CDp =  0.01628

 Side 1  free  transition at x/c =  0.0253   18
 Side 2 forced transition at x/c =  1.0000   72

   4   rms: 0.4733E-02   max: -.5410E-01   D at   18  1
       a =  9.500      CL =  1.1734
      Cm = -0.0556     CD =  0.02303   =>   CDf =  0.00668    CDp =  0.01635

 Side 1  free  transition at x/c =  0.0244   17
 Side 2 forced transition at x/c =  1.0000   72

   5   rms: 0.4221E-03   max: -.5661E-02   C at   17  1
       a =  9.500      CL =  1.1734
      Cm = -0.0556     CD =  0.02302   =>   CDf =  0.00670    CDp =  0.01632

 Side 1  free  transition at x/c =  0.0243   17
 Side 2 forced transition at x/c =  1.0000   72

   6   rms: 0.2595E-05   max: 0.3024E-04   C at   17  1
       a =  9.500      CL =  1.1734
      Cm = -0.0556     CD =  0.02302   =>   CDf =  0.00670    CDp =  0.01632
 plradd ia,ip,cpol           28           0  2.73266814E-05

 Point added to stored polar  1
 Point written to save file  ah63k127_Re600k.base.pol                        
 Dump file unspecified or not available
 Calculating wake trajectory ...
 Calculating source influence matrix ...

 Solving BL system ...

 Side 1  free  transition at x/c =  0.0243   17
 Side 2 forced transition at x/c =  1.0000   72

   1   rms: 0.9694E-01   max: -.1238E+01   C at   17  1   RLX: 0.404
       a = 10.000      CL =  1.1857
      Cm = -0.0548     CD =  0.02370   =>   CDf =  0.00670    CDp =  0.01701

 Side 1  free  transition at x/c =  0.0189   17
 Side 2 forced transition at x/c =  1.0000   72

   2   rms: 0.8566E-01   max: -.8691E+00   D at   17  1   RLX: 0.575
       a = 10.000      CL =  1.1837
      Cm = -0.0530     CD =  0.02526   =>   CDf =  0.00672    CDp =  0.01855

 Side 1  free  transition at x/c =  0.0150   16
 Side 2 forced transition at x/c =  1.0000   72

   3   rms: 0.4224E-01   max: -.4991E+00   D at   16  1
       a = 10.000      CL =  1.1937
      Cm = -0.0525     CD =  0.02521   =>   CDf =  0.00662    CDp =  0.01859

 Side 1  free  transition at x/c =  0.0128   16
 Side 2 forced transition at x/c =  1.0000   72

   4   rms: 0.9283E-02   max: -.3259E-01   D at   17  1
       a = 10.000      CL =  1.1869
[...]
      Cm = -0.0346     CD =  0.04521   =>   CDf =  0.00575    CDp =  0.03946

 Side 1  free  transition at x/c =  0.0056   15
 Side 2 forced transition at x/c =  1.0000   71

   2   rms: 0.1280E-01   max: 0.4099E-01   T at   15  1
       a = 13.000      CL =  1.2589
      Cm = -0.0342     CD =  0.04597   =>   CDf =  0.00569    CDp =  0.04028

 Side 1  free  transition at x/c =  0.0055   15
 Side 2 forced transition at x/c =  1.0000   71

   3   rms: 0.1174E-02   max: 0.6686E-02   D at   85  2
       a = 13.000      CL =  1.2580
      Cm = -0.0342     CD =  0.04591   =>   CDf =  0.00565    CDp =  0.04026

 Side 1  free  transition at x/c =  0.0055   15
 Side 2 forced transition at x/c =  1.0000   71

   4   rms: 0.3241E-04   max: 0.3707E-03   D at   85  2
       a = 13.000      CL =  1.2580
      Cm = -0.0342     CD =  0.04590   =>   CDf =  0.00565    CDp =  0.04025
 plradd ia,ip,cpol           42           0  2.73266814E-05

 Point added to stored polar  1
 Point written to save file  ah63k127_Re600k.base.pol                        
 Dump file unspecified or not available
 Calculating wake trajectory ...
 Calculating source influence matrix ...

 Solving BL system ...

 Side 1  free  transition at x/c =  0.0055   15
 Side 2 forced transition at x/c =  1.0000   71

   1   rms: 0.3382E-01   max: 0.8989E-01   D at   61  1   RLX: 0.599
       a = 13.250      CL =  1.2628
      Cm = -0.0336     CD =  0.04720   =>   CDf =  0.00565    CDp =  0.04155

 Side 1  free  transition at x/c =  0.0054   15
 Side 2 forced transition at x/c =  1.0000   71

   2   rms: 0.1360E-01   max: 0.3695E-01   D at   60  1
       a = 13.250      CL =  1.2649
      Cm = -0.0332     CD =  0.04803   =>   CDf =  0.00559    CDp =  0.04244

 Side 1  free  transition at x/c =  0.0054   15
 Side 2 forced transition at x/c =  1.0000   71

   3   rms: 0.1393E-02   max: 0.1005E-01   D at   85  2
       a = 13.250      CL =  1.2640
      Cm = -0.0332     CD =  0.04797   =>   CDf =  0.00554    CDp =  0.04242

 Side 1  free  transition at x/c =  0.0054   15
 Side 2 forced transition at x/c =  1.0000   71

   4   rms: 0.7331E-04   max: 0.9965E-03   D at   85  2
       a = 13.250      CL =  1.2639
      Cm = -0.0332     CD =  0.04795   =>   CDf =  0.00554    CDp =  0.04241
 plradd ia,ip,cpol           43           0  2.73266814E-05

 Point added to stored polar  1
 Point written to save file  ah63k127_Re600k.base.pol                        
 Dump file unspecified or not available
 Calculating wake trajectory ...
 Calculating source influence matrix ...

 Solving BL system ...

 Side 1  free  transition at x/c =  0.0054   15
 Side 2 forced transition at x/c =  1.0000   71

   1   rms: 0.3429E-01   max: 0.1116E+00   T at   15  1   RLX: 0.583
       a = 13.500      CL =  1.2684
      Cm = -0.0327     CD =  0.04928   =>   CDf =  0.00554    CDp =  0.04374

 Side 1  free  transition at x/c =  0.0053   15
 Side 2 forced transition at x/c =  1.0000   71

   2   rms: 0.1417E-01   max: 0.4033E-01   D at   64  1
       a = 13.500      CL =  1.2700
      Cm = -0.0323     CD =  0.05023   =>   CDf =  0.00548    CDp =  0.04475

 Side 1  free  transition at x/c =  0.0052   15
 Side 2 forced transition at x/c =  1.0000   71

   3   rms: 0.1503E-02   max: 0.6957E-02   D at   85  2
       a = 13.500      CL =  1.2689
      Cm = -0.0323     CD =  0.05016   =>   CDf =  0.00544    CDp =  0.04473

 Side 1  free  transition at x/c =  0.0052   15
 Side 2 forced transition at x/c =  1.0000   71

   4   rms: 0.4889E-04   max: 0.5194E-03   D at   85  2
       a = 13.500      CL =  1.2689
      Cm = -0.0323     CD =  0.05015   =>   CDf =  0.00544    CDp =  0.04471
 plradd ia,ip,cpol           44           0  2.73266814E-05

 Point added to stored polar  1
 Point written to save file  ah63k127_Re600k.base.pol                        
 Dump file unspecified or not available
 Calculating wake trajectory ...
 Calculating source influence matrix ...

 Solving BL system ...

 Side 1  free  transition at x/c =  0.0052   15
 Side 2 forced transition at x/c =  1.0000   71

   1   rms: 0.3419E-01   max: 0.8997E-01   D at   59  1   RLX: 0.567
       a = 13.750      CL =  1.2732
      Cm = -0.0318     CD =  0.05149   =>   CDf =  0.00544    CDp =  0.04605

 Side 1  free  transition at x/c =  0.0052   15
 Side 2 forced transition at x/c =  1.0000   71

   2   rms: 0.1502E-01   max: 0.4107E-01   D at   59  1
       a = 13.750      CL =  1.2752
      Cm = -0.0314     CD =  0.05251   =>   CDf =  0.00537    CDp =  0.04714

 Side 1  free  transition at x/c =  0.0052   15
 Side 2 forced transition at x/c =  1.0000   71

   3   rms: 0.1606E-02   max: 0.8108E-02   D at   86  2
       a = 13.750      CL =  1.2740
      Cm = -0.0314     CD =  0.05244   =>   CDf =  0.00531    CDp =  0.04713

 Side 1  free  transition at x/c =  0.0052   15
 Side 2 forced transition at x/c =  1.0000   71

   4   rms: 0.7393E-04   max: 0.6885E-03   D at   86  2
       a = 13.750      CL =  1.2740
      Cm = -0.0314     CD =  0.05243   =>   CDf =  0.00531    CDp =  0.04712
 plradd ia,ip,cpol           45           0  2.73266814E-05

 Point added to stored polar  1
 Point written to save file  ah63k127_Re600k.base.pol                        
 Dump file unspecified or not available
 Calculating wake trajectory ...
 Calculating source influence matrix ...

 Solving BL system ...

 Side 1  free  transition at x/c =  0.0052   15
 Side 2 forced transition at x/c =  1.0000   71

   1   rms: 0.3449E-01   max: 0.9068E-01   D at   58  1   RLX: 0.553
       a = 14.000      CL =  1.2781
      Cm = -0.0310     CD =  0.05382   =>   CDf =  0.00531    CDp =  0.04851

 Side 1  free  transition at x/c =  0.0052   15
 Side 2 forced transition at x/c =  1.0000   71

   2   rms: 0.1569E-01   max: 0.4416E-01   D at   63  1
       a = 14.000      CL =  1.2797
      Cm = -0.0307     CD =  0.05496   =>   CDf =  0.00524    CDp =  0.04973

 Side 1  free  transition at x/c =  0.0051   15
 Side 2 forced transition at x/c =  1.0000   71

   3   rms: 0.2043E-02   max: 0.1017E-01   D at   86  2
       a = 14.000      CL =  1.2783
      Cm = -0.0306     CD =  0.05490   =>   CDf =  0.00517    CDp =  0.04972

 Side 1  free  transition at x/c =  0.0051   15
 Side 2 forced transition at x/c =  1.0000   71

   4   rms: 0.9883E-04   max: 0.1023E-02   D at   86  2
       a = 14.000      CL =  1.2782
      Cm = -0.0306     CD =  0.05487   =>   CDf =  0.00517    CDp =  0.04970
 plradd ia,ip,cpol           46           0  2.73266814E-05

 Point added to stored polar  1
 Point written to save file  ah63k127_Re600k.base.pol                        
 Dump file unspecified or not available
 Calculating wake trajectory ...
 Calculating source influence matrix ...

 Solving BL system ...

 Side 1  free  transition at x/c =  0.0051   15
 Side 2 forced transition at x/c =  1.0000   71

   1   rms: 0.3396E-01   max: 0.1109E+00   T at   15  1   RLX: 0.537
       a = 14.250      CL =  1.2815
      Cm = -0.0303     CD =  0.05634   =>   CDf =  0.00461    CDp =  0.05173

 Side 1  free  transition at x/c =  0.0050   16
 Side 2 forced transition at x/c =  1.0000   70

   2   rms: 0.3366E-01   max: 0.5046E+00   D at    2  1
       a = 14.250      CL =  1.2827
      Cm = -0.0300     CD =  0.05762   =>   CDf =  0.00509    CDp =  0.05253

 Side 1  free  transition at x/c =  0.0050   16
 Side 2 forced transition at x/c =  1.0000   70

   3   rms: 0.2156E-02   max: 0.1540E-01   D at   85  2
       a = 14.250      CL =  1.2812
      Cm = -0.0299     CD =  0.05752   =>   CDf =  0.00503    CDp =  0.05250

 Side 1  free  transition at x/c =  0.0050   16
 Side 2 forced transition at x/c =  1.0000   70

   4   rms: 0.9636E-04   max: 0.1197E-02   D at   85  2
       a = 14.250      CL =  1.2812
      Cm = -0.0299     CD =  0.05750   =>   CDf =  0.00503    CDp =  0.05247
 plradd ia,ip,cpol           47           0  2.73266814E-05

 Point added to stored polar  1
 Point written to save file  ah63k127_Re600k.base.pol                        
 Dump file unspecified or not available
 Calculating wake trajectory ...
 Calculating source influence matrix ...

 Solving BL system ...

 Side 1  free  transition at x/c =  0.0050   16
 Side 2 forced transition at x/c =  1.0000   70

   1   rms: 0.3676E-01   max: 0.9989E-01   D at   18  1   RLX: 0.523
       a = 14.500      CL =  1.2845
      Cm = -0.0296     CD =  0.05901   =>   CDf =  0.00503    CDp =  0.05398

 Side 1  free  transition at x/c =  0.0050   16
 Side 2 forced transition at x/c =  1.0000   70

   2   rms: 0.1849E-01   max: 0.5152E-01   D at   57  1
       a = 14.500      CL =  1.2853
      Cm = -0.0293     CD =  0.06049   =>   CDf =  0.00493    CDp =  0.05556

 Side 1  free  transition at x/c =  0.0051   16
 Side 2 forced transition at x/c =  1.0000   70

   3   rms: 0.2724E-02   max: 0.1077E-01   D at   86  2
       a = 14.500      CL =  1.2833
      Cm = -0.0292     CD =  0.06045   =>   CDf =  0.00483    CDp =  0.05562

 Side 1  free  transition at x/c =  0.0051   16
 Side 2 forced transition at x/c =  1.0000   70

   4   rms: 0.1407E-03   max: 0.1310E-02   D at   85  2
       a = 14.500      CL =  1.2833
      Cm = -0.0292     CD =  0.06041   =>   CDf =  0.00483    CDp =  0.05558

 Side 1  free  transition at x/c =  0.0051   16
 Side 2 forced transition at x/c =  1.0000   70

   5   rms: 0.3431E-05   max: -.4130E-04   C at   70  2
       a = 14.500      CL =  1.2833
      Cm = -0.0292     CD =  0.06041   =>   CDf =  0.00483    CDp =  0.05558
 plradd ia,ip,cpol           48           0  8.85811314E-05

 Point added to stored polar  1
 Point written to save file  ah63k127_Re600k.base.pol                        
 Dump file unspecified or not available
 Calculating wake trajectory ...
 Calculating source influence matrix ...

 Solving BL system ...

 Side 1  free  transition at x/c =  0.0051   16
 Side 2 forced transition at x/c =  1.0000   70

   1   rms: 0.3378E-01   max: 0.1253E+00   T at   16  1   RLX: 0.508
       a = 14.750      CL =  1.2851
      Cm = -0.0291     CD =  0.06205   =>   CDf =  0.00483    CDp =  0.05722

 Side 1  free  transition at x/c =  0.0050   16
 Side 2 forced transition at x/c =  1.0000   70

   2   rms: 0.1750E-01   max: 0.5400E-01   D at   57  1
       a = 14.750      CL =  1.2851
      Cm = -0.0289     CD =  0.06367   =>   CDf =  0.00477    CDp =  0.05890

 Side 1  free  transition at x/c =  0.0049   16
 Side 2 forced transition at x/c =  1.0000   70

   3   rms: 0.2442E-02   max: 0.1232E-01   D at   86  2
       a = 14.750      CL =  1.2834
      Cm = -0.0288     CD =  0.06358   =>   CDf =  0.00470    CDp =  0.05888

 Side 1  free  transition at x/c =  0.0049   16
 Side 2 forced transition at x/c =  1.0000   70

   4   rms: 0.1259E-03   max: 0.1178E-02   D at   86  2
       a = 14.750      CL =  1.2833
      Cm = -0.0288     CD =  0.06355   =>   CDf =  0.00470    CDp =  0.05885

 Side 1  free  transition at x/c =  0.0049   16
 Side 2 forced transition at x/c =  1.0000   70

   5   rms: 0.3511E-05   max: -.4260E-04   C at   70  2
       a = 14.750      CL =  1.2833
      Cm = -0.0288     CD =  0.06355   =>   CDf =  0.00470    CDp =  0.05885
 plradd ia,ip,cpol           49           0  8.85811314E-05

 Point added to stored polar  1
 Point written to save file  ah63k127_Re600k.base.pol                        
 Dump file unspecified or not available
 Calculating wake trajectory ...
 Calculating source influence matrix ...

 Solving BL system ...

 Side 1  free  transition at x/c =  0.0049   16
 Side 2 forced transition at x/c =  1.0000   70

   1   rms: 0.3820E-01   max: 0.1144E+00   D at   57  1   RLX: 0.493
       a = 15.000      CL =  1.2846
      Cm = -0.0287     CD =  0.06539   =>   CDf =  0.00470    CDp =  0.06069

 Side 1  free  transition at x/c =  0.0049   16
 Side 2 forced transition at x/c =  1.0000   70

   2   rms: 0.2072E-01   max: 0.6417E-01   D at   56  1
       a = 15.000      CL =  1.2832
      Cm = -0.0285     CD =  0.06740   =>   CDf =  0.00459    CDp =  0.06280

 Side 1  free  transition at x/c =  0.0050   16
 Side 2 forced transition at x/c =  1.0000   70

   3   rms: 0.3191E-02   max: 0.1506E-01   D at   86  2
       a = 15.000      CL =  1.2810
      Cm = -0.0284     CD =  0.06728   =>   CDf =  0.00448    CDp =  0.06280

 Side 1  free  transition at x/c =  0.0050   16
 Side 2 forced transition at x/c =  1.0000   70

   4   rms: 0.2206E-03   max: 0.3133E-02   D at   86  2
       a = 15.000      CL =  1.2809
      Cm = -0.0284     CD =  0.06722   =>   CDf =  0.00448    CDp =  0.06274

 Side 1  free  transition at x/c =  0.0050   16
 Side 2 forced transition at x/c =  1.0000   70

   5   rms: 0.6860E-05   max: 0.7328E-04   D at   86  2
       a = 15.000      CL =  1.2809
      Cm = -0.0284     CD =  0.06722   =>   CDf =  0.00448    CDp =  0.06274
 plradd ia,ip,cpol           50           0  8.85811314E-05

 Point added to stored polar  1
 Point written to save file  ah63k127_Re600k.base.pol                        
 Dump file unspecified or not available
 Calculating wake trajectory ...
 Calculating source influence matrix ...

 Solving BL system ...

 Side 1  free  transition at x/c =  0.0050   16
 Side 2 forced transition at x/c =  1.0000   70

   1   rms: 0.3740E-01   max: 0.1198E+00   D at   56  1   RLX: 0.478
       a = 15.250      CL =  1.2813
      Cm = -0.0284     CD =  0.06920   =>   CDf =  0.00448    CDp =  0.06472

 Side 1  free  transition at x/c =  0.0050   16
 Side 2 forced transition at x/c =  1.0000   70

   2   rms: 0.2099E-01   max: 0.6959E-01   D at   61  1
       a = 15.250      CL =  1.2789
      Cm = -0.0284     CD =  0.07146   =>   CDf =  0.00438    CDp =  0.06708

 Side 1  free  transition at x/c =  0.0050   16
 Side 2 forced transition at x/c =  1.0000   70

   3   rms: 0.3425E-02   max: 0.1564E-01   D at   86  2
       a = 15.250      CL =  1.2765
      Cm = -0.0283     CD =  0.07128   =>   CDf =  0.00426    CDp =  0.06702

 Side 1  free  transition at x/c =  0.0050   16
 Side 2 forced transition at x/c =  1.0000   70

   4   rms: 0.1636E-03   max: -.1800E-02   C at   70  2
       a = 15.250      CL =  1.2765
      Cm = -0.0283     CD =  0.07121   =>   CDf =  0.00426    CDp =  0.06694

 Side 1  free  transition at x/c =  0.0050   16
 Side 2 forced transition at x/c =  1.0000   70

   5   rms: 0.5814E-05   max: 0.6440E-04   C at   70  2
       a = 15.250      CL =  1.2765
      Cm = -0.0283     CD =  0.07121   =>   CDf =  0.00426    CDp =  0.06695
 plradd ia,ip,cpol           51           0  8.85811314E-05

 Point added to stored polar  1
 Point written to save file  ah63k127_Re600k.base.pol                        
 Dump file unspecified or not available
 Calculating wake trajectory ...
 Calculating source influence matrix ...

 Solving BL system ...

 Side 1  free  transition at x/c =  0.0050   16
 Side 2 forced transition at x/c =  1.0000   70

   1   rms: 0.4316E-01   max: 0.1412E+00   D at   55  1   RLX: 0.462
       a = 15.500      CL =  1.2751
      Cm = -0.0284     CD =  0.07354   =>   CDf =  0.00426    CDp =  0.06928

 Side 1  free  transition at x/c =  0.0051   16
 Side 2 forced transition at x/c =  1.0000   70

   2   rms: 0.2669E-01   max: 0.8531E-01   D at   55  1
       a = 15.500      CL =  1.2700
      Cm = -0.0284     CD =  0.07654   =>   CDf =  0.00414    CDp =  0.07240

 Side 1  free  transition at x/c =  0.0051   16
 Side 2 forced transition at x/c =  1.0000   70

   3   rms: 0.4699E-02   max: 0.2093E-01   D at   60  1
       a = 15.500      CL =  1.2668
      Cm = -0.0284     CD =  0.07631   =>   CDf =  0.00398    CDp =  0.07233

 Side 1  free  transition at x/c =  0.0051   16
 Side 2 forced transition at x/c =  1.0000   70

   4   rms: 0.2584E-03   max: -.2544E-02   C at   70  2
       a = 15.500      CL =  1.2668
      Cm = -0.0284     CD =  0.07620   =>   CDf =  0.00398    CDp =  0.07222

 Side 1  free  transition at x/c =  0.0051   16
 Side 2 forced transition at x/c =  1.0000   70

   5   rms: 0.1226E-04   max: 0.1670E-03   C at   70  2
       a = 15.500      CL =  1.2668
      Cm = -0.0284     CD =  0.07620   =>   CDf =  0.00398    CDp =  0.07222
 plradd ia,ip,cpol           52           0  8.85811314E-05

 Point added to stored polar  1
 Point written to save file  ah63k127_Re600k.base.pol                        
 Dump file unspecified or not available
 Calculating wake trajectory ...
 Calculating source influence matrix ...

 Solving BL system ...

 Side 1  free  transition at x/c =  0.0051   16
 Side 2 forced transition at x/c =  1.0000   70

   1   rms: 0.4842E-01   max: 0.1645E+00   D at   54  1   RLX: 0.444
       a = 15.750      CL =  1.2635
      Cm = -0.0286     CD =  0.07896   =>   CDf =  0.00398    CDp =  0.07498

 Side 1  free  transition at x/c =  0.0052   16
 Side 2 forced transition at x/c =  1.0000   70

   2   rms: 0.2979E-01   max: 0.9980E-01   D at   59  1
       a = 15.750      CL =  1.2559
      Cm = -0.0290     CD =  0.08256   =>   CDf =  0.00386    CDp =  0.07871

 Side 1  free  transition at x/c =  0.0053   16
 Side 2 forced transition at x/c =  1.0000   70

   3   rms: 0.5210E-02   max: 0.2166E-01   D at   87  2
       a = 15.750      CL =  1.2531
      Cm = -0.0290     CD =  0.08204   =>   CDf =  0.00369    CDp =  0.07835

 Side 1  free  transition at x/c =  0.0052   16
 Side 2 forced transition at x/c =  1.0000   70

   4   rms: 0.5604E-03   max: 0.2839E-02   D at   87  2
       a = 15.750      CL =  1.2531
      Cm = -0.0290     CD =  0.08199   =>   CDf =  0.00371    CDp =  0.07827

 Side 1  free  transition at x/c =  0.0052   16
 Side 2 forced transition at x/c =  1.0000   70

   5   rms: 0.6433E-04   max: -.2105E-03   D at   18  1
       a = 15.750      CL =  1.2530
      Cm = -0.0290     CD =  0.08199   =>   CDf =  0.00371    CDp =  0.07828
 plradd ia,ip,cpol           53           0  8.85811314E-05

 Point added to stored polar  1
 Point written to save file  ah63k127_Re600k.base.pol                        
 Dump file unspecified or not available
 Calculating wake trajectory ...
 Calculating source influence matrix ...

 Solving BL system ...

 Side 1  free  transition at x/c =  0.0052   16
 Side 2 forced transition at x/c =  1.0000   70

   1   rms: 0.5590E-01   max: 0.1932E+00   D at   53  1   RLX: 0.427
       a = 16.000      CL =  1.2475
      Cm = -0.0295     CD =  0.08526   =>   CDf =  0.00371    CDp =  0.08155

 Side 1  free  transition at x/c =  0.0053   16
 Side 2 forced transition at x/c =  1.0000   70

   2   rms: 0.4646E-01   max: 0.1509E+00   D at   57  1
       a = 16.000      CL =  1.2304
      Cm = -0.0306     CD =  0.09099   =>   CDf =  0.00356    CDp =  0.08743

 Side 1  free  transition at x/c =  0.0055   16
 Side 2 forced transition at x/c =  1.0000   70

   3   rms: 0.1176E-01   max: -.4373E-01   D at   19  1
       a = 16.000      CL =  1.2286
      Cm = -0.0305     CD =  0.08963   =>   CDf =  0.00330    CDp =  0.08633

 Side 1  free  transition at x/c =  0.0054   16
 Side 2 forced transition at x/c =  1.0000   70

   4   rms: 0.1409E-02   max: 0.5787E-02   D at   18  1
       a = 16.000      CL =  1.2289
      Cm = -0.0305     CD =  0.08968   =>   CDf =  0.00337    CDp =  0.08631

 Side 1  free  transition at x/c =  0.0054   16
 Side 2 forced transition at x/c =  1.0000   70

   5   rms: 0.1486E-03   max: 0.7856E-03   C at   70  2
       a = 16.000      CL =  1.2288
      Cm = -0.0305     CD =  0.08969   =>   CDf =  0.00336    CDp =  0.08633

 Side 1  free  transition at x/c =  0.0054   16
 Side 2 forced transition at x/c =  1.0000   70

   6   rms: 0.1427E-04   max: -.1479E-03   C at   70  2
       a = 16.000      CL =  1.2289
      Cm = -0.0305     CD =  0.08969   =>   CDf =  0.00336    CDp =  0.08633
 plradd ia,ip,cpol           54           0  8.85811314E-05

 Point added to stored polar  1
 Point written to save file  ah63k127_Re600k.base.pol                        
 Dump file unspecified or not available

.OPERva   c>  
 Polar accumulation disabled

.OPERv   c>  
 XFOIL   c>  
 XFOIL   c>  