  
       XFOIL         Version 6.99
  
 Calculated polar for: AH 79-K-132/20                                  
  
 1 1 Reynolds number fixed          Mach number fixed         
  
 xtrf =   1.000 (top)        1.000 (bottom)  
 Mach =   0.000     Re =     0.300 e 6     Ncrit =   9.000
  
   alpha    CL        CD       CDp       CM     Top_Xtr  Bot_Xtr
  ------ -------- --------- --------- -------- -------- --------
-4.000  -0.0341   0.01830   0.01098  -0.0830   0.7842   0.0641
-3.500   0.0148   0.01776   0.01036  -0.0819   0.7799   0.0790
-3.000   0.0596   0.01724   0.00989  -0.0805   0.7735   0.0965
-2.500   0.1074   0.01668   0.00942  -0.0793   0.7679   0.1277
-2.000   0.1441   0.01512   0.00909  -0.0768   0.7627   0.4411
-1.500   0.1682   0.01455   0.00989  -0.0691   0.7550   0.8388
-1.000   0.2121   0.01502   0.01021  -0.0649   0.7515   0.8864
-0.500   0.2447   0.01544   0.01062  -0.0591   0.7420   0.9184
0.000   0.3047   0.01537   0.01040  -0.0583   0.7386   0.9442
0.500   0.4377   0.01556   0.01047  -0.0737   0.7329   0.9612
1.000   0.5177   0.01526   0.01009  -0.0788   0.7273   0.9716
1.500   0.5955   0.01465   0.00938  -0.0835   0.7239   0.9752
2.000   0.6559   0.01446   0.00922  -0.0853   0.7144   0.9813
2.500   0.7243   0.01376   0.00848  -0.0880   0.7103   0.9856
3.000   0.7897   0.01342   0.00822  -0.0907   0.7002   0.9906
3.500   0.8544   0.01284   0.00770  -0.0929   0.6918   0.9950
4.000   0.9223   0.01206   0.00693  -0.0956   0.6833   0.9988
4.500   0.9725   0.01160   0.00658  -0.0948   0.6703   1.0000
5.000   1.0135   0.01122   0.00628  -0.0920   0.6517   1.0000
5.500   1.0543   0.01090   0.00601  -0.0891   0.6287   1.0000
6.000   1.0898   0.01089   0.00599  -0.0853   0.5993   1.0000
6.500   1.1179   0.01117   0.00624  -0.0802   0.5641   1.0000
7.000   1.1402   0.01162   0.00667  -0.0741   0.5314   1.0000
7.500   1.1482   0.01223   0.00719  -0.0654   0.4899   1.0000
8.000   1.1508   0.01327   0.00798  -0.0563   0.4293   1.0000
8.500   1.1457   0.01491   0.00930  -0.0469   0.3613   1.0000
9.000   1.1369   0.01783   0.01182  -0.0398   0.2800   1.0000
9.500   1.1284   0.02140   0.01488  -0.0338   0.1916   1.0000
10.000   1.1087   0.02605   0.01870  -0.0272   0.0721   1.0000
10.250   1.0989   0.02859   0.02095  -0.0241   0.0345   1.0000
10.500   1.0951   0.03084   0.02308  -0.0216   0.0189   1.0000
10.750   1.1023   0.03232   0.02466  -0.0201   0.0172   1.0000
11.000   1.1040   0.03426   0.02668  -0.0184   0.0147   1.0000
11.250   1.1024   0.03653   0.02905  -0.0166   0.0137   1.0000
11.500   1.1011   0.03886   0.03149  -0.0149   0.0132   1.0000
11.750   1.1049   0.04084   0.03357  -0.0137   0.0129   1.0000
12.000   1.1083   0.04294   0.03578  -0.0125   0.0123   1.0000
12.250   1.1110   0.04516   0.03810  -0.0114   0.0121   1.0000
12.500   1.1151   0.04729   0.04035  -0.0104   0.0119   1.0000
12.750   1.1200   0.04940   0.04255  -0.0093   0.0118   1.0000
13.000   1.1261   0.05143   0.04468  -0.0083   0.0116   1.0000
13.250   1.1341   0.05332   0.04667  -0.0072   0.0116   1.0000
13.500   1.1437   0.05516   0.04862  -0.0062   0.0116   1.0000
13.750   1.1542   0.05702   0.05062  -0.0051   0.0115   1.0000
14.000   1.1648   0.05903   0.05278  -0.0042   0.0115   1.0000
14.250   1.1735   0.06136   0.05529  -0.0033   0.0114   1.0000
14.500   1.1791   0.06397   0.05807  -0.0028   0.0112   1.0000
14.750   1.1821   0.06681   0.06108  -0.0024   0.0110   1.0000
15.000   1.1829   0.07003   0.06449  -0.0022   0.0109   1.0000
15.250   1.1815   0.07341   0.06805  -0.0022   0.0107   1.0000
15.500   1.1756   0.07776   0.07265  -0.0023   0.0108   1.0000
15.750   1.1654   0.08281   0.07797  -0.0028   0.0110   1.0000
16.000   1.1530   0.08818   0.08358  -0.0038   0.0112   1.0000
