
 ===================================================
  XFOIL Version 6.99
  Copyright (C) 2000   Mark Drela, Harold Youngren

  This software comes with ABSOLUTELY NO WARRANTY,
    subject to the GNU General Public License.

  Caveat computor
 ===================================================

 File  xfoil.def  not found

   QUIT    Exit program

  .OPER    Direct operating point(s)
  .MDES    Complex mapping design routine
  .QDES    Surface speed design routine
  .GDES    Geometry design routine

   SAVE f  Write airfoil to labeled coordinate file
   PSAV f  Write airfoil to plain coordinate file
   ISAV f  Write airfoil to ISES coordinate file
   MSAV f  Write airfoil to MSES coordinate file
   REVE    Reverse written-airfoil node ordering

   LOAD f  Read buffer airfoil from coordinate file
   NACA i  Set NACA 4,5-digit airfoil and buffer airfoil
   INTE    Set buffer airfoil by interpolating two airfoils
   NORM    Buffer airfoil normalization toggle
   XYCM rr Change CM reference location, currently  0.25000 0.00000

   BEND    Display structural properties of current airfoil

   PCOP    Set current-airfoil panel nodes directly from buffer airfoil points
   PANE    Set current-airfoil panel nodes ( 160 ) based on curvature
  .PPAR    Show/change paneling

  .PLOP    Plotting options

   WDEF f  Write  current-settings file
   RDEF f  Reread current-settings file
   NAME s  Specify new airfoil name
   NINC    Increment name version number

   Z       Zoom    | (available in all menus)
   U       Unzoom  | 

 XFOIL   c>  
 Labeled airfoil file.  Name:  AH 79-100 C AIRFOIL                             

 Number of input coordinate points:  97
 Counterclockwise ordering
 Max thickness =     0.099436  at x =   0.309
 Max camber    =     0.066670  at x =   0.500

  LE  x,y  =  -0.00002   0.00067  |   Chord =   1.00002
  TE  x,y  =   1.00000   0.00000  |

 Current airfoil nodes set from buffer airfoil nodes (  97 )

 XFOIL   c>  
 XFOIL   c>  
 Sharp trailing edge

 Paneling parameters used...
   Number of panel nodes       160
   Panel bunching parameter    1.000
   TE/LE panel density ratio   0.150
   Refined-area/LE panel density ratio    0.200
   Top    side refined area x/c limits  1.000 1.000
   Bottom side refined area x/c limits  1.000 1.000

 XFOIL   c>  
.OPERi   c>  
 Xtr/c     =  1.0000    top    side
 Xtr/c     =  1.0000    bottom side
 Ncrit     =    9.00   ( 0.070 % turb. level )
 Vacc      =  0.0100

 Klag  =  5.6000     Uxwt  =    1.00
 A     =  6.7000     B     =  0.7500       KCt = 0.01485
 CtiniK=  1.8000     CtiniX=  3.3000

..VPAR   c>  
..VPAR   c>  
.OPERi   c>  
 M  =    0.0000
 Re =    200000

.OPERv   c>  
.OPERv   c>  
.OPERv   c>  
 Polar  1 newly created for accumulation
 Airfoil archived with polar: AH 79-100 C AIRFOIL                             

Enter  polar save filename  OR  <return> for no file   s>  
 New polar save file available

Enter  polar dump filename  OR  <return> for no file   s>  
 Polar dump file will NOT be written

 Polar accumulation enabled

.OPERva   c>   Calculating unit vorticity distributions ...
 Calculating wake trajectory ...
 Calculating source influence matrix ...

 Solving BL system ...

 Initializing BL ...
    side            1  ...
 MRCHUE: Inverse mode at  57     Hk =   3.800
 MRCHUE: Inverse mode at  58     Hk =   4.214
 MRCHUE: Inverse mode at  59     Hk =   4.621
 MRCHUE: Inverse mode at  60     Hk =   5.020
 MRCHUE: Inverse mode at  61     Hk =   5.412
 MRCHUE: Inverse mode at  62     Hk =   5.798
 MRCHUE: Inverse mode at  63     Hk =   6.180
 MRCHUE: Inverse mode at  64     Hk =   6.557
 MRCHUE: Inverse mode at  65     Hk =   6.929
 MRCHUE: Inverse mode at  66     Hk =   7.295
 MRCHUE: Inverse mode at  67     Hk =   7.658
 MRCHUE: Inverse mode at  68     Hk =   8.015
 MRCHUE: Inverse mode at  69     Hk =   8.367
 MRCHUE: Inverse mode at  70     Hk =   8.714
 MRCHUE: Inverse mode at  71     Hk =   9.047
 MRCHUE: Inverse mode at  72     Hk =   9.369
 MRCHUE: Inverse mode at  73     Hk =   9.240
 MRCHUE: Inverse mode at  74     Hk =   7.880
 MRCHUE: Inverse mode at  75     Hk =   6.909
 MRCHUE: Inverse mode at  76     Hk =   6.177
 MRCHUE: Inverse mode at  77     Hk =   5.622
 MRCHUE: Inverse mode at  78     Hk =   5.192
 MRCHUE: Inverse mode at  79     Hk =   4.969
    side            2  ...
 MRCHUE: Inverse mode at  14     Hk =   3.800
 MRCHUE: Inverse mode at  15     Hk =   4.466
 MRCHUE: Inverse mode at  16     Hk =   5.148
 MRCHUE: Inverse mode at  17     Hk =   5.854
 MRCHUE: Inverse mode at  18     Hk =   6.608
 MRCHUE: Inverse mode at  19     Hk =   7.462
 MRCHUE: Inverse mode at  20     Hk =   8.451
 MRCHUE: Inverse mode at  21     Hk =   9.538
 MRCHUE: Inverse mode at  22     Hk =   8.812
 MRCHUE: Inverse mode at  23     Hk =   4.108
 MRCHUE: Inverse mode at  24     Hk =   2.500
 MRCHUE: Inverse mode at  25     Hk =   2.500
 MRCHUE: Inverse mode at  26     Hk =   2.500
 MRCHUE: Inverse mode at  27     Hk =   2.500

 Side 1  free  transition at x/c =  0.9383   73
 Side 2  free  transition at x/c =  0.0696   22
 idif Ue xi dudx           1  0.18117255      2.73573399E-03   66.224480    
 Uenew xinew           2  2.19863858E-02  3.31997871E-04

   1   rms: 0.8626E+00   max: 0.6606E+01   T at   22  2   RLX: 0.147
       a = -4.000      CL =  0.4760
      Cm = -0.2526     CD =  0.01480   =>   CDf =  0.00643    CDp =  0.00837

 Side 1  free  transition at x/c =  0.9237   71
 Side 2  free  transition at x/c =  0.0598   23

   2   rms: 0.4701E+00   max: 0.2703E+01   T at   71  1   RLX: 0.341
       a = -4.000      CL =  0.3325
      Cm = -0.2117     CD =  0.02192   =>   CDf =  0.00575    CDp =  0.01616

 MRCHDU: Convergence failed at  23  side 2    Res =  0.1518E+02
 MRCHDU: Convergence failed at  24  side 2    Res =  0.5685E+02
 MRCHDU: Convergence failed at  25  side 2    Res =  0.6106E+02
 MRCHDU: Convergence failed at  26  side 2    Res =  0.7279E+02
 MRCHDU: Convergence failed at  27  side 2    Res =  0.1070E+03
 MRCHDU: Convergence failed at  28  side 2    Res =  0.1451E+03
 MRCHDU: Convergence failed at  29  side 2    Res =  0.4147E+02
 MRCHDU: Convergence failed at  30  side 2    Res =  0.4546E+02
 MRCHDU: Convergence failed at  31  side 2    Res =  0.3271E+03
 MRCHDU: Convergence failed at  32  side 2    Res =  0.9743E+03
 MRCHDU: Convergence failed at  33  side 2    Res =  0.5417E+03
 MRCHDU: Convergence failed at  34  side 2    Res =  0.3510E+03
 MRCHDU: Convergence failed at  35  side 2    Res =  0.2813E+03
 MRCHDU: Convergence failed at  36  side 2    Res =  0.2486E+03
 MRCHDU: Convergence failed at  37  side 2    Res =  0.2205E+03
 MRCHDU: Convergence failed at  38  side 2    Res =  0.1989E+03
 MRCHDU: Convergence failed at  39  side 2    Res =  0.1871E+03
 MRCHDU: Convergence failed at  40  side 2    Res =  0.1813E+03
 MRCHDU: Convergence failed at  41  side 2    Res =  0.1769E+03
 MRCHDU: Convergence failed at  42  side 2    Res =  0.1735E+03
 MRCHDU: Convergence failed at  43  side 2    Res =  0.1728E+03
 MRCHDU: Convergence failed at  44  side 2    Res =  0.1795E+03
 MRCHDU: Convergence failed at  45  side 2    Res =  0.7484E+02
 MRCHDU: Convergence failed at  46  side 2    Res =  0.1069E+03
 MRCHDU: Convergence failed at  47  side 2    Res =  0.1110E+03
 MRCHDU: Convergence failed at  48  side 2    Res =  0.1149E+03
 MRCHDU: Convergence failed at  49  side 2    Res =  0.2207E+04
 MRCHDU: Convergence failed at  50  side 2    Res =  0.1649E+03
 MRCHDU: Convergence failed at  51  side 2    Res =  0.1690E+03
 MRCHDU: Convergence failed at  52  side 2    Res =  0.1758E+03
 MRCHDU: Convergence failed at  53  side 2    Res =  0.1800E+03
 MRCHDU: Convergence failed at  54  side 2    Res =  0.1835E+03
 MRCHDU: Convergence failed at  55  side 2    Res =  0.1918E+03
 MRCHDU: Convergence failed at  56  side 2    Res =  0.1663E+03
 MRCHDU: Convergence failed at  57  side 2    Res =  0.1719E+03
 MRCHDU: Convergence failed at  58  side 2    Res =  0.1737E+03
 MRCHDU: Convergence failed at  59  side 2    Res =  0.1130E+03
 MRCHDU: Convergence failed at  60  side 2    Res =  0.1187E+03
 MRCHDU: Convergence failed at  61  side 2    Res =  0.1231E+03
 MRCHDU: Convergence failed at  62  side 2    Res =  0.1269E+03
 MRCHDU: Convergence failed at  63  side 2    Res =  0.1323E+03
 MRCHDU: Convergence failed at  64  side 2    Res =  0.1390E+03
 MRCHDU: Convergence failed at  65  side 2    Res =  0.1478E+03
 MRCHDU: Convergence failed at  66  side 2    Res =  0.1567E+03
 MRCHDU: Convergence failed at  67  side 2    Res =  0.1642E+03
 MRCHDU: Convergence failed at  68  side 2    Res =  0.1711E+03
 MRCHDU: Convergence failed at  69  side 2    Res =  0.1793E+03
 MRCHDU: Convergence failed at  70  side 2    Res =  0.1895E+03
 MRCHDU: Convergence failed at  71  side 2    Res =  0.2003E+03
 MRCHDU: Convergence failed at  72  side 2    Res =  0.2133E+03
 MRCHDU: Convergence failed at  73  side 2    Res =  0.2170E+03
 MRCHDU: Convergence failed at  74  side 2    Res =  0.2170E+03
 MRCHDU: Convergence failed at  75  side 2    Res =  0.2370E+03
 MRCHDU: Convergence failed at  76  side 2    Res =  0.2375E+03
 MRCHDU: Convergence failed at  77  side 2    Res =  0.2386E+03
 MRCHDU: Convergence failed at  78  side 2    Res =  0.9524E+02
 MRCHDU: Convergence failed at  79  side 2    Res =  0.9451E+02
 MRCHDU: Convergence failed at  80  side 2    Res =  0.9821E+02
 MRCHDU: Convergence failed at  81  side 2    Res =  0.1064E+03
 MRCHDU: Convergence failed at  82  side 2    Res =  0.1044E+03
 MRCHDU: Convergence failed at  83  side 2    Res =  0.5178E+02
 MRCHDU: Convergence failed at  84  side 2    Res =  0.2018E+03
 Side 1  free  transition at x/c =  0.8994   69
 Side 2  free  transition at x/c =  0.0587   22

   3   rms: 0.1177E+01   max: -.5279E+01   T at   69  1   RLX: 0.095
       a = -4.000      CL = -0.9554
      Cm =  0.2066     CD =  0.01090   =>   CDf =  0.00346    CDp =  0.00744

 Side 1  free  transition at x/c =  0.9156   71
 Side 2  free  transition at x/c =  0.0594   23
 idif Ue xi dudx           1  0.24545173      4.80282307E-03   51.105721    
 Uenew xinew           2  0.10549995      2.06434727E-03

   4   rms: 0.6294E+00   max: 0.3551E+01   T at   23  2   RLX: 0.422
       a = -4.000      CL = -0.2736
      Cm = -0.0337     CD =  0.05265   =>   CDf =  0.00397    CDp =  0.04868

 MRCHDU: Convergence failed at  24  side 2    Res =  0.8136E+02
 MRCHDU: Convergence failed at  25  side 2    Res =  0.2762E+02
 MRCHDU: Convergence failed at  26  side 2    Res =  0.2114E+02
 MRCHDU: Convergence failed at  27  side 2    Res =  0.3346E+02
 MRCHDU: Convergence failed at  28  side 2    Res =  0.1005E+03
 MRCHDU: Convergence failed at  29  side 2    Res =  0.1479E+03
 MRCHDU: Convergence failed at  30  side 2    Res =  0.4006E+02
 MRCHDU: Convergence failed at  31  side 2    Res =  0.6447E+02
 MRCHDU: Convergence failed at  32  side 2    Res =  0.8750E+02
 MRCHDU: Convergence failed at  33  side 2    Res =  0.2966E+03
 MRCHDU: Convergence failed at  34  side 2    Res =  0.5554E+02
 MRCHDU: Convergence failed at  35  side 2    Res =  0.6345E+02
 MRCHDU: Convergence failed at  36  side 2    Res =  0.5843E+02
 MRCHDU: Convergence failed at  37  side 2    Res =  0.5681E+02
 MRCHDU: Convergence failed at  38  side 2    Res =  0.6018E+02
 MRCHDU: Convergence failed at  39  side 2    Res =  0.7343E+02
 MRCHDU: Convergence failed at  40  side 2    Res =  0.6308E+02
 MRCHDU: Convergence failed at  41  side 2    Res =  0.8769E+02
 MRCHDU: Convergence failed at  42  side 2    Res =  0.1157E+03
 MRCHDU: Convergence failed at  43  side 2    Res =  0.1623E+03
 MRCHDU: Convergence failed at  44  side 2    Res =  0.1142E+03
 MRCHDU: Convergence failed at  45  side 2    Res =  0.6950E+02
 MRCHDU: Convergence failed at  46  side 2    Res =  0.6292E+02
 MRCHDU: Convergence failed at  47  side 2    Res =  0.1100E+03
 MRCHDU: Convergence failed at  48  side 2    Res =  0.2014E+03
 MRCHDU: Convergence failed at  49  side 2    Res =  0.5724E+03
 MRCHDU: Convergence failed at  50  side 2    Res =  0.5516E+03
 MRCHDU: Convergence failed at  51  side 2    Res =  0.7629E+02
 MRCHDU: Convergence failed at  52  side 2    Res =  0.1092E+03
 MRCHDU: Convergence failed at  53  side 2    Res =  0.2862E+04
 MRCHDU: Convergence failed at  54  side 2    Res =  0.1548E+03
 MRCHDU: Convergence failed at  55  side 2    Res =  0.9465E+02
 MRCHDU: Convergence failed at  56  side 2    Res =  0.7771E+02
 MRCHDU: Convergence failed at  57  side 2    Res =  0.1517E+03
 MRCHDU: Convergence failed at  58  side 2    Res =  0.3586E+03
 MRCHDU: Convergence failed at  59  side 2    Res =  0.9755E+02
 MRCHDU: Convergence failed at  60  side 2    Res =  0.7126E+02
 MRCHDU: Convergence failed at  61  side 2    Res =  0.6812E+02
 MRCHDU: Convergence failed at  62  side 2    Res =  0.6373E+02
 MRCHDU: Convergence failed at  63  side 2    Res =  0.5694E+02
 MRCHDU: Convergence failed at  64  side 2    Res =  0.5103E+02
 MRCHDU: Convergence failed at  65  side 2    Res =  0.8045E+02
 MRCHDU: Convergence failed at  66  side 2    Res =  0.7876E+02
 MRCHDU: Convergence failed at  67  side 2    Res =  0.8935E+02
 MRCHDU: Convergence failed at  68  side 2    Res =  0.7938E+02
 MRCHDU: Convergence failed at  69  side 2    Res =  0.6753E+02
 MRCHDU: Convergence failed at  70  side 2    Res =  0.6000E+02
 MRCHDU: Convergence failed at  71  side 2    Res =  0.5548E+02
 MRCHDU: Convergence failed at  72  side 2    Res =  0.1032E+04
 MRCHDU: Convergence failed at  73  side 2    Res =  0.1772E+03
 MRCHDU: Convergence failed at  74  side 2    Res =  0.1876E+03
 MRCHDU: Convergence failed at  75  side 2    Res =  0.6513E+02
 MRCHDU: Convergence failed at  76  side 2    Res =  0.6033E+02
 MRCHDU: Convergence failed at  77  side 2    Res =  0.6183E+02
 MRCHDU: Convergence failed at  78  side 2    Res =  0.6583E+02
 MRCHDU: Convergence failed at  79  side 2    Res =  0.8138E+02
 MRCHDU: Convergence failed at  80  side 2    Res =  0.8660E+02
 MRCHDU: Convergence failed at  81  side 2    Res =  0.6703E+02
 MRCHDU: Convergence failed at  82  side 2    Res =  0.7448E+03
 MRCHDU: Convergence failed at  83  side 2    Res =  0.4821E+02
 MRCHDU: Convergence failed at  84  side 2    Res =  0.5863E+02
 MRCHDU: Convergence failed at  85  side 2    Res =  0.4398E+03
 Side 1  free  transition at x/c =  0.9219   70
 Side 2  free  transition at x/c =  0.0579   23

   5   rms: 0.1102E+01   max: -.4006E+01   T at   23  2   RLX: 0.125
       a = -4.000      CL = -1.2884
      Cm =  0.2825     CD =  0.01461   =>   CDf =  0.00333    CDp =  0.01128

 MRCHDU: Convergence failed at  92  side 2    Res =  0.2031E+01
 MRCHDU: Convergence failed at  93  side 2    Res =  0.1313E+01
 Side 1  free  transition at x/c =  0.9228   70
 Side 2  free  transition at x/c =  0.0601   24

   6   rms: 0.6803E+00   max: 0.4862E+01   T at   24  2   RLX: 0.309
       a = -4.000      CL = -0.4987
      Cm =  0.0314     CD =  0.06399   =>   CDf =  0.00379    CDp =  0.06020

 MRCHDU: Convergence failed at  24  side 2    Res =  0.2478E+02
 Side 1  free  transition at x/c =  0.9366   71
 Side 2  free  transition at x/c =  0.0543   23

   7   rms: 0.5316E+00   max: -.1153E+01   C at   98  2   RLX: 0.434
       a = -4.000      CL = -0.3373
      Cm = -0.0078     CD =  0.07153   =>   CDf =  0.00379    CDp =  0.06774

 Side 1  free  transition at x/c =  0.9362   71
 Side 2  free  transition at x/c =  0.0613   24

   8   rms: 0.4064E+00   max: 0.1812E+01   T at   24  2   RLX: 0.524
       a = -4.000      CL = -0.1093
      Cm = -0.0735     CD =  0.06276   =>   CDf =  0.00378    CDp =  0.05898

 Side 1  free  transition at x/c =  0.9225   70
 Side 2  free  transition at x/c =  0.0649   24
 idif Ue xi dudx           1  0.15094030      3.68773937E-03   40.930305    
 Uenew xinew           2  2.36742310E-02  5.78403473E-04

   9   rms: 0.2071E+01   max: 0.1831E+02   T at   24  2   RLX: 0.082
       a = -4.000      CL = -0.0877
      Cm = -0.1136     CD =  0.06956   =>   CDf =  0.00362    CDp =  0.06594

 MRCHDU: Convergence failed at  25  side 2    Res =  0.1802E+02
 MRCHDU: Convergence failed at  26  side 2    Res =  0.4179E+02
 MRCHDU: Convergence failed at  27  side 2    Res =  0.4279E+02
 MRCHDU: Convergence failed at  28  side 2    Res =  0.1078E+03
 MRCHDU: Convergence failed at  29  side 2    Res =  0.1300E+03
 MRCHDU: Convergence failed at  30  side 2    Res =  0.6559E+03
 MRCHDU: Convergence failed at  31  side 2    Res =  0.8277E+02
 MRCHDU: Convergence failed at  32  side 2    Res =  0.7149E+02
 MRCHDU: Convergence failed at  33  side 2    Res =  0.1086E+03
 MRCHDU: Convergence failed at  34  side 2    Res =  0.1757E+03
 MRCHDU: Convergence failed at  35  side 2    Res =  0.4199E+03
 MRCHDU: Convergence failed at  36  side 2    Res =  0.1055E+04
 MRCHDU: Convergence failed at  37  side 2    Res =  0.2606E+03
 MRCHDU: Convergence failed at  38  side 2    Res =  0.1377E+03
 MRCHDU: Convergence failed at  39  side 2    Res =  0.1132E+03
 MRCHDU: Convergence failed at  40  side 2    Res =  0.9119E+02
 MRCHDU: Convergence failed at  41  side 2    Res =  0.7924E+02
 MRCHDU: Convergence failed at  42  side 2    Res =  0.8342E+02
 MRCHDU: Convergence failed at  43  side 2    Res =  0.9521E+02
 MRCHDU: Convergence failed at  44  side 2    Res =  0.1014E+03
 MRCHDU: Convergence failed at  45  side 2    Res =  0.8986E+02
 MRCHDU: Convergence failed at  46  side 2    Res =  0.1431E+03
 MRCHDU: Convergence failed at  47  side 2    Res =  0.3810E+03
 MRCHDU: Convergence failed at  48  side 2    Res =  0.1866E+03
 MRCHDU: Convergence failed at  49  side 2    Res =  0.2032E+03
 MRCHDU: Convergence failed at  50  side 2    Res =  0.2616E+03
 MRCHDU: Convergence failed at  51  side 2    Res =  0.4281E+03
 MRCHDU: Convergence failed at  52  side 2    Res =  0.4281E+03
 MRCHDU: Convergence failed at  53  side 2    Res =  0.8914E+03
 MRCHDU: Convergence failed at  54  side 2    Res =  0.1734E+04
 MRCHDU: Convergence failed at  55  side 2    Res =  0.2665E+04
 MRCHDU: Convergence failed at  56  side 2    Res =  0.1849E+04
 MRCHDU: Convergence failed at  57  side 2    Res =  0.3632E+03
 MRCHDU: Convergence failed at  58  side 2    Res =  0.2745E+03
 MRCHDU: Convergence failed at  59  side 2    Res =  0.2270E+03
 MRCHDU: Convergence failed at  60  side 2    Res =  0.1938E+03
 MRCHDU: Convergence failed at  61  side 2    Res =  0.1796E+03
 MRCHDU: Convergence failed at  62  side 2    Res =  0.1522E+03
 MRCHDU: Convergence failed at  63  side 2    Res =  0.1120E+03
 MRCHDU: Convergence failed at  64  side 2    Res =  0.1011E+03
 MRCHDU: Convergence failed at  65  side 2    Res =  0.9159E+02
 MRCHDU: Convergence failed at  66  side 2    Res =  0.8818E+02
 MRCHDU: Convergence failed at  67  side 2    Res =  0.8443E+02
 MRCHDU: Convergence failed at  68  side 2    Res =  0.7656E+02
 MRCHDU: Convergence failed at  69  side 2    Res =  0.9063E+02
 MRCHDU: Convergence failed at  70  side 2    Res =  0.1064E+03
 MRCHDU: Convergence failed at  71  side 2    Res =  0.1104E+03
 MRCHDU: Convergence failed at  72  side 2    Res =  0.1056E+03
 MRCHDU: Convergence failed at  73  side 2    Res =  0.1125E+03
 MRCHDU: Convergence failed at  74  side 2    Res =  0.1207E+03
 MRCHDU: Convergence failed at  75  side 2    Res =  0.1291E+03
 MRCHDU: Convergence failed at  76  side 2    Res =  0.1718E+03
 MRCHDU: Convergence failed at  77  side 2    Res =  0.1886E+03
 MRCHDU: Convergence failed at  78  side 2    Res =  0.2216E+03
 MRCHDU: Convergence failed at  79  side 2    Res =  0.2180E+03
 MRCHDU: Convergence failed at  80  side 2    Res =  0.2497E+03
 MRCHDU: Convergence failed at  81  side 2    Res =  0.2917E+03
 MRCHDU: Convergence failed at  82  side 2    Res =  0.3455E+03
 MRCHDU: Convergence failed at  83  side 2    Res =  0.5936E+03
 MRCHDU: Convergence failed at  84  side 2    Res =  0.6122E+03
 MRCHDU: Convergence failed at  85  side 2    Res =  0.6914E+03
 MRCHDU: Convergence failed at  86  side 2    Res =  0.6269E+03
 Side 1  free  transition at x/c =  0.9119   68
 Side 2  free  transition at x/c =  0.0469   23

  10   rms: 0.5006E+01   max: 0.8784E+02   T at   24  2   RLX: 0.013
       a = -4.000      CL = -1.5642
      Cm =  0.3509     CD =  0.02553   =>   CDf =  0.00343    CDp =  0.02211

 Side 1  free  transition at x/c =  0.9149   69
 Side 2  free  transition at x/c =  0.0459   23

  11   rms: 0.7107E+00   max: 0.2796E+01   D at   92  2   RLX: 0.187
       a = -4.000      CL = -1.1043
      Cm =  0.1992     CD =  0.09746   =>   CDf =  0.00358    CDp =  0.09389

 Side 1  free  transition at x/c =  0.9264   69
 Side 2  free  transition at x/c =  0.0620   25

  12   rms: 0.1736E+01   max: 0.2104E+02   T at   25  2   RLX: 0.071
       a = -4.000      CL = -0.9969
      Cm =  0.1530     CD =  0.12376   =>   CDf =  0.00356    CDp =  0.12020

 Side 1  free  transition at x/c =  0.9169   69
 Side 2  free  transition at x/c =  0.0572   24

  13   rms: 0.6587E+00   max: 0.3089E+01   T at   24  2   RLX: 0.324
       a = -4.000      CL = -0.7442
      Cm =  0.0926     CD =  0.09209   =>   CDf =  0.00349    CDp =  0.08860

 Side 1  free  transition at x/c =  0.9266   69
 Side 2  free  transition at x/c =  0.0640   25

  14   rms: 0.2811E+01   max: -.2953E+02   T at   25  2   RLX: 0.017
       a = -4.000      CL = -0.7323
      Cm =  0.0913     CD =  0.13926   =>   CDf =  0.00363    CDp =  0.13563

 Side 1  free  transition at x/c =  0.9296   71
 Side 2  free  transition at x/c =  0.0693   24

  15   rms: 0.5733E+00   max: -.3577E+01   T at   24  2   RLX: 0.140
       a = -4.000      CL = -0.6157
      Cm =  0.0610     CD =  0.11829   =>   CDf =  0.00363    CDp =  0.11466

 Side 1  free  transition at x/c =  0.9312   71
 Side 2  free  transition at x/c =  0.3206   40

  16   rms: 0.1569E+01   max: 0.1041E+02   T at   40  2   RLX: 0.053
       a = -4.000      CL = -0.8691
      Cm =  0.1229     CD =  0.11489   =>   CDf =  0.00335    CDp =  0.11155

 Side 1  free  transition at x/c =  0.9304   71
 Side 2  free  transition at x/c =  0.1312   29

  17   rms: 0.7020E+01   max: 0.8446E+02   T at   29  2   RLX: 0.018
       a = -4.000      CL = -0.8716
      Cm =  0.1264     CD =  0.14454   =>   CDf =  0.00359    CDp =  0.14095

 Side 1  free  transition at x/c =  0.9314   71
 Side 2  free  transition at x/c =  0.1321   29

  18   rms: 0.1106E+02   max: -.1037E+03   T at   29  2   RLX: 0.005
       a = -4.000      CL = -0.8894
      Cm =  0.1376     CD =  0.14047   =>   CDf =  0.00353    CDp =  0.13693

 Side 1  free  transition at x/c =  0.9310   71
 Side 2  free  transition at x/c =  0.1485   30
 idif Ue xi dudx           1  0.12878950      3.30698490E-03   38.944691    
 Uenew xinew           2  7.69737922E-03  1.97649002E-04

  19   rms: 0.2304E+02   max: 0.3105E+03   T at   30  2   RLX: 0.005
       a = -4.000      CL = -0.9435
      Cm =  0.1333     CD =  0.13268   =>   CDf =  0.00352    CDp =  0.12916

 Side 1  free  transition at x/c =  0.9320   70
 Side 2  free  transition at x/c =  0.1449   30

  20   rms: 0.7148E+01   max: 0.5630E+02   T at   31  2   RLX: 0.012
       a = -4.000      CL = -1.0167
      Cm =  0.1433     CD =  0.12909   =>   CDf =  0.00348    CDp =  0.12561

 Side 1  free  transition at x/c =  0.9317   70
 Side 2  free  transition at x/c =  0.1325   30

  21   rms: 0.6183E+00   max: -.1165E+01   C at   99  2   RLX: 0.429
       a = -4.000      CL = -0.6077
      Cm =  0.0445     CD =  0.09362   =>   CDf =  0.00350    CDp =  0.09012

 Side 1  free  transition at x/c =  0.9347   71
 Side 2  free  transition at x/c =  0.0635   24

  22   rms: 0.5084E+00   max: -.9852E+00   C at   98  2   RLX: 0.507
       a = -4.000      CL = -0.2534
      Cm = -0.0181     CD =  0.08502   =>   CDf =  0.00366    CDp =  0.08136

 Side 1  free  transition at x/c =  0.9279   71
 Side 2  free  transition at x/c =  0.0698   23

  23   rms: 0.3062E+00   max: -.9105E+00   D at  102  2   RLX: 0.549
       a = -4.000      CL = -0.0722
      Cm = -0.0670     CD =  0.09704   =>   CDf =  0.00371    CDp =  0.09333

 Side 1  free  transition at x/c =  0.9226   71
 Side 2  free  transition at x/c =  0.0672   23

  24   rms: 0.2487E+00   max: -.9900E+00   D at  102  2   RLX: 0.505
       a = -4.000      CL =  0.0097
      Cm = -0.0956     CD =  0.07805   =>   CDf =  0.00366    CDp =  0.07439

 Side 1  free  transition at x/c =  0.9131   70
 Side 2  free  transition at x/c =  0.0656   23

  25   rms: 0.3340E+00   max: -.2342E+01   T at   23  2   RLX: 0.213
       a = -4.000      CL =  0.0698
      Cm = -0.1147     CD =  0.07987   =>   CDf =  0.00359    CDp =  0.07628

 Side 1  free  transition at x/c =  0.9260   71
 Side 2  free  transition at x/c =  0.0679   23

  26   rms: 0.2319E+00   max: 0.1225E+01   T at   71  1   RLX: 0.544
       a = -4.000      CL =  0.0602
      Cm = -0.1171     CD =  0.06558   =>   CDf =  0.00364    CDp =  0.06195

 Side 1  free  transition at x/c =  0.9040   70
 Side 2  free  transition at x/c =  0.0660   23
 idif Ue xi dudx           1  0.16108543      3.37171555E-03   47.775509    
 Uenew xinew           2  3.02533507E-02  6.33239746E-04

  27   rms: 0.2148E+00   max: 0.1586E+01   T at   70  1   RLX: 0.666
       a = -4.000      CL =  0.0151
      Cm = -0.1155     CD =  0.06154   =>   CDf =  0.00354    CDp =  0.05799

 Side 1  free  transition at x/c =  0.8808   67
 Side 2  free  transition at x/c =  0.0582   23

  28   rms: 0.3082E+00   max: 0.2273E+01   T at   67  1   RLX: 0.331
       a = -4.000      CL = -0.1083
      Cm = -0.0766     CD =  0.07386   =>   CDf =  0.00345    CDp =  0.07040

 Side 1  free  transition at x/c =  0.8625   66
 Side 2  free  transition at x/c =  0.0533   23

  29   rms: 0.1499E+00   max: -.6037E+00   T at   23  2   RLX: 0.828
       a = -4.000      CL = -0.0252
      Cm = -0.0960     CD =  0.06337   =>   CDf =  0.00329    CDp =  0.06007

 Side 1  free  transition at x/c =  0.8622   66
 Side 2  free  transition at x/c =  0.0569   23

  30   rms: 0.2067E+00   max: -.1109E+01   T at   23  2   RLX: 0.451
       a = -4.000      CL =  0.0307
      Cm = -0.1135     CD =  0.06110   =>   CDf =  0.00342    CDp =  0.05768

 Side 1  free  transition at x/c =  0.8629   66
 Side 2  free  transition at x/c =  0.0559   23

  31   rms: 0.6392E-01   max: -.6145E+00   D at   23  2   RLX: 0.814
       a = -4.000      CL =  0.0969
      Cm = -0.1324     CD =  0.05035   =>   CDf =  0.00378    CDp =  0.04657

 Side 1  free  transition at x/c =  0.8664   66
 Side 2  free  transition at x/c =  0.0589   23

  32   rms: 0.2961E+00   max: -.8490E+00   D at   84  2   RLX: 0.589
       a = -4.000      CL =  0.1069
      Cm = -0.1464     CD =  0.06265   =>   CDf =  0.00359    CDp =  0.05906

 MRCHDU: Convergence failed at  33  side 2    Res =  0.3493E+00
 MRCHDU: Convergence failed at  34  side 2    Res =  0.1758E+02
 MRCHDU: Convergence failed at  35  side 2    Res =  0.1793E+03
 MRCHDU: Convergence failed at  36  side 2    Res =  0.1157E+03
 TRCHEK2: N2 convergence failed.
 x:  0.27762  0.28838  0.29375  N:  8.997  9.000  9.002  Nx:   2.268   dN: 0.279E+00
 TRCHEK2: N2 convergence failed.
 x:  0.27762  0.28698  0.29375  N:  8.997  9.000  9.002  Nx:   2.303   dN: 0.293E+00
 TRCHEK2: N2 convergence failed.
 x:  0.27762  0.28843  0.29375  N:  8.997  9.000  9.002  Nx:   2.272   dN: 0.135E+00
 TRCHEK2: N2 convergence failed.
 x:  0.27762  0.28983  0.29375  N:  8.997  9.000  9.001  Nx:   2.255   dN:-0.239E+00
 TRCHEK2: N2 convergence failed.
 x:  0.27762  0.28838  0.29375  N:  8.997  9.000  9.001  Nx:   2.291   dN:-0.198E+00
 TRCHEK2: N2 convergence failed.
 x:  0.27762  0.28690  0.29375  N:  8.997  9.000  9.002  Nx:   2.341   dN:-0.344E-01
 TRCHEK2: N2 convergence failed.
 x:  0.27762  0.28701  0.29375  N:  8.997  9.000  9.001  Nx:   2.347   dN:-0.346E+00
 TRCHEK2: N2 convergence failed.
 x:  0.27762  0.28690  0.29375  N:  8.997  9.000  9.002  Nx:   2.356   dN:-0.242E-01
 TRCHEK2: N2 convergence failed.
 x:  0.27762  0.28701  0.29375  N:  8.997  9.000  9.002  Nx:   2.359   dN: 0.642E+00
 TRCHEK2: N2 convergence failed.
 x:  0.27762  0.28851  0.29375  N:  8.997  9.000  9.002  Nx:   2.324   dN: 0.140E+00
 TRCHEK2: N2 convergence failed.
 x:  0.27762  0.28993  0.29375  N:  8.997  9.000  9.001  Nx:   2.308   dN: 0.461E+00
 TRCHEK2: N2 convergence failed.
 x:  0.27762  0.29300  0.29375  N:  8.997  9.000  9.000  Nx:   2.270   dN: 0.326E+00
 TRCHEK2: N2 convergence failed.
 x:  0.27762  0.29251  0.29375  N:  8.997  9.000  9.000  Nx:   2.373   dN:-0.761E-02
 TRCHEK2: N2 convergence failed.
 x:  0.27762  0.29248  0.29375  N:  8.997  9.000  9.000  Nx:   2.317   dN:-0.173E-01
 TRCHEK2: N2 convergence failed.
 x:  0.27762  0.29256  0.29375  N:  8.997  9.000  9.000  Nx:   2.327   dN:-0.610E+00
 TRCHEK2: N2 convergence failed.
 x:  0.27762  0.29262  0.29375  N:  8.997  9.000  9.000  Nx:   2.401   dN:-0.501E-02
 TRCHEK2: N2 convergence failed.
 x:  0.27762  0.29273  0.29375  N:  8.997  9.000  9.000  Nx:   2.454   dN:-0.346E-02
 TRCHEK2: N2 convergence failed.
 x:  0.27762  0.29272  0.29375  N:  8.997  9.000  9.000  Nx:   2.444   dN:-0.364E-02
 MRCHDU: Convergence failed at  37  side 2    Res =  0.3355E+01
 MRCHDU: Convergence failed at  38  side 2    Res =  0.3813E+03
 MRCHDU: Convergence failed at  39  side 2    Res =  0.3827E+03
 MRCHDU: Convergence failed at  40  side 2    Res =  0.4759E+03
 MRCHDU: Convergence failed at  41  side 2    Res =  0.1192E+03
 MRCHDU: Convergence failed at  42  side 2    Res =  0.8430E+03
 MRCHDU: Convergence failed at  43  side 2    Res =  0.5891E+03
 MRCHDU: Convergence failed at  44  side 2    Res =  0.5862E+03
 MRCHDU: Convergence failed at  45  side 2    Res =  0.6829E+03
 MRCHDU: Convergence failed at  46  side 2    Res =  0.9977E+03
 MRCHDU: Convergence failed at  47  side 2    Res =  0.1057E+04
 MRCHDU: Convergence failed at  48  side 2    Res =  0.9244E+03
 MRCHDU: Convergence failed at  49  side 2    Res =  0.8333E+03
 MRCHDU: Convergence failed at  50  side 2    Res =  0.7724E+03
 MRCHDU: Convergence failed at  51  side 2    Res =  0.7357E+03
 MRCHDU: Convergence failed at  52  side 2    Res =  0.7298E+03
 MRCHDU: Convergence failed at  53  side 2    Res =  0.7329E+03
 MRCHDU: Convergence failed at  54  side 2    Res =  0.7469E+03
 MRCHDU: Convergence failed at  55  side 2    Res =  0.7128E+03
 MRCHDU: Convergence failed at  56  side 2    Res =  0.6591E+03
 MRCHDU: Convergence failed at  57  side 2    Res =  0.6689E+03
 MRCHDU: Convergence failed at  58  side 2    Res =  0.6941E+03
 MRCHDU: Convergence failed at  59  side 2    Res =  0.7173E+03
 MRCHDU: Convergence failed at  60  side 2    Res =  0.7486E+03
 MRCHDU: Convergence failed at  61  side 2    Res =  0.7918E+03
 MRCHDU: Convergence failed at  62  side 2    Res =  0.8481E+03
 MRCHDU: Convergence failed at  63  side 2    Res =  0.8782E+03
 MRCHDU: Convergence failed at  64  side 2    Res =  0.8880E+03
 MRCHDU: Convergence failed at  65  side 2    Res =  0.8531E+03
 MRCHDU: Convergence failed at  66  side 2    Res =  0.8737E+03
 MRCHDU: Convergence failed at  67  side 2    Res =  0.9236E+03
 MRCHDU: Convergence failed at  68  side 2    Res =  0.9701E+03
 MRCHDU: Convergence failed at  69  side 2    Res =  0.1020E+04
 MRCHDU: Convergence failed at  70  side 2    Res =  0.1065E+04
 MRCHDU: Convergence failed at  71  side 2    Res =  0.1110E+04
 MRCHDU: Convergence failed at  72  side 2    Res =  0.1157E+04
 MRCHDU: Convergence failed at  73  side 2    Res =  0.1186E+04
 MRCHDU: Convergence failed at  74  side 2    Res =  0.1209E+04
 MRCHDU: Convergence failed at  75  side 2    Res =  0.1216E+04
 MRCHDU: Convergence failed at  76  side 2    Res =  0.1216E+04
 MRCHDU: Convergence failed at  77  side 2    Res =  0.1161E+04
 MRCHDU: Convergence failed at  78  side 2    Res =  0.1110E+04
 MRCHDU: Convergence failed at  79  side 2    Res =  0.3209E+03
 MRCHDU: Convergence failed at  80  side 2    Res =  0.2876E+03
 MRCHDU: Convergence failed at  81  side 2    Res =  0.2569E+03
 MRCHDU: Convergence failed at  82  side 2    Res =  0.2423E+03
 MRCHDU: Convergence failed at  83  side 2    Res =  0.2298E+03
 MRCHDU: Convergence failed at  84  side 2    Res =  0.1567E+03
 MRCHDU: Convergence failed at  85  side 2    Res =  0.1617E+03
 Side 1  free  transition at x/c =  0.8640   66
 Side 2  free  transition at x/c =  0.2586   37

  33   rms: 0.2455E+01   max: 0.3665E+02   T at   37  2   RLX: 0.033
       a = -4.000      CL = -0.9714
      Cm =  0.2196     CD =  0.01461   =>   CDf =  0.00281    CDp =  0.01180

 Side 1  free  transition at x/c =  0.8665   66
 Side 2  free  transition at x/c =  0.2439   36

  34   rms: 0.1445E+01   max: 0.1557E+02   T at   36  2   RLX: 0.045
       a = -4.000      CL = -0.7115
      Cm =  0.1105     CD =  0.06805   =>   CDf =  0.00318    CDp =  0.06487

 Side 1  free  transition at x/c =  0.8842   67
 Side 2  free  transition at x/c =  0.1756   31

  35   rms: 0.4183E+01   max: 0.4910E+02   T at   32  2   RLX: 0.011
       a = -4.000      CL = -0.7288
      Cm =  0.1207     CD =  0.07197   =>   CDf =  0.00331    CDp =  0.06865

 Side 1  free  transition at x/c =  0.8881   68
 Side 2  free  transition at x/c =  0.1681   31

  36   rms: 0.1664E+01   max: 0.3420E+02   T at   31  2   RLX: 0.044
       a = -4.000      CL = -0.7504
      Cm =  0.1191     CD =  0.07127   =>   CDf =  0.00333    CDp =  0.06794

 Side 1  free  transition at x/c =  0.8902   68
 Side 2  free  transition at x/c =  0.0858   25

  37   rms: 0.5283E+02   max: 0.5446E+03   T at   26  2   RLX: 0.003
       a = -4.000      CL = -0.7859
      Cm =  0.1325     CD =  0.08367   =>   CDf =  0.00344    CDp =  0.08023

 Side 1  free  transition at x/c =  0.8879   68
 Side 2  free  transition at x/c =  0.0844   25

  38   rms: 0.1050E+01   max: 0.5252E+01   D at   88  2   RLX: 0.099
       a = -4.000      CL = -0.8061
      Cm =  0.1292     CD =  0.07920   =>   CDf =  0.00340    CDp =  0.07580

 Side 1  free  transition at x/c =  0.8946   68
 Side 2  free  transition at x/c =  0.0667   24

  39   rms: 0.6672E+00   max: -.4309E+01   T at   68  1   RLX: 0.116
       a = -4.000      CL = -0.7171
      Cm =  0.1106     CD =  0.08649   =>   CDf =  0.00343    CDp =  0.08306

 Side 1  free  transition at x/c =  0.9128   69
 Side 2  free  transition at x/c =  0.0677   24

  40   rms: 0.5277E+01   max: -.5218E+02   T at   24  2   RLX: 0.010
       a = -4.000      CL = -0.6521
      Cm =  0.0938     CD =  0.08902   =>   CDf =  0.00353    CDp =  0.08549

 Side 1  free  transition at x/c =  0.9319   71
 Side 2  free  transition at x/c =  0.0659   24

  41   rms: 0.4812E+00   max: 0.1821E+01   D at   88  2   RLX: 0.396
       a = -4.000      CL = -0.4663
      Cm =  0.0381     CD =  0.08547   =>   CDf =  0.00363    CDp =  0.08184

 MRCHDU: Convergence failed at  99  side 2    Res =  0.1758E+01
 MRCHDU: Convergence failed at 100  side 2    Res =  0.1007E+01
 Side 1  free  transition at x/c =  0.9416   72
 Side 2  free  transition at x/c =  0.0564   23

  42   rms: 0.3956E+00   max: 0.1327E+01   T at   24  2   RLX: 0.506
       a = -4.000      CL = -0.1690
      Cm = -0.0359     CD =  0.08024   =>   CDf =  0.00370    CDp =  0.07654

 Side 1  free  transition at x/c =  0.9440   73
 Side 2  free  transition at x/c =  0.0573   22

  43   rms: 0.3416E+00   max: -.1204E+01   D at  103  2   RLX: 0.415
       a = -4.000      CL = -0.0380
      Cm = -0.0755     CD =  0.08159   =>   CDf =  0.00376    CDp =  0.07783

 Side 1  free  transition at x/c =  0.9397   72
 Side 2  free  transition at x/c =  0.0581   22

  44   rms: 0.6545E+00   max: -.5758E+01   T at   72  1   RLX: 0.087
       a = -4.000      CL =  0.0342
      Cm = -0.0999     CD =  0.10295   =>   CDf =  0.00374    CDp =  0.09921

 Side 1  free  transition at x/c =  0.9566   74
 Side 2  free  transition at x/c =  0.0582   22

  45   rms: 0.3686E+00   max: -.1639E+01   D at  102  2   RLX: 0.305
       a = -4.000      CL =  0.0723
      Cm = -0.1202     CD =  0.07493   =>   CDf =  0.00381    CDp =  0.07112

 Side 1  free  transition at x/c =  0.9508   73
 Side 2  free  transition at x/c =  0.0587   22

  46   rms: 0.2515E+01   max: -.2944E+02   T at   73  1   RLX: 0.017
       a = -4.000      CL =  0.1210
      Cm = -0.1357     CD =  0.08078   =>   CDf =  0.00377    CDp =  0.07701

 Side 1  free  transition at x/c =  0.9695   75
 Side 2  free  transition at x/c =  0.0587   22

  47   rms: 0.4271E+00   max: -.1998E+01   D at  100  2   RLX: 0.250
       a = -4.000      CL =  0.1569
      Cm = -0.1529     CD =  0.06019   =>   CDf =  0.00385    CDp =  0.05634

 Side 1  free  transition at x/c =  0.9632   74
 Side 2  free  transition at x/c =  0.0589   22

  48   rms: 0.4291E+01   max: -.4314E+02   T at   74  1   RLX: 0.012
       a = -4.000      CL =  0.2131
      Cm = -0.1706     CD =  0.06128   =>   CDf =  0.00384    CDp =  0.05744

 MRCHDU: Convergence failed at  76  side 1    Res =  0.3157E+01
 MRCHDU: Convergence failed at  77  side 1    Res =  0.7831E+01
 MRCHDU: Convergence failed at  78  side 1    Res =  0.2411E+02
 TRCHEK2: N2 convergence failed.
 x:  0.11806  0.13317  0.13317  N:  8.848  9.000  9.117  Nx:  17.572   dN: 0.117E+00
 TRCHEK2: N2 convergence failed.
 x:  0.11806  0.12883  0.13317  N:  8.848  9.000  9.046  Nx:  23.271   dN:-0.221E+00
 TRCHEK2: N2 convergence failed.
 x:  0.11806  0.13241  0.13317  N:  8.848  9.000  9.016  Nx:  16.253   dN: 0.192E+00
 TRCHEK2: N2 convergence failed.
 x:  0.11806  0.12880  0.13317  N:  8.848  9.000  9.047  Nx:  24.725   dN:-0.194E+00
 TRCHEK2: N2 convergence failed.
 x:  0.11806  0.13239  0.13317  N:  8.848  9.000  9.017  Nx:  16.261   dN: 0.149E+00
 TRCHEK2: N2 convergence failed.
 x:  0.11806  0.12972  0.13317  N:  8.848  9.000  9.032  Nx:  22.031   dN:-0.115E+00
 TRCHEK2: N2 convergence failed.
 x:  0.11806  0.13091  0.13317  N:  8.848  9.000  9.016  Nx:  17.455   dN:-0.602E-01
 TRCHEK2: N2 convergence failed.
 x:  0.11806  0.13097  0.13317  N:  8.848  9.000  9.036  Nx:  16.470   dN: 0.193E+02
 TRCHEK2: N2 convergence failed.
 x:  0.11806  0.13094  0.13317  N:  8.848  9.000  9.016  Nx:  16.520   dN:-0.473E+00
 TRCHEK2: N2 convergence failed.
 x:  0.11806  0.13098  0.13317  N:  8.848  9.000  9.015  Nx:  16.313   dN:-0.214E+00
 TRCHEK2: N2 convergence failed.
 x:  0.11806  0.13096  0.13317  N:  8.848  9.000  9.036  Nx:  16.380   dN: 0.146E+00
 TRCHEK2: N2 convergence failed.
 x:  0.11806  0.13093  0.13317  N:  8.848  9.000  9.037  Nx:  16.443   dN: 0.108E+01
 TRCHEK2: N2 convergence failed.
 x:  0.11806  0.13094  0.13317  N:  8.848  9.000  9.037  Nx:  16.429   dN: 0.405E+00
 TRCHEK2: N2 convergence failed.
 x:  0.11806  0.13092  0.13317  N:  8.848  9.000  9.037  Nx:  16.453   dN: 0.105E+02
 TRCHEK2: N2 convergence failed.
 x:  0.11806  0.13090  0.13317  N:  8.848  9.000  9.016  Nx:  16.639   dN:-0.710E-01
 TRCHEK2: N2 convergence failed.
 x:  0.11806  0.13094  0.13317  N:  8.848  9.000  9.016  Nx:  16.549   dN:-0.153E+00
 TRCHEK2: N2 convergence failed.
 x:  0.11806  0.13093  0.13317  N:  8.848  9.000  9.016  Nx:  16.697   dN:-0.549E-01
 TRCHEK2: N2 convergence failed.
 x:  0.11806  0.13094  0.13317  N:  8.848  9.000  9.016  Nx:  16.650   dN:-0.792E-01
 TRCHEK2: N2 convergence failed.
 x:  0.11806  0.13092  0.13317  N:  8.848  9.000  9.016  Nx:  16.864   dN:-0.362E-01
 TRCHEK2: N2 convergence failed.
 x:  0.11806  0.13093  0.13317  N:  8.848  9.000  9.016  Nx:  16.803   dN:-0.491E-01
 TRCHEK2: N2 convergence failed.
 x:  0.11806  0.13091  0.13317  N:  8.848  9.000  9.016  Nx:  17.096   dN:-0.264E-01
 TRCHEK2: N2 convergence failed.
 x:  0.11806  0.13092  0.13317  N:  8.848  9.000  9.016  Nx:  16.970   dN:-0.363E-01
 MRCHDU: Convergence failed at  26  side 2    Res =  0.1265E+02
 MRCHDU: Convergence failed at  27  side 2    Res =  0.3081E+02
 MRCHDU: Convergence failed at  28  side 2    Res =  0.1014E+03
 MRCHDU: Convergence failed at  29  side 2    Res =  0.3661E+02
 MRCHDU: Convergence failed at  30  side 2    Res =  0.1887E+02
 MRCHDU: Convergence failed at  31  side 2    Res =  0.1162E+03
 MRCHDU: Convergence failed at  32  side 2    Res =  0.7093E+02
 MRCHDU: Convergence failed at  33  side 2    Res =  0.6538E+02
 MRCHDU: Convergence failed at  34  side 2    Res =  0.5448E+02
 MRCHDU: Convergence failed at  35  side 2    Res =  0.2840E+03
 MRCHDU: Convergence failed at  36  side 2    Res =  0.4716E+02
 MRCHDU: Convergence failed at  37  side 2    Res =  0.6132E+02
 MRCHDU: Convergence failed at  38  side 2    Res =  0.1173E+03
 MRCHDU: Convergence failed at  39  side 2    Res =  0.6179E+04
 MRCHDU: Convergence failed at  40  side 2    Res =  0.1386E+03
 MRCHDU: Convergence failed at  41  side 2    Res =  0.6368E+02
 MRCHDU: Convergence failed at  42  side 2    Res =  0.4169E+02
 MRCHDU: Convergence failed at  43  side 2    Res =  0.4857E+02
 MRCHDU: Convergence failed at  44  side 2    Res =  0.3927E+02
 MRCHDU: Convergence failed at  45  side 2    Res =  0.4533E+02
 MRCHDU: Convergence failed at  46  side 2    Res =  0.4310E+02
 MRCHDU: Convergence failed at  47  side 2    Res =  0.5048E+02
 MRCHDU: Convergence failed at  48  side 2    Res =  0.6124E+02
 MRCHDU: Convergence failed at  49  side 2    Res =  0.9788E+02
 MRCHDU: Convergence failed at  50  side 2    Res =  0.6782E+02
 MRCHDU: Convergence failed at  51  side 2    Res =  0.8892E+02
 MRCHDU: Convergence failed at  52  side 2    Res =  0.1355E+03
 MRCHDU: Convergence failed at  53  side 2    Res =  0.4181E+04
 MRCHDU: Convergence failed at  54  side 2    Res =  0.5278E+03
 MRCHDU: Convergence failed at  55  side 2    Res =  0.1408E+03
 MRCHDU: Convergence failed at  56  side 2    Res =  0.2715E+03
 MRCHDU: Convergence failed at  57  side 2    Res =  0.1028E+05
 MRCHDU: Convergence failed at  58  side 2    Res =  0.2936E+03
 MRCHDU: Convergence failed at  59  side 2    Res =  0.1138E+03
 MRCHDU: Convergence failed at  60  side 2    Res =  0.9017E+02
 MRCHDU: Convergence failed at  61  side 2    Res =  0.2992E+03
 MRCHDU: Convergence failed at  62  side 2    Res =  0.1379E+03
 MRCHDU: Convergence failed at  63  side 2    Res =  0.8832E+02
 MRCHDU: Convergence failed at  64  side 2    Res =  0.1407E+03
 MRCHDU: Convergence failed at  65  side 2    Res =  0.6413E+02
 MRCHDU: Convergence failed at  66  side 2    Res =  0.5575E+02
 MRCHDU: Convergence failed at  67  side 2    Res =  0.1121E+03
 MRCHDU: Convergence failed at  68  side 2    Res =  0.3519E+03
 MRCHDU: Convergence failed at  69  side 2    Res =  0.6507E+02
 MRCHDU: Convergence failed at  70  side 2    Res =  0.7799E+02
 MRCHDU: Convergence failed at  71  side 2    Res =  0.9704E+02
 MRCHDU: Convergence failed at  72  side 2    Res =  0.6470E+03
 MRCHDU: Convergence failed at  73  side 2    Res =  0.1001E+03
 MRCHDU: Convergence failed at  74  side 2    Res =  0.1497E+03
 MRCHDU: Convergence failed at  75  side 2    Res =  0.1485E+03
 MRCHDU: Convergence failed at  76  side 2    Res =  0.1623E+04
 MRCHDU: Convergence failed at  77  side 2    Res =  0.1302E+03
 MRCHDU: Convergence failed at  78  side 2    Res =  0.9667E+02
 MRCHDU: Convergence failed at  79  side 2    Res =  0.1805E+03
 MRCHDU: Convergence failed at  80  side 2    Res =  0.1021E+03
 MRCHDU: Convergence failed at  81  side 2    Res =  0.7478E+02
 MRCHDU: Convergence failed at  82  side 2    Res =  0.6774E+02
 MRCHDU: Convergence failed at  83  side 2    Res =  0.1421E+03
 MRCHDU: Convergence failed at  84  side 2    Res =  0.1502E+03
 Side 1  free  transition at x/c =  0.9825   76
 Side 2  free  transition at x/c =  0.1072   26

  49   rms: 0.3199E+01   max: 0.2352E+02   D at   86  2   RLX: 0.064
       a = -4.000      CL = -0.6566
      Cm =  0.1234     CD =  0.00635   =>   CDf =  0.00344    CDp =  0.00291

 Side 1  free  transition at x/c =  0.9802   76
 Side 2  free  transition at x/c =  0.1064   26
 idif Ue xi dudx           1  0.14556681      2.80010700E-03   51.986160    
 Uenew xinew           2  3.20396968E-03  6.16312027E-05

  50   rms: 0.1460E+01   max: 0.2291E+02   T at   26  2   RLX: 0.065
       a = -4.000      CL = -0.3368
      Cm =  0.0015     CD =  0.07155   =>   CDf =  0.00382    CDp =  0.06773

 Side 1  free  transition at x/c =  0.9795   75
 Side 2  free  transition at x/c =  0.1005   26

  51   rms: 0.1579E+01   max: 0.1590E+02   T at   26  2   RLX: 0.048
       a = -4.000      CL = -0.4080
      Cm =  0.0247     CD =  0.08354   =>   CDf =  0.00381    CDp =  0.07973

 Side 1  free  transition at x/c =  0.9810   76
 Side 2  free  transition at x/c =  0.1611   29

  52   rms: 0.1647E+02   max: -.2035E+03   T at    2  1   RLX: 0.002
       a = -4.000      CL = -0.6049
      Cm =  0.0826     CD =  0.09269   =>   CDf =  0.00373    CDp =  0.08897

 Side 1  free  transition at x/c =  0.9814   76
 Side 2  free  transition at x/c =  0.1604   29

  53   rms: 0.4266E+01   max: -.8115E+02   T at   30  2   RLX: 0.006
       a = -4.000      CL = -0.6018
      Cm =  0.0837     CD =  0.09485   =>   CDf =  0.00373    CDp =  0.09112

 Side 1  free  transition at x/c =  0.9817   76
 Side 2  free  transition at x/c =  0.1600   29

  54   rms: 0.8530E+01   max: -.1678E+03   T at   30  2   RLX: 0.003
       a = -4.000      CL = -0.6063
      Cm =  0.0842     CD =  0.09695   =>   CDf =  0.00374    CDp =  0.09321

 Side 1  free  transition at x/c =  0.9816   76
 Side 2  free  transition at x/c =  0.1581   29

  55   rms: 0.4623E+01   max: -.8368E+02   T at   29  2   RLX: 0.006
       a = -4.000      CL = -0.6015
      Cm =  0.0883     CD =  0.10255   =>   CDf =  0.00374    CDp =  0.09882

 Side 1  free  transition at x/c =  0.9820   76
 Side 2  free  transition at x/c =  0.1652   30

  56   rms: 0.1277E+01   max: -.1076E+02   C at   30  2   RLX: 0.046
       a = -4.000      CL = -0.5664
      Cm =  0.0780     CD =  0.10320   =>   CDf =  0.00375    CDp =  0.09945

 TRCHEK2: N2 convergence failed.
 x:  0.17979  0.18141  0.19588  N:  8.005  9.000 16.900  Nx: 139.029   dN:-0.625E+01
 TRCHEK2: N2 convergence failed.
 x:  0.17979  0.18154  0.19588  N:  8.005  9.000 16.143  Nx: 153.045   dN:-0.526E+01
 TRCHEK2: N2 convergence failed.
 x:  0.17979  0.18135  0.19588  N:  8.005  9.000 17.251  Nx: 133.489   dN:-0.671E+01
 TRCHEK2: N2 convergence failed.
 x:  0.17979  0.18192  0.19588  N:  8.005  9.000 14.510  Nx: 193.169   dN:-0.309E+01
 TRCHEK2: N2 convergence failed.
 x:  0.17979  0.18275  0.19588  N:  8.005  9.000 12.955  Nx: 282.487   dN:-0.462E+00
 TRCHEK2: N2 convergence failed.
 x:  0.17979  0.18297  0.19588  N:  8.005  9.000 13.036  Nx: 312.767   dN: 0.398E-03
 TRCHEK2: N2 convergence failed.
 x:  0.17979  0.18143  0.19588  N:  8.005  9.000 16.732  Nx: 142.053   dN:-0.603E+01
 TRCHEK2: N2 convergence failed.
 x:  0.17979  0.18203  0.19588  N:  8.005  9.000 14.146  Nx: 204.796   dN:-0.261E+01
 TRCHEK2: N2 convergence failed.
 x:  0.17979  0.18287  0.19588  N:  8.005  9.000 12.980  Nx: 296.392   dN:-0.215E+00
 TRCHEK2: N2 convergence failed.
 x:  0.17979  0.18297  0.19588  N:  8.005  9.000 13.040  Nx: 313.005   dN: 0.989E-04
 MRCHDU: Convergence failed at  30  side 2    Res =  0.5196E+00
 Side 1  free  transition at x/c =  0.9825   76
 Side 2  free  transition at x/c =  0.2490   35

  57   rms: 0.2175E+01   max: 0.4673E+02   T at   35  2   RLX: 0.032
       a = -4.000      CL = -0.4925
      Cm =  0.0360     CD =  0.07975   =>   CDf =  0.00367    CDp =  0.07608

 Side 1  free  transition at x/c =  0.9799   76
 Side 2  free  transition at x/c =  0.1526   29
 idif Ue xi dudx           1  0.15900095      3.07810307E-03   51.655499    
 Uenew xinew           2  1.75436158E-02  3.39627266E-04

  58   rms: 0.1508E+01   max: 0.3241E+02   T at   29  2   RLX: 0.046
       a = -4.000      CL = -0.5326
      Cm =  0.0523     CD =  0.08627   =>   CDf =  0.00372    CDp =  0.08255

 Side 1  free  transition at x/c =  0.9793   75
 Side 2  free  transition at x/c =  0.1190   28

  59   rms: 0.1342E+01   max: 0.2271E+02   T at   28  2   RLX: 0.066
       a = -4.000      CL = -0.5623
      Cm =  0.0572     CD =  0.08792   =>   CDf =  0.00372    CDp =  0.08419

 Side 1  free  transition at x/c =  0.9787   75
 Side 2  free  transition at x/c =  0.0966   26

  60   rms: 0.6500E+00   max: 0.9155E+01   T at   26  2   RLX: 0.132
       a = -4.000      CL = -0.5501
      Cm =  0.0581     CD =  0.09068   =>   CDf =  0.00373    CDp =  0.08695

 Side 1  free  transition at x/c =  0.9789   75
 Side 2  free  transition at x/c =  0.0784   25

  61   rms: 0.4955E+00   max: 0.1695E+01   T at   25  2   RLX: 0.322
       a = -4.000      CL = -0.3662
      Cm =  0.0160     CD =  0.08621   =>   CDf =  0.00378    CDp =  0.08243

 Side 1  free  transition at x/c =  0.9760   76
 Side 2  free  transition at x/c =  0.0723   24
 idif Ue xi dudx           1  0.14861520      2.92897224E-03   50.739708    
 Uenew xinew           2  9.66573413E-03  1.90496445E-04

  62   rms: 0.3309E+01   max: 0.5153E+02   D at    2  1   RLX: 0.022
       a = -4.000      CL = -0.3749
      Cm =  0.0183     CD =  0.13054   =>   CDf =  0.00384    CDp =  0.12669

 Side 1  free  transition at x/c =  0.9761   75
 Side 2  free  transition at x/c =  0.0720   24

  63   rms: 0.1719E+01   max: -.9334E+01   T at   27  2   RLX: 0.054
       a = -4.000      CL = -0.3683
      Cm =  0.0241     CD =  0.13602   =>   CDf =  0.00385    CDp =  0.13217

 Side 1  free  transition at x/c =  0.9775   76
 Side 2  free  transition at x/c =  0.0713   23

  64   rms: 0.6946E+00   max: -.6644E+01   T at   24  2   RLX: 0.075
       a = -4.000      CL = -0.3521
      Cm =  0.0210     CD =  0.13551   =>   CDf =  0.00386    CDp =  0.13165

 Side 1  free  transition at x/c =  0.9780   76
 Side 2  free  transition at x/c =  0.0694   23

  65   rms: 0.4097E+00   max: 0.1632E+01   T at   23  2   RLX: 0.405
       a = -4.000      CL = -0.2027
      Cm = -0.0163     CD =  0.09386   =>   CDf =  0.00386    CDp =  0.09000

 MRCHDU: Convergence failed at  98  side 2    Res =  0.2838E+01
 MRCHDU: Convergence failed at  99  side 2    Res =  0.1201E+01
 MRCHDU: Convergence failed at 100  side 2    Res =  0.1200E+01
 MRCHDU: Convergence failed at 101  side 2    Res =  0.1628E+01
 MRCHDU: Convergence failed at 102  side 2    Res =  0.2145E+01
 Side 1  free  transition at x/c =  0.9791   76
 Side 2  free  transition at x/c =  0.0644   23

  66   rms: 0.4387E+00   max: -.2778E+01   T at   23  2   RLX: 0.180
       a = -4.000      CL = -0.1069
      Cm = -0.0397     CD =  0.11464   =>   CDf =  0.00387    CDp =  0.11077

 Side 1  free  transition at x/c =  0.9744   75
 Side 2  free  transition at x/c =  0.0670   23

  67   rms: 0.3996E+00   max: 0.2913E+01   T at   75  1   RLX: 0.255
       a = -4.000      CL = -0.0656
      Cm = -0.0511     CD =  0.09031   =>   CDf =  0.00388    CDp =  0.08643

 Side 1  free  transition at x/c =  0.9580   74
 Side 2  free  transition at x/c =  0.0658   23

  68   rms: 0.3480E+00   max: 0.1501E+01   T at   74  1   RLX: 0.376
       a = -4.000      CL =  0.0304
      Cm = -0.0752     CD =  0.09253   =>   CDf =  0.00382    CDp =  0.08870

 Side 1  free  transition at x/c =  0.9433   73
 Side 2  free  transition at x/c =  0.0678   23

  69   rms: 0.2979E+00   max: -.8951E+00   D at  104  2   RLX: 0.559
       a = -4.000      CL =  0.1154
      Cm = -0.1007     CD =  0.07043   =>   CDf =  0.00379    CDp =  0.06664

 Side 1  free  transition at x/c =  0.9312   72
 Side 2  free  transition at x/c =  0.0696   23

  70   rms: 0.2718E+00   max: 0.1214E+01   T at   72  1   RLX: 0.532
       a = -4.000      CL =  0.1306
      Cm = -0.1157     CD =  0.07340   =>   CDf =  0.00375    CDp =  0.06965

 Side 1  free  transition at x/c =  0.9143   70
 Side 2  free  transition at x/c =  0.0711   23

  71   rms: 0.5322E+00   max: -.2550E+01   T at   70  1   RLX: 0.196
       a = -4.000      CL =  0.1837
      Cm = -0.1408     CD =  0.08100   =>   CDf =  0.00365    CDp =  0.07735

 Side 1  free  transition at x/c =  0.9306   72
 Side 2  free  transition at x/c =  0.0710   23

  72   rms: 0.3254E+00   max: -.1314E+01   D at  100  2   RLX: 0.381
       a = -4.000      CL =  0.1942
      Cm = -0.1586     CD =  0.05691   =>   CDf =  0.00370    CDp =  0.05321

 Side 1  free  transition at x/c =  0.9237   71
 Side 2  free  transition at x/c =  0.0717   23

  73   rms: 0.7631E+01   max: -.4756E+02   T at   71  1   RLX: 0.011
       a = -4.000      CL =  0.2558
      Cm = -0.1838     CD =  0.05644   =>   CDf =  0.00367    CDp =  0.05277

 Side 1  free  transition at x/c =  0.9434   73
 Side 2  free  transition at x/c =  0.0716   23

  74   rms: 0.6354E+00   max: -.2279E+01   D at   86  2   RLX: 0.219
       a = -4.000      CL =  0.2863
      Cm = -0.2084     CD =  0.03969   =>   CDf =  0.00385    CDp =  0.03584

 Side 1  free  transition at x/c =  0.9367   72
 Side 2  free  transition at x/c =  0.0718   23
 idif Ue xi dudx           1  0.14814037      3.01980972E-03   49.056194    
 Uenew xinew           2  1.38011714E-02  2.81333923E-04

  75   rms: 0.1648E+01   max: 0.1113E+02   T at   72  1   RLX: 0.105
       a = -4.000      CL =  0.1720
      Cm = -0.1728     CD =  0.05778   =>   CDf =  0.00410    CDp =  0.05368

 Side 1  free  transition at x/c =  0.9037   69
 Side 2  free  transition at x/c =  0.0705   24

  76   rms: 0.1668E+00   max: 0.1399E+01   T at   69  1
       a = -4.000      CL =  0.1129
      Cm = -0.1382     CD =  0.05190   =>   CDf =  0.00410    CDp =  0.04781

 Side 1  free  transition at x/c =  0.8738   67
 Side 2  free  transition at x/c =  0.0718   24

  77   rms: 0.6280E+01   max: 0.2554E+02   T at   35  2   RLX: 0.024
       a = -4.000      CL =  0.1619
      Cm = -0.1582     CD =  0.05558   =>   CDf =  0.00397    CDp =  0.05161

 Side 1  free  transition at x/c =  0.8732   67
 Side 2  free  transition at x/c =  0.0682   24

  78   rms: 0.7400E+00   max: 0.2505E+01   D at   29  2   RLX: 0.599
       a = -4.000      CL =  0.1300
      Cm = -0.1430     CD =  0.04859   =>   CDf =  0.00473    CDp =  0.04386

 Side 1  free  transition at x/c =  0.8712   67
 Side 2  free  transition at x/c =  0.0695   23
 idif Ue xi dudx           1  0.14750466      2.98774242E-03   49.369938    
 Uenew xinew           2  1.23062776E-02  2.49266624E-04

  79   rms: 0.2530E+00   max: 0.1116E+01   D at   36  2   RLX: 0.995
       a = -4.000      CL =  0.1324
      Cm = -0.1489     CD =  0.04626   =>   CDf =  0.00531    CDp =  0.04094

 Side 1  free  transition at x/c =  0.8657   66
 Side 2  free  transition at x/c =  0.0753   25

  80   rms: 0.2139E+00   max: 0.1277E+01   D at   34  2
       a = -4.000      CL =  0.1295
      Cm = -0.1483     CD =  0.04481   =>   CDf =  0.00485    CDp =  0.03996

 MRCHDU: Convergence failed at  34  side 2    Res =  0.3456E+01
 MRCHDU: Convergence failed at  35  side 2    Res =  0.1015E+01
 Side 1  free  transition at x/c =  0.8682   66
 Side 2  free  transition at x/c =  0.0734   25

  81   rms: 0.1234E+00   max: -.7055E+00   T at   25  2   RLX: 0.709
       a = -4.000      CL =  0.1503
      Cm = -0.1517     CD =  0.04407   =>   CDf =  0.00378    CDp =  0.04029

 Side 1  free  transition at x/c =  0.8821   68
 Side 2  free  transition at x/c =  0.0743   24
 idif Ue xi dudx           1  0.14164960      2.86781788E-03   49.392818    
 Uenew xinew           2  6.38856972E-03  1.29342079E-04

  82   rms: 0.1402E+00   max: -.4927E+00   D at   75  2
       a = -4.000      CL =  0.1305
      Cm = -0.1505     CD =  0.04578   =>   CDf =  0.00372    CDp =  0.04207

 Side 1  free  transition at x/c =  0.8702   66
 Side 2  free  transition at x/c =  0.0730   25

  83   rms: 0.6302E-01   max: -.2489E+00   D at   73  2
       a = -4.000      CL =  0.1219
      Cm = -0.1449     CD =  0.04603   =>   CDf =  0.00393    CDp =  0.04210

 Side 1  free  transition at x/c =  0.8671   66
 Side 2  free  transition at x/c =  0.0735   25

  84   rms: 0.3088E-01   max: -.1941E+00   T at   25  2
       a = -4.000      CL =  0.1327
      Cm = -0.1461     CD =  0.04549   =>   CDf =  0.00399    CDp =  0.04150

 Side 1  free  transition at x/c =  0.8719   67
 Side 2  free  transition at x/c =  0.0740   24
 idif Ue xi dudx           1  0.14231232      2.86400318E-03   49.689999    
 Uenew xinew           2  6.23745564E-03  1.25527382E-04

  85   rms: 0.4881E-01   max: 0.6012E+00   D at    2  1
       a = -4.000      CL =  0.1256
      Cm = -0.1451     CD =  0.04574   =>   CDf =  0.00398    CDp =  0.04177

 Side 1  free  transition at x/c =  0.8691   66
 Side 2  free  transition at x/c =  0.0737   25

  86   rms: 0.1419E+00   max: 0.1631E+01   D at    2  2   RLX: 0.617
       a = -4.000      CL =  0.0971
      Cm = -0.1414     CD =  0.04699   =>   CDf =  0.00403    CDp =  0.04295

 Side 1  free  transition at x/c =  0.8582   66
 Side 2  free  transition at x/c =  0.0716   24

  87   rms: 0.3180E+00   max: -.1078E+01   T at   31  2   RLX: 0.464
       a = -4.000      CL =  0.0258
      Cm = -0.1126     CD =  0.06071   =>   CDf =  0.00382    CDp =  0.05689

 Side 1  free  transition at x/c =  0.8599   66
 Side 2  free  transition at x/c =  0.0606   24

  88   rms: 0.1393E+00   max: -.7107E+00   D at   24  2   RLX: 0.704
       a = -4.000      CL =  0.0237
      Cm = -0.1153     CD =  0.05956   =>   CDf =  0.00341    CDp =  0.05615

 Side 1  free  transition at x/c =  0.8621   66
 Side 2  free  transition at x/c =  0.0608   24

  89   rms: 0.8343E-01   max: -.7053E+00   T at   24  2   RLX: 0.709
       a = -4.000      CL =  0.0586
      Cm = -0.1211     CD =  0.05502   =>   CDf =  0.00360    CDp =  0.05142

 Side 1  free  transition at x/c =  0.8648   67
 Side 2  free  transition at x/c =  0.0628   23

  90   rms: 0.9208E-01   max: -.5756E+00   T at    2  1   RLX: 0.869
       a = -4.000      CL =  0.0745
      Cm = -0.1262     CD =  0.05325   =>   CDf =  0.00352    CDp =  0.04972

 Side 1  free  transition at x/c =  0.8677   67
 Side 2  free  transition at x/c =  0.0655   23

  91   rms: 0.7835E-01   max: -.8140E+00   T at   23  2   RLX: 0.614
       a = -4.000      CL =  0.1033
      Cm = -0.1337     CD =  0.05139   =>   CDf =  0.00363    CDp =  0.04776

 Side 1  free  transition at x/c =  0.8718   67
 Side 2  free  transition at x/c =  0.0698   23

  92   rms: 0.3344E+00   max: 0.2821E+01   T at   23  2   RLX: 0.235
       a = -4.000      CL =  0.0603
      Cm = -0.1203     CD =  0.05812   =>   CDf =  0.00365    CDp =  0.05447

 Side 1  free  transition at x/c =  0.8714   67
 Side 2  free  transition at x/c =  0.0639   23

  93   rms: 0.1225E+00   max: -.5171E+00   D at   24  2   RLX: 0.967
       a = -4.000      CL =  0.0758
      Cm = -0.1224     CD =  0.05364   =>   CDf =  0.00348    CDp =  0.05016

 Side 1  free  transition at x/c =  0.8715   67
 Side 2  free  transition at x/c =  0.0660   23

  94   rms: 0.6162E-01   max: -.4743E+00   T at   23  2
       a = -4.000      CL =  0.1031
      Cm = -0.1341     CD =  0.05000   =>   CDf =  0.00373    CDp =  0.04627

 Side 1  free  transition at x/c =  0.8693   67
 Side 2  free  transition at x/c =  0.0714   23

  95   rms: 0.1151E+00   max: -.4057E+00   D at   24  2
       a = -4.000      CL =  0.0964
      Cm = -0.1331     CD =  0.05025   =>   CDf =  0.00363    CDp =  0.04662

 Side 1  free  transition at x/c =  0.8665   67
 Side 2  free  transition at x/c =  0.0707   23

  96   rms: 0.6010E-01   max: 0.4064E+00   T at   23  2
       a = -4.000      CL =  0.0945
      Cm = -0.1324     CD =  0.05021   =>   CDf =  0.00380    CDp =  0.04641

 Side 1  free  transition at x/c =  0.8695   67
 Side 2  free  transition at x/c =  0.0687   23

  97   rms: 0.2153E+00   max: -.1831E+01   T at   23  2   RLX: 0.273
       a = -4.000      CL =  0.0926
      Cm = -0.1345     CD =  0.05408   =>   CDf =  0.00360    CDp =  0.05048

 Side 1  free  transition at x/c =  0.8694   67
 Side 2  free  transition at x/c =  0.0707   23

  98   rms: 0.3015E+00   max: -.1633E+01   T at   24  2   RLX: 0.306
       a = -4.000      CL =  0.0294
      Cm = -0.1143     CD =  0.06152   =>   CDf =  0.00362    CDp =  0.05790

 Side 1  free  transition at x/c =  0.8663   67
 Side 2  free  transition at x/c =  0.0616   23
 idif Ue xi dudx           1  0.14315516      2.96235085E-03   48.324848    
 Uenew xinew           2  1.08187273E-02  2.23875046E-04

  99   rms: 0.1365E+00   max: -.6058E+00   D at   23  2   RLX: 0.825
       a = -4.000      CL =  0.0198
      Cm = -0.1108     CD =  0.06030   =>   CDf =  0.00344    CDp =  0.05686

 Side 1  free  transition at x/c =  0.8633   66
 Side 2  free  transition at x/c =  0.0602   24

 100   rms: 0.1170E+00   max: -.8750E+00   T at   24  2   RLX: 0.571
       a = -4.000      CL =  0.0513
      Cm = -0.1161     CD =  0.05726   =>   CDf =  0.00357    CDp =  0.05369

 Side 1  free  transition at x/c =  0.8653   67
 Side 2  free  transition at x/c =  0.0616   23

 101   rms: 0.1049E+00   max: -.4905E+00   T at   23  2
       a = -4.000      CL =  0.0679
      Cm = -0.1227     CD =  0.05315   =>   CDf =  0.00349    CDp =  0.04967

 Side 1  free  transition at x/c =  0.8678   67
 Side 2  free  transition at x/c =  0.0643   23

 102   rms: 0.8008E-01   max: -.7671E+00   T at   23  2   RLX: 0.652
       a = -4.000      CL =  0.0964
      Cm = -0.1305     CD =  0.05242   =>   CDf =  0.00359    CDp =  0.04883

 Side 1  free  transition at x/c =  0.8718   67
 Side 2  free  transition at x/c =  0.0685   23

 103   rms: 0.1328E+00   max: -.9538E+00   T at   23  2   RLX: 0.524
       a = -4.000      CL =  0.1096
      Cm = -0.1366     CD =  0.05230   =>   CDf =  0.00363    CDp =  0.04867

 Side 1  free  transition at x/c =  0.8707   67
 Side 2  free  transition at x/c =  0.0684   23

 104   rms: 0.2844E-01   max: -.5038E+00   D at   23  2   RLX: 0.992
       a = -4.000      CL =  0.1079
      Cm = -0.1363     CD =  0.05067   =>   CDf =  0.00380    CDp =  0.04687

 Side 1  free  transition at x/c =  0.8681   67
 Side 2  free  transition at x/c =  0.0700   23

 105   rms: 0.3218E+00   max: -.2046E+01   T at   23  2   RLX: 0.244
       a = -4.000      CL =  0.1413
      Cm = -0.1464     CD =  0.04846   =>   CDf =  0.00380    CDp =  0.04466

 Side 1  free  transition at x/c =  0.8713   67
 Side 2  free  transition at x/c =  0.0673   23

 106   rms: 0.2329E+00   max: 0.6985E+00   D at   38  2   RLX: 0.830
       a = -4.000      CL =  0.1148
      Cm = -0.1388     CD =  0.05068   =>   CDf =  0.00431    CDp =  0.04637

 Side 1  free  transition at x/c =  0.8685   67
 Side 2  free  transition at x/c =  0.0704   23
 idif Ue xi dudx           1  0.14475387      2.99990177E-03   48.252872    
 Uenew xinew           2  1.26145538E-02  2.61425972E-04

 107   rms: 0.1169E+00   max: 0.7336E+00   T at   23  2   RLX: 1.000
       a = -4.000      CL =  0.0430
      Cm = -0.1223     CD =  0.05580   =>   CDf =  0.00400    CDp =  0.05179

 MRCHDU: Convergence failed at  48  side 2    Res =  0.9225E+00
 MRCHDU: Convergence failed at  49  side 2    Res =  0.1295E+01
 MRCHDU: Convergence failed at  50  side 2    Res =  0.1887E+01
 MRCHDU: Convergence failed at  51  side 2    Res =  0.2903E+01
 MRCHDU: Convergence failed at  52  side 2    Res =  0.6207E+01
 MRCHDU: Convergence failed at  53  side 2    Res =  0.1064E+02
 MRCHDU: Convergence failed at  54  side 2    Res =  0.2299E+01
 MRCHDU: Convergence failed at  55  side 2    Res =  0.1660E+01
 MRCHDU: Convergence failed at  56  side 2    Res =  0.1597E+01
 MRCHDU: Convergence failed at  57  side 2    Res =  0.2893E+01
 MRCHDU: Convergence failed at  58  side 2    Res =  0.3436E+01
 MRCHDU: Convergence failed at  59  side 2    Res =  0.4034E+01
 MRCHDU: Convergence failed at  60  side 2    Res =  0.5009E+01
 MRCHDU: Convergence failed at  61  side 2    Res =  0.6456E+01
 MRCHDU: Convergence failed at  62  side 2    Res =  0.8876E+01
 MRCHDU: Convergence failed at  63  side 2    Res =  0.1343E+02
 MRCHDU: Convergence failed at  64  side 2    Res =  0.2538E+02
 MRCHDU: Convergence failed at  65  side 2    Res =  0.1961E+03
 MRCHDU: Convergence failed at  66  side 2    Res =  0.4021E+02
 MRCHDU: Convergence failed at  67  side 2    Res =  0.1883E+02
 MRCHDU: Convergence failed at  68  side 2    Res =  0.1132E+02
 MRCHDU: Convergence failed at  69  side 2    Res =  0.8738E+01
 MRCHDU: Convergence failed at  70  side 2    Res =  0.7195E+01
 MRCHDU: Convergence failed at  71  side 2    Res =  0.6177E+01
 MRCHDU: Convergence failed at  72  side 2    Res =  0.5443E+01
 MRCHDU: Convergence failed at  73  side 2    Res =  0.4881E+01
 MRCHDU: Convergence failed at  74  side 2    Res =  0.3338E+01
 MRCHDU: Convergence failed at  75  side 2    Res =  0.3133E+01
 MRCHDU: Convergence failed at  76  side 2    Res =  0.2962E+01
 MRCHDU: Convergence failed at  77  side 2    Res =  0.2795E+01
 MRCHDU: Convergence failed at  78  side 2    Res =  0.2614E+01
 MRCHDU: Convergence failed at  79  side 2    Res =  0.2483E+01
 MRCHDU: Convergence failed at  80  side 2    Res =  0.2313E+01
 MRCHDU: Convergence failed at  81  side 2    Res =  0.2204E+01
 MRCHDU: Convergence failed at  82  side 2    Res =  0.2470E+01
 MRCHDU: Convergence failed at  83  side 2    Res =  0.2897E+01
 MRCHDU: Convergence failed at  84  side 2    Res =  0.3428E+01
 MRCHDU: Convergence failed at  85  side 2    Res =  0.3364E+01
 Side 1  free  transition at x/c =  0.8575   66
 Side 2  free  transition at x/c =  0.0587   23

 108   rms: 0.2576E+00   max: -.1089E+01   T at   24  2   RLX: 0.459
       a = -4.000      CL = -0.1292
      Cm = -0.0583     CD =  0.06351   =>   CDf =  0.00368    CDp =  0.05983

 Side 1  free  transition at x/c =  0.8590   66
 Side 2  free  transition at x/c =  0.0570   23

 109   rms: 0.2705E+00   max: 0.2789E+01   T at   24  2   RLX: 0.235
       a = -4.000      CL = -0.0645
      Cm = -0.0775     CD =  0.05630   =>   CDf =  0.00401    CDp =  0.05229

 Side 1  free  transition at x/c =  0.8600   66
 Side 2  free  transition at x/c =  0.0554   23

 110   rms: 0.1328E+00   max: -.6268E+00   D at   23  2   RLX: 0.798
       a = -4.000      CL =  0.0697
      Cm = -0.1217     CD =  0.05318   =>   CDf =  0.00410    CDp =  0.04908

 Side 1  free  transition at x/c =  0.8637   67
 Side 2  free  transition at x/c =  0.0587   22
 idif Ue xi dudx           1  0.14873041      3.02636623E-03   49.144882    
 Uenew xinew           2  1.41483415E-02  2.87890434E-04

 111   rms: 0.3456E+00   max: 0.8273E+00   T at   45  2   RLX: 0.633
       a = -4.000      CL =  0.1610
      Cm = -0.1547     CD =  0.06031   =>   CDf =  0.00364    CDp =  0.05667

 Side 1  free  transition at x/c =  0.8663   66
 Side 2  free  transition at x/c =  0.0585   23

 112   rms: 0.4794E+00   max: 0.2202E+01   D at   26  2   RLX: 0.681
       a = -4.000      CL =  0.1899
      Cm = -0.1641     CD =  0.03050   =>   CDf =  0.00699    CDp =  0.02352

 Side 1  free  transition at x/c =  0.8733   67
 Side 2  free  transition at x/c =  0.0637   24

 113   rms: 0.4041E+00   max: 0.1900E+01   D at   25  2   RLX: 0.790
       a = -4.000      CL =  0.1931
      Cm = -0.1661     CD =  0.03049   =>   CDf =  0.00662    CDp =  0.02387

 MRCHDU: Convergence failed at  25  side 2    Res =  0.4151E+01
 MRCHDU: Convergence failed at  26  side 2    Res =  0.2655E+02
 MRCHDU: Convergence failed at  27  side 2    Res =  0.7221E+01
 MRCHDU: Convergence failed at  28  side 2    Res =  0.4626E+01
 MRCHDU: Convergence failed at  29  side 2    Res =  0.7457E+01
 MRCHDU: Convergence failed at  30  side 2    Res =  0.9889E+01
 MRCHDU: Convergence failed at  31  side 2    Res =  0.5584E+02
 MRCHDU: Convergence failed at  32  side 2    Res =  0.3256E+02
 MRCHDU: Convergence failed at  33  side 2    Res =  0.2480E+02
 MRCHDU: Convergence failed at  34  side 2    Res =  0.2092E+02
 MRCHDU: Convergence failed at  35  side 2    Res =  0.1769E+02
 MRCHDU: Convergence failed at  36  side 2    Res =  0.2333E+02
 MRCHDU: Convergence failed at  37  side 2    Res =  0.2085E+02
 MRCHDU: Convergence failed at  38  side 2    Res =  0.2264E+02
 MRCHDU: Convergence failed at  39  side 2    Res =  0.2935E+02
 MRCHDU: Convergence failed at  40  side 2    Res =  0.1294E+02
 MRCHDU: Convergence failed at  41  side 2    Res =  0.1698E+02
 MRCHDU: Convergence failed at  42  side 2    Res =  0.3433E+02
 MRCHDU: Convergence failed at  43  side 2    Res =  0.1471E+03
 MRCHDU: Convergence failed at  44  side 2    Res =  0.1749E+03
 MRCHDU: Convergence failed at  45  side 2    Res =  0.1996E+02
 MRCHDU: Convergence failed at  46  side 2    Res =  0.3236E+02
 MRCHDU: Convergence failed at  47  side 2    Res =  0.1660E+02
 MRCHDU: Convergence failed at  48  side 2    Res =  0.1925E+02
 MRCHDU: Convergence failed at  49  side 2    Res =  0.1931E+02
 MRCHDU: Convergence failed at  50  side 2    Res =  0.1581E+02
 MRCHDU: Convergence failed at  51  side 2    Res =  0.1562E+02
 MRCHDU: Convergence failed at  52  side 2    Res =  0.1550E+02
 MRCHDU: Convergence failed at  53  side 2    Res =  0.1930E+02
 MRCHDU: Convergence failed at  54  side 2    Res =  0.1940E+02
 MRCHDU: Convergence failed at  55  side 2    Res =  0.1670E+02
 MRCHDU: Convergence failed at  56  side 2    Res =  0.1712E+02
 MRCHDU: Convergence failed at  57  side 2    Res =  0.1751E+02
 MRCHDU: Convergence failed at  58  side 2    Res =  0.1864E+02
 MRCHDU: Convergence failed at  59  side 2    Res =  0.1998E+02
 MRCHDU: Convergence failed at  60  side 2    Res =  0.2117E+02
 MRCHDU: Convergence failed at  61  side 2    Res =  0.2388E+02
 MRCHDU: Convergence failed at  62  side 2    Res =  0.2732E+02
 MRCHDU: Convergence failed at  63  side 2    Res =  0.2609E+02
 MRCHDU: Convergence failed at  64  side 2    Res =  0.2965E+02
 MRCHDU: Convergence failed at  65  side 2    Res =  0.1960E+02
 MRCHDU: Convergence failed at  66  side 2    Res =  0.1956E+02
 MRCHDU: Convergence failed at  67  side 2    Res =  0.1949E+02
 MRCHDU: Convergence failed at  68  side 2    Res =  0.1938E+02
 MRCHDU: Convergence failed at  69  side 2    Res =  0.1925E+02
 MRCHDU: Convergence failed at  70  side 2    Res =  0.1909E+02
 MRCHDU: Convergence failed at  71  side 2    Res =  0.1769E+02
 MRCHDU: Convergence failed at  72  side 2    Res =  0.1754E+02
 MRCHDU: Convergence failed at  73  side 2    Res =  0.2053E+02
 MRCHDU: Convergence failed at  74  side 2    Res =  0.2029E+02
 MRCHDU: Convergence failed at  75  side 2    Res =  0.1994E+02
 MRCHDU: Convergence failed at  76  side 2    Res =  0.1955E+02
 MRCHDU: Convergence failed at  77  side 2    Res =  0.1897E+02
 MRCHDU: Convergence failed at  78  side 2    Res =  0.1765E+02
 MRCHDU: Convergence failed at  79  side 2    Res =  0.1559E+02
 MRCHDU: Convergence failed at  80  side 2    Res =  0.1729E+02
 MRCHDU: Convergence failed at  81  side 2    Res =  0.1869E+02
 MRCHDU: Convergence failed at  82  side 2    Res =  0.9382E+02
 MRCHDU: Convergence failed at  83  side 2    Res =  0.5111E+02
 MRCHDU: Convergence failed at  84  side 2    Res =  0.3987E+02
 MRCHDU: Convergence failed at  85  side 2    Res =  0.4089E+02
 Side 1  free  transition at x/c =  0.8747   67
 Side 2  free  transition at x/c =  0.0575   23

 114   rms: 0.6460E+00   max: 0.2714E+01   T at   23  2   RLX: 0.383
       a = -4.000      CL = -0.5164
      Cm =  0.0683     CD =  0.02269   =>   CDf =  0.00338    CDp =  0.01931

 Side 1  free  transition at x/c =  0.8792   67
 Side 2  free  transition at x/c =  0.0588   23

 115   rms: 0.1149E+01   max: -.8285E+01   T at   23  2   RLX: 0.060
       a = -4.000      CL = -0.2648
      Cm = -0.0056     CD =  0.05833   =>   CDf =  0.00389    CDp =  0.05445

 MRCHDU: Convergence failed at  47  side 2    Res =  0.7922E-01
 Side 1  free  transition at x/c =  0.8784   67
 Side 2  free  transition at x/c =  0.0560   23

 116   rms: 0.8067E+00   max: 0.4534E+01   D at   47  2   RLX: 0.219
       a = -4.000      CL = -0.1758
      Cm = -0.0631     CD =  0.04675   =>   CDf =  0.00412    CDp =  0.04262

 MRCHDU: Convergence failed at  76  side 2    Res =  0.5552E-01
 MRCHDU: Convergence failed at  77  side 2    Res =  0.8648E-04
 Side 1  free  transition at x/c =  0.8729   67
 Side 2  free  transition at x/c =  0.0550   23

 117   rms: 0.3788E+00   max: -.9213E+00   D at   85  2   RLX: 0.533
       a = -4.000      CL = -0.0697
      Cm = -0.1175     CD =  0.04444   =>   CDf =  0.00391    CDp =  0.04053

 MRCHDU: Convergence failed at  52  side 2    Res =  0.2456E+01
 MRCHDU: Convergence failed at  53  side 2    Res =  0.5125E+01
 MRCHDU: Convergence failed at  54  side 2    Res =  0.7341E+02
 MRCHDU: Convergence failed at  55  side 2    Res =  0.1079E+02
 MRCHDU: Convergence failed at  56  side 2    Res =  0.5980E+01
 MRCHDU: Convergence failed at  57  side 2    Res =  0.4599E+01
 MRCHDU: Convergence failed at  58  side 2    Res =  0.3997E+01
 MRCHDU: Convergence failed at  59  side 2    Res =  0.3723E+01
 MRCHDU: Convergence failed at  60  side 2    Res =  0.3608E+01
 MRCHDU: Convergence failed at  61  side 2    Res =  0.3606E+01
 MRCHDU: Convergence failed at  62  side 2    Res =  0.3676E+01
 MRCHDU: Convergence failed at  63  side 2    Res =  0.3812E+01
 MRCHDU: Convergence failed at  64  side 2    Res =  0.4029E+01
 MRCHDU: Convergence failed at  65  side 2    Res =  0.4345E+01
 MRCHDU: Convergence failed at  66  side 2    Res =  0.4864E+01
 MRCHDU: Convergence failed at  67  side 2    Res =  0.5497E+01
 MRCHDU: Convergence failed at  68  side 2    Res =  0.6436E+01
 MRCHDU: Convergence failed at  69  side 2    Res =  0.7897E+01
 MRCHDU: Convergence failed at  70  side 2    Res =  0.1104E+02
 MRCHDU: Convergence failed at  71  side 2    Res =  0.2047E+02
 MRCHDU: Convergence failed at  72  side 2    Res =  0.1228E+03
 MRCHDU: Convergence failed at  73  side 2    Res =  0.2368E+02
 MRCHDU: Convergence failed at  74  side 2    Res =  0.9597E+01
 MRCHDU: Convergence failed at  75  side 2    Res =  0.5469E+01
 Side 1  free  transition at x/c =  0.8700   66
 Side 2  free  transition at x/c =  0.0556   23

 118   rms: 0.2493E+00   max: -.5573E+00   U at   77  2   RLX: 0.673
       a = -4.000      CL =  0.0251
      Cm = -0.1193     CD =  0.04927   =>   CDf =  0.00386    CDp =  0.04542

 MRCHDU: Convergence failed at  48  side 2    Res =  0.3175E+01
 Side 1  free  transition at x/c =  0.8752   67
 Side 2  free  transition at x/c =  0.0585   23

 119   rms: 0.2523E+00   max: -.7309E+00   D at   85  2   RLX: 0.684
       a = -4.000      CL =  0.0990
      Cm = -0.1439     CD =  0.04905   =>   CDf =  0.00370    CDp =  0.04534

 Side 1  free  transition at x/c =  0.8720   66
 Side 2  free  transition at x/c =  0.0591   24

 120   rms: 0.4895E+00   max: -.1285E+01   D at   84  2   RLX: 0.389
       a = -4.000      CL =  0.1152
      Cm = -0.1530     CD =  0.02448   =>   CDf =  0.00593    CDp =  0.01855

 MRCHDU: Convergence failed at  25  side 2    Res =  0.6509E+01
 MRCHDU: Convergence failed at  26  side 2    Res =  0.1262E+02
 MRCHDU: Convergence failed at  27  side 2    Res =  0.4035E+02
 MRCHDU: Convergence failed at  28  side 2    Res =  0.4477E+02
 MRCHDU: Convergence failed at  29  side 2    Res =  0.1049E+03
 MRCHDU: Convergence failed at  30  side 2    Res =  0.8769E+02
 MRCHDU: Convergence failed at  31  side 2    Res =  0.3250E+02
 MRCHDU: Convergence failed at  32  side 2    Res =  0.3113E+02
 MRCHDU: Convergence failed at  33  side 2    Res =  0.3613E+02
 MRCHDU: Convergence failed at  34  side 2    Res =  0.4056E+02
 MRCHDU: Convergence failed at  35  side 2    Res =  0.4212E+02
 MRCHDU: Convergence failed at  36  side 2    Res =  0.1204E+03
 MRCHDU: Convergence failed at  37  side 2    Res =  0.2854E+03
 MRCHDU: Convergence failed at  38  side 2    Res =  0.3536E+02
 MRCHDU: Convergence failed at  39  side 2    Res =  0.3097E+02
 MRCHDU: Convergence failed at  40  side 2    Res =  0.4500E+03
 MRCHDU: Convergence failed at  41  side 2    Res =  0.9916E+02
 MRCHDU: Convergence failed at  42  side 2    Res =  0.5395E+02
 MRCHDU: Convergence failed at  43  side 2    Res =  0.5493E+02
 MRCHDU: Convergence failed at  44  side 2    Res =  0.5191E+02
 MRCHDU: Convergence failed at  45  side 2    Res =  0.5562E+02
 MRCHDU: Convergence failed at  46  side 2    Res =  0.2250E+02
 MRCHDU: Convergence failed at  47  side 2    Res =  0.8659E+02
 MRCHDU: Convergence failed at  48  side 2    Res =  0.5720E+02
 MRCHDU: Convergence failed at  49  side 2    Res =  0.5603E+02
 MRCHDU: Convergence failed at  50  side 2    Res =  0.6455E+02
 MRCHDU: Convergence failed at  51  side 2    Res =  0.5861E+03
 MRCHDU: Convergence failed at  52  side 2    Res =  0.4041E+02
 MRCHDU: Convergence failed at  53  side 2    Res =  0.4274E+02
 MRCHDU: Convergence failed at  54  side 2    Res =  0.8922E+02
 MRCHDU: Convergence failed at  55  side 2    Res =  0.1670E+03
 MRCHDU: Convergence failed at  56  side 2    Res =  0.3418E+02
 MRCHDU: Convergence failed at  57  side 2    Res =  0.2837E+02
 MRCHDU: Convergence failed at  58  side 2    Res =  0.2795E+02
 MRCHDU: Convergence failed at  59  side 2    Res =  0.2760E+02
 MRCHDU: Convergence failed at  60  side 2    Res =  0.2719E+02
 MRCHDU: Convergence failed at  61  side 2    Res =  0.2681E+02
 MRCHDU: Convergence failed at  62  side 2    Res =  0.2585E+02
 MRCHDU: Convergence failed at  63  side 2    Res =  0.2563E+02
 MRCHDU: Convergence failed at  64  side 2    Res =  0.2548E+02
 MRCHDU: Convergence failed at  65  side 2    Res =  0.2529E+02
 MRCHDU: Convergence failed at  66  side 2    Res =  0.2515E+02
 MRCHDU: Convergence failed at  67  side 2    Res =  0.2504E+02
 MRCHDU: Convergence failed at  68  side 2    Res =  0.2608E+02
 MRCHDU: Convergence failed at  69  side 2    Res =  0.2608E+02
 MRCHDU: Convergence failed at  70  side 2    Res =  0.2606E+02
 MRCHDU: Convergence failed at  71  side 2    Res =  0.2606E+02
 MRCHDU: Convergence failed at  72  side 2    Res =  0.2603E+02
 MRCHDU: Convergence failed at  73  side 2    Res =  0.2604E+02
 MRCHDU: Convergence failed at  74  side 2    Res =  0.2604E+02
 MRCHDU: Convergence failed at  75  side 2    Res =  0.2576E+02
 MRCHDU: Convergence failed at  76  side 2    Res =  0.4932E+02
 MRCHDU: Convergence failed at  77  side 2    Res =  0.5643E+02
 MRCHDU: Convergence failed at  78  side 2    Res =  0.2429E+02
 MRCHDU: Convergence failed at  79  side 2    Res =  0.3299E+02
 MRCHDU: Convergence failed at  80  side 2    Res =  0.3562E+02
 MRCHDU: Convergence failed at  81  side 2    Res =  0.4225E+02
 MRCHDU: Convergence failed at  82  side 2    Res =  0.1941E+04
 MRCHDU: Convergence failed at  83  side 2    Res =  0.1141E+03
 MRCHDU: Convergence failed at  84  side 2    Res =  0.3273E+03
 MRCHDU: Convergence failed at  85  side 2    Res =  0.2654E+03
 Side 1  free  transition at x/c =  0.8683   66
 Side 2  free  transition at x/c =  0.0611   24

 121   rms: 0.1016E+01   max: -.4847E+01   T at   66  1   RLX: 0.103
       a = -4.000      CL = -0.9220
      Cm =  0.1959     CD =  0.01909   =>   CDf =  0.00324    CDp =  0.01584

 MRCHDU: Convergence failed at  28  side 2    Res =  0.6481E-01
 MRCHDU: Convergence failed at  38  side 2    Res =  0.1337E+00
 MRCHDU: Convergence failed at  39  side 2    Res =  0.1262E+00
 MRCHDU: Convergence failed at  40  side 2    Res =  0.1190E+00
 MRCHDU: Convergence failed at  41  side 2    Res =  0.1122E+00
 MRCHDU: Convergence failed at  42  side 2    Res =  0.1053E+00
 MRCHDU: Convergence failed at  43  side 2    Res =  0.9793E-01
 Side 1  free  transition at x/c =  0.8859   67
 Side 2  free  transition at x/c =  0.0620   24

 122   rms: 0.5809E+00   max: 0.3141E+01   D at   28  2   RLX: 0.478
       a = -4.000      CL = -0.2302
      Cm = -0.0381     CD =  0.03155   =>   CDf =  0.00495    CDp =  0.02660

 MRCHDU: Convergence failed at  43  side 2    Res =  0.1500E+00
 MRCHDU: Convergence failed at  44  side 2    Res =  0.2355E+00
 Side 1  free  transition at x/c =  0.8970   68
 Side 2  free  transition at x/c =  0.0547   23

 123   rms: 0.2395E+01   max: 0.5202E+02   T at   23  2   RLX: 0.029
       a = -4.000      CL = -0.2002
      Cm = -0.0476     CD =  0.02580   =>   CDf =  0.00555    CDp =  0.02024

 Side 1  free  transition at x/c =  0.8961   68
[...]
      Cm = -0.1498     CD =  0.04260   =>   CDf =  0.00401    CDp =  0.03860

 Side 1  free  transition at x/c =  0.8630   67
 Side 2  free  transition at x/c =  0.0837   24
 idif Ue xi dudx           1  0.14928590      3.14819813E-03   47.419472    
 Uenew xinew           2  1.94288157E-02  4.09722328E-04

  61   rms: 0.3099E+00   max: 0.2096E+01   T at   67  1   RLX: 0.643
       a = -3.000      CL = -0.0267
      Cm = -0.1043     CD =  0.05216   =>   CDf =  0.00394    CDp =  0.04823

 Side 1  free  transition at x/c =  0.8348   64
 Side 2  free  transition at x/c =  0.0644   24

  62   rms: 0.2065E+00   max: -.1411E+01   T at   24  2   RLX: 0.354
       a = -3.000      CL = -0.0183
      Cm = -0.1064     CD =  0.05531   =>   CDf =  0.00340    CDp =  0.05191

 Side 1  free  transition at x/c =  0.8381   65
 Side 2  free  transition at x/c =  0.0652   23
 idif Ue xi dudx           1  0.14737931      3.16870213E-03   46.510937    
 Uenew xinew           2  2.00102292E-02  4.30226326E-04

  63   rms: 0.2241E+00   max: 0.2317E+01   T at   65  1   RLX: 0.416
       a = -3.000      CL = -0.0860
      Cm = -0.0867     CD =  0.06442   =>   CDf =  0.00350    CDp =  0.06092

 Side 1  free  transition at x/c =  0.8177   63
 Side 2  free  transition at x/c =  0.0598   24

  64   rms: 0.7029E+00   max: -.5869E+01   T at   24  2   RLX: 0.085
       a = -3.000      CL = -0.1127
      Cm = -0.0701     CD =  0.08018   =>   CDf =  0.00323    CDp =  0.07695

 Side 1  free  transition at x/c =  0.8220   64
 Side 2  free  transition at x/c =  0.0601   23
 idif Ue xi dudx           1  0.16876389      3.74937057E-03   45.011261    
 Uenew xinew           2  4.55016494E-02  1.01089478E-03

  65   rms: 0.7292E+00   max: 0.7447E+01   T at   23  2   RLX: 0.157
       a = -3.000      CL = -0.1758
      Cm = -0.0605     CD =  0.08786   =>   CDf =  0.00321    CDp =  0.08465

 Side 1  free  transition at x/c =  0.8087   62
 Side 2  free  transition at x/c =  0.0572   23

  66   rms: 0.1130E+01   max: 0.1032E+02   T at   24  2   RLX: 0.064
       a = -3.000      CL = -0.0965
      Cm = -0.0750     CD =  0.06620   =>   CDf =  0.00358    CDp =  0.06262

 Side 1  free  transition at x/c =  0.8171   63
 Side 2  free  transition at x/c =  0.0552   23

  67   rms: 0.1868E+00   max: -.7774E+00   T at   63  1   RLX: 0.643
       a = -3.000      CL =  0.0804
      Cm = -0.1150     CD =  0.04657   =>   CDf =  0.00404    CDp =  0.04253

 Side 1  free  transition at x/c =  0.8306   65
 Side 2  free  transition at x/c =  0.0574   22

  68   rms: 0.2394E+00   max: -.7345E+00   D at   22  2   RLX: 0.681
       a = -3.000      CL =  0.1863
      Cm = -0.1402     CD =  0.04003   =>   CDf =  0.00416    CDp =  0.03587

 Side 1  free  transition at x/c =  0.8393   65
 Side 2  free  transition at x/c =  0.0739   24

  69   rms: 0.2276E+02   max: -.2011E+03   T at   65  1   RLX: 0.002
       a = -3.000      CL =  0.2319
      Cm = -0.1467     CD =  0.02617   =>   CDf =  0.00724    CDp =  0.01893

 Side 1  free  transition at x/c =  0.8549   66
 Side 2  free  transition at x/c =  0.0715   23

  70   rms: 0.4198E+00   max: -.5139E+01   T at   23  2   RLX: 0.097
       a = -3.000      CL =  0.2560
      Cm = -0.1531     CD =  0.02201   =>   CDf =  0.00730    CDp =  0.01471

 Side 1  free  transition at x/c =  0.8594   67
 Side 2  free  transition at x/c =  0.0711   23

  71   rms: 0.2708E+00   max: 0.1320E+01   D at   26  2   RLX: 0.923
       a = -3.000      CL =  0.3201
      Cm = -0.1712     CD =  0.02799   =>   CDf =  0.00706    CDp =  0.02093

 Side 1  free  transition at x/c =  0.8619   67
 Side 2  free  transition at x/c =  0.0677   23

  72   rms: 0.7594E-01   max: 0.1011E+01   T at   23  2   RLX: 0.912
       a = -3.000      CL =  0.3226
      Cm = -0.1724     CD =  0.02638   =>   CDf =  0.00587    CDp =  0.02050

 Side 1  free  transition at x/c =  0.8631   67
 Side 2  free  transition at x/c =  0.0639   23

  73   rms: 0.1228E-01   max: -.1076E+00   D at   25  2
       a = -3.000      CL =  0.3279
      Cm = -0.1735     CD =  0.02550   =>   CDf =  0.00650    CDp =  0.01900

 Side 1  free  transition at x/c =  0.8638   67
 Side 2  free  transition at x/c =  0.0628   23

  74   rms: 0.2168E-02   max: -.1136E-01   D at   24  2
       a = -3.000      CL =  0.3284
      Cm = -0.1736     CD =  0.02546   =>   CDf =  0.00647    CDp =  0.01899

 Side 1  free  transition at x/c =  0.8639   67
 Side 2  free  transition at x/c =  0.0628   23

  75   rms: 0.2121E-04   max: -.1024E-03   D at   28  2
       a = -3.000      CL =  0.3284
      Cm = -0.1736     CD =  0.02546   =>   CDf =  0.00648    CDp =  0.01898
 plradd ia,ip,cpol            1           0  2.01881444E-03

 Point added to stored polar  1
 Point written to save file  ah79100c_Re200k.base.pol                        
 Dump file unspecified or not available
 Calculating wake trajectory ...
 Calculating source influence matrix ...

 Solving BL system ...

 Side 1  free  transition at x/c =  0.8639   67
 Side 2  free  transition at x/c =  0.0628   23

   1   rms: 0.2548E+00   max: -.9479E+00   D at   27  2   RLX: 0.527
       a = -2.500      CL =  0.3765
      Cm = -0.1775     CD =  0.02271   =>   CDf =  0.00645    CDp =  0.01626

 Side 1  free  transition at x/c =  0.8628   68
 Side 2  free  transition at x/c =  0.0624   22

   2   rms: 0.5593E-01   max: -.4783E+00   D at    2  1
       a = -2.500      CL =  0.4095
      Cm = -0.1786     CD =  0.02236   =>   CDf =  0.00708    CDp =  0.01528

 Side 1  free  transition at x/c =  0.8610   68
 Side 2  free  transition at x/c =  0.0638   22

   3   rms: 0.9623E-02   max: 0.5204E-01   D at   23  2
       a = -2.500      CL =  0.4102
      Cm = -0.1787     CD =  0.02232   =>   CDf =  0.00718    CDp =  0.01514

 Side 1  free  transition at x/c =  0.8613   68
 Side 2  free  transition at x/c =  0.0638   22

   4   rms: 0.1879E-03   max: 0.1659E-02   D at   23  2
       a = -2.500      CL =  0.4102
      Cm = -0.1787     CD =  0.02232   =>   CDf =  0.00716    CDp =  0.01516

 Side 1  free  transition at x/c =  0.8613   68
 Side 2  free  transition at x/c =  0.0638   22

   5   rms: 0.2617E-05   max: 0.9912E-05   D at   37  2
       a = -2.500      CL =  0.4102
      Cm = -0.1787     CD =  0.02232   =>   CDf =  0.00716    CDp =  0.01516
 plradd ia,ip,cpol            2           0  2.01881444E-03

 Point added to stored polar  1
 Point written to save file  ah79100c_Re200k.base.pol                        
 Dump file unspecified or not available
 Calculating wake trajectory ...
 Calculating source influence matrix ...

 Solving BL system ...

 Side 1  free  transition at x/c =  0.8613   68
 Side 2  free  transition at x/c =  0.0638   22

   1   rms: 0.1391E+00   max: -.3997E+00   T at   22  2
       a = -2.000      CL =  0.4891
      Cm = -0.1831     CD =  0.02007   =>   CDf =  0.00711    CDp =  0.01296

 Side 1  free  transition at x/c =  0.8586   69
 Side 2  free  transition at x/c =  0.0721   22

   2   rms: 0.2004E-01   max: -.1321E+00   D at    2  1
       a = -2.000      CL =  0.4904
      Cm = -0.1831     CD =  0.02051   =>   CDf =  0.00747    CDp =  0.01303

 Side 1  free  transition at x/c =  0.8592   69
 Side 2  free  transition at x/c =  0.0719   21

   3   rms: 0.1193E-02   max: -.1546E-01   D at   21  2
       a = -2.000      CL =  0.4905
      Cm = -0.1831     CD =  0.02046   =>   CDf =  0.00750    CDp =  0.01296

 Side 1  free  transition at x/c =  0.8592   69
 Side 2  free  transition at x/c =  0.0719   21

   4   rms: 0.3496E-04   max: 0.2239E-03   D at   22  2
       a = -2.000      CL =  0.4905
      Cm = -0.1831     CD =  0.02046   =>   CDf =  0.00750    CDp =  0.01296
 plradd ia,ip,cpol            3           0  2.01881444E-03

 Point added to stored polar  1
 Point written to save file  ah79100c_Re200k.base.pol                        
 Dump file unspecified or not available
 Calculating wake trajectory ...
 Calculating source influence matrix ...

 Solving BL system ...

 Side 1  free  transition at x/c =  0.8592   69
 Side 2  free  transition at x/c =  0.0719   21

   1   rms: 0.1261E+00   max: -.7966E+00   T at   21  2   RLX: 0.628
       a = -1.500      CL =  0.5418
      Cm = -0.1859     CD =  0.01948   =>   CDf =  0.00750    CDp =  0.01198

 MRCHDU: Convergence failed at  23  side 2    Res =  0.9466E+01
 MRCHDU: Convergence failed at  24  side 2    Res =  0.6671E+01
 MRCHDU: Convergence failed at  25  side 2    Res =  0.6615E+02
 MRCHDU: Convergence failed at  26  side 2    Res =  0.1478E+02
 MRCHDU: Convergence failed at  27  side 2    Res =  0.1031E+02
 MRCHDU: Convergence failed at  28  side 2    Res =  0.1131E+02
 MRCHDU: Convergence failed at  29  side 2    Res =  0.1454E+02
 MRCHDU: Convergence failed at  30  side 2    Res =  0.1802E+02
 MRCHDU: Convergence failed at  31  side 2    Res =  0.2367E+02
 MRCHDU: Convergence failed at  32  side 2    Res =  0.4743E+02
 MRCHDU: Convergence failed at  33  side 2    Res =  0.5163E+02
 MRCHDU: Convergence failed at  34  side 2    Res =  0.4297E+02
 MRCHDU: Convergence failed at  35  side 2    Res =  0.3924E+02
 MRCHDU: Convergence failed at  36  side 2    Res =  0.3497E+02
 MRCHDU: Convergence failed at  37  side 2    Res =  0.3228E+02
 MRCHDU: Convergence failed at  38  side 2    Res =  0.3026E+02
 MRCHDU: Convergence failed at  39  side 2    Res =  0.2850E+02
 MRCHDU: Convergence failed at  40  side 2    Res =  0.2755E+02
 MRCHDU: Convergence failed at  41  side 2    Res =  0.2630E+02
 MRCHDU: Convergence failed at  42  side 2    Res =  0.2529E+02
 MRCHDU: Convergence failed at  43  side 2    Res =  0.2720E+02
 MRCHDU: Convergence failed at  44  side 2    Res =  0.2659E+02
 MRCHDU: Convergence failed at  45  side 2    Res =  0.2610E+02
 MRCHDU: Convergence failed at  46  side 2    Res =  0.5014E+02
 MRCHDU: Convergence failed at  47  side 2    Res =  0.5067E+02
 MRCHDU: Convergence failed at  48  side 2    Res =  0.5156E+02
 MRCHDU: Convergence failed at  49  side 2    Res =  0.5008E+02
 MRCHDU: Convergence failed at  50  side 2    Res =  0.5175E+02
 MRCHDU: Convergence failed at  51  side 2    Res =  0.5076E+02
 MRCHDU: Convergence failed at  52  side 2    Res =  0.4966E+02
 MRCHDU: Convergence failed at  53  side 2    Res =  0.4712E+02
 MRCHDU: Convergence failed at  54  side 2    Res =  0.4487E+02
 MRCHDU: Convergence failed at  55  side 2    Res =  0.4398E+02
 MRCHDU: Convergence failed at  56  side 2    Res =  0.4372E+02
 MRCHDU: Convergence failed at  57  side 2    Res =  0.4176E+02
 MRCHDU: Convergence failed at  58  side 2    Res =  0.3995E+02
 MRCHDU: Convergence failed at  59  side 2    Res =  0.3896E+02
 MRCHDU: Convergence failed at  60  side 2    Res =  0.3880E+02
 MRCHDU: Convergence failed at  61  side 2    Res =  0.3841E+02
 MRCHDU: Convergence failed at  62  side 2    Res =  0.3784E+02
 MRCHDU: Convergence failed at  63  side 2    Res =  0.3720E+02
 MRCHDU: Convergence failed at  64  side 2    Res =  0.3699E+02
 MRCHDU: Convergence failed at  65  side 2    Res =  0.3737E+02
 MRCHDU: Convergence failed at  66  side 2    Res =  0.3810E+02
 MRCHDU: Convergence failed at  67  side 2    Res =  0.3899E+02
 MRCHDU: Convergence failed at  68  side 2    Res =  0.3989E+02
 MRCHDU: Convergence failed at  69  side 2    Res =  0.4142E+02
 MRCHDU: Convergence failed at  70  side 2    Res =  0.4398E+02
 MRCHDU: Convergence failed at  71  side 2    Res =  0.4939E+02
 MRCHDU: Convergence failed at  72  side 2    Res =  0.5776E+02
 MRCHDU: Convergence failed at  73  side 2    Res =  0.6680E+02
 MRCHDU: Convergence failed at  74  side 2    Res =  0.9617E+02
 MRCHDU: Convergence failed at  75  side 2    Res =  0.5698E+02
 MRCHDU: Convergence failed at  76  side 2    Res =  0.1849E+03
 MRCHDU: Convergence failed at  77  side 2    Res =  0.5031E+02
 MRCHDU: Convergence failed at  78  side 2    Res =  0.8089E+02
 MRCHDU: Convergence failed at  79  side 2    Res =  0.4010E+02
 MRCHDU: Convergence failed at  80  side 2    Res =  0.8430E+02
 MRCHDU: Convergence failed at  81  side 2    Res =  0.7847E+02
 MRCHDU: Convergence failed at  82  side 2    Res =  0.4267E+03
 Side 1  free  transition at x/c =  0.8583   69
 Side 2  free  transition at x/c =  0.0833   22

   2   rms: 0.5748E+00   max: 0.1818E+01   D at   45  2   RLX: 0.825
       a = -1.500      CL =  0.3787
      Cm = -0.1187     CD =  0.01861   =>   CDf =  0.00380    CDp =  0.01482

 MRCHDU: Convergence failed at  81  side 2    Res =  0.1153E+00
 MRCHDU: Convergence failed at  82  side 2    Res =  0.9939E-01
 Side 1  free  transition at x/c =  0.8606   69
 Side 2  free  transition at x/c =  0.0769   22

   3   rms: 0.4554E+00   max: -.2344E+01   D at   82  2   RLX: 0.213
       a = -1.500      CL =  0.6036
      Cm = -0.1940     CD =  0.03881   =>   CDf =  0.00388    CDp =  0.03492

 MRCHDU: Convergence failed at  81  side 2    Res =  0.2975E+00
 Side 1  free  transition at x/c =  0.8635   70
 Side 2  free  transition at x/c =  0.0835   21
 idif Ue xi dudx           1  0.31594288      3.36873531E-03   93.786797    
 Uenew xinew           2  0.13279910      1.41596794E-03

   4   rms: 0.7883E+00   max: 0.4794E+01   T at    2  1   RLX: 0.196
       a = -1.500      CL =  0.5109
      Cm = -0.1869     CD =  0.05648   =>   CDf =  0.00408    CDp =  0.05241

 Side 1  free  transition at x/c =  0.8542   68
 Side 2  free  transition at x/c =  0.0737   22

   5   rms: 0.1030E+01   max: -.3441E+01   D at   95  2   RLX: 0.145
       a = -1.500      CL =  0.5298
      Cm = -0.2041     CD =  0.04243   =>   CDf =  0.00391    CDp =  0.03851

 Side 1  free  transition at x/c =  0.8707   69
 Side 2  free  transition at x/c =  0.0752   22

   6   rms: 0.2026E+01   max: -.7322E+01   D at   85  2   RLX: 0.068
       a = -1.500      CL =  0.6113
      Cm = -0.2381     CD =  0.03285   =>   CDf =  0.00404    CDp =  0.02881

 MRCHDU: Convergence failed at  71  side 1    Res =  0.4227E+01
 MRCHDU: Convergence failed at  72  side 1    Res =  0.3833E+02
 MRCHDU: Convergence failed at  73  side 1    Res =  0.3246E+02
 MRCHDU: Convergence failed at  74  side 1    Res =  0.2369E+02
 MRCHDU: Convergence failed at  75  side 1    Res =  0.3052E+02
 MRCHDU: Convergence failed at  76  side 1    Res =  0.5968E+02
 MRCHDU: Convergence failed at  77  side 1    Res =  0.1198E+03
 MRCHDU: Convergence failed at  78  side 1    Res =  0.3282E+02
 MRCHDU: Convergence failed at  79  side 1    Res =  0.2132E+02
 MRCHDU: Convergence failed at  80  side 1    Res =  0.1598E+02
 Side 1  free  transition at x/c =  0.8870   71
 Side 2  free  transition at x/c =  0.0847   22

   7   rms: 0.2296E+01   max: 0.9394E+01   D at   30  2   RLX: 0.160
       a = -1.500      CL =  0.6591
      Cm = -0.2423     CD =  0.04781   =>   CDf =  0.00411    CDp =  0.04371

 Side 1  free  transition at x/c =  0.8852   70
 Side 2  free  transition at x/c =  0.0871   23

   8   rms: 0.4195E+01   max: -.1521E+02   D at   79  2   RLX: 0.033
       a = -1.500      CL =  0.6707
      Cm = -0.2502     CD =  0.03048   =>   CDf =  0.00409    CDp =  0.02639

 Side 1  free  transition at x/c =  0.8670   69
 Side 2  free  transition at x/c =  0.0870   23

   9   rms: 0.7908E+00   max: -.3708E+01   D at   79  2   RLX: 0.135
       a = -1.500      CL =  0.7235
      Cm = -0.2644     CD =  0.02576   =>   CDf =  0.00410    CDp =  0.02166

 Side 1  free  transition at x/c =  0.8677   69
 Side 2  free  transition at x/c =  0.0948   23

  10   rms: 0.1223E+01   max: 0.1097E+02   T at   23  2   RLX: 0.123
       a = -1.500      CL =  0.6314
      Cm = -0.2354     CD =  0.03399   =>   CDf =  0.00421    CDp =  0.02978

 MRCHDU: Convergence failed at  23  side 2    Res =  0.3387E+03
 MRCHDU: Convergence failed at  24  side 2    Res =  0.2245E+02
 MRCHDU: Convergence failed at  25  side 2    Res =  0.1930E+02
 MRCHDU: Convergence failed at  26  side 2    Res =  0.1431E+03
 MRCHDU: Convergence failed at  27  side 2    Res =  0.3033E+03
 MRCHDU: Convergence failed at  28  side 2    Res =  0.1213E+03
 MRCHDU: Convergence failed at  29  side 2    Res =  0.4521E+02
 MRCHDU: Convergence failed at  30  side 2    Res =  0.1330E+02
 MRCHDU: Convergence failed at  31  side 2    Res =  0.1573E+02
 MRCHDU: Convergence failed at  32  side 2    Res =  0.1741E+02
 MRCHDU: Convergence failed at  33  side 2    Res =  0.1823E+02
 MRCHDU: Convergence failed at  34  side 2    Res =  0.1824E+02
 MRCHDU: Convergence failed at  35  side 2    Res =  0.1792E+02
 MRCHDU: Convergence failed at  36  side 2    Res =  0.1744E+02
 MRCHDU: Convergence failed at  37  side 2    Res =  0.1898E+02
 MRCHDU: Convergence failed at  38  side 2    Res =  0.2152E+02
 MRCHDU: Convergence failed at  39  side 2    Res =  0.2447E+02
 MRCHDU: Convergence failed at  40  side 2    Res =  0.2884E+02
 MRCHDU: Convergence failed at  41  side 2    Res =  0.3510E+02
 MRCHDU: Convergence failed at  42  side 2    Res =  0.4382E+02
 MRCHDU: Convergence failed at  43  side 2    Res =  0.5636E+02
 MRCHDU: Convergence failed at  44  side 2    Res =  0.7778E+02
 MRCHDU: Convergence failed at  45  side 2    Res =  0.5327E+02
 MRCHDU: Convergence failed at  46  side 2    Res =  0.5685E+03
 MRCHDU: Convergence failed at  47  side 2    Res =  0.1040E+03
 MRCHDU: Convergence failed at  48  side 2    Res =  0.6491E+02
 MRCHDU: Convergence failed at  49  side 2    Res =  0.5929E+02
 MRCHDU: Convergence failed at  50  side 2    Res =  0.7254E+02
 MRCHDU: Convergence failed at  51  side 2    Res =  0.1070E+03
 MRCHDU: Convergence failed at  52  side 2    Res =  0.6274E+02
 MRCHDU: Convergence failed at  53  side 2    Res =  0.3254E+02
 MRCHDU: Convergence failed at  54  side 2    Res =  0.7257E+02
 MRCHDU: Convergence failed at  55  side 2    Res =  0.2854E+02
 MRCHDU: Convergence failed at  56  side 2    Res =  0.6139E+02
 MRCHDU: Convergence failed at  57  side 2    Res =  0.5879E+02
 MRCHDU: Convergence failed at  58  side 2    Res =  0.9216E+02
 MRCHDU: Convergence failed at  59  side 2    Res =  0.9688E+02
 MRCHDU: Convergence failed at  60  side 2    Res =  0.4175E+02
 MRCHDU: Convergence failed at  61  side 2    Res =  0.3331E+02
 MRCHDU: Convergence failed at  62  side 2    Res =  0.4865E+02
 MRCHDU: Convergence failed at  63  side 2    Res =  0.4540E+02
 MRCHDU: Convergence failed at  64  side 2    Res =  0.3908E+02
 MRCHDU: Convergence failed at  65  side 2    Res =  0.4296E+02
 MRCHDU: Convergence failed at  66  side 2    Res =  0.4429E+02
 MRCHDU: Convergence failed at  67  side 2    Res =  0.4312E+02
 MRCHDU: Convergence failed at  68  side 2    Res =  0.3905E+02
 MRCHDU: Convergence failed at  69  side 2    Res =  0.7507E+02
 MRCHDU: Convergence failed at  70  side 2    Res =  0.3521E+02
 MRCHDU: Convergence failed at  71  side 2    Res =  0.3117E+02
 MRCHDU: Convergence failed at  72  side 2    Res =  0.3029E+02
 MRCHDU: Convergence failed at  73  side 2    Res =  0.2953E+02
 MRCHDU: Convergence failed at  74  side 2    Res =  0.4312E+02
 MRCHDU: Convergence failed at  75  side 2    Res =  0.5227E+02
 MRCHDU: Convergence failed at  76  side 2    Res =  0.4104E+02
 MRCHDU: Convergence failed at  77  side 2    Res =  0.4846E+02
 MRCHDU: Convergence failed at  78  side 2    Res =  0.1219E+03
 MRCHDU: Convergence failed at  79  side 2    Res =  0.4010E+02
 MRCHDU: Convergence failed at  80  side 2    Res =  0.1675E+03
 MRCHDU: Convergence failed at  81  side 2    Res =  0.2537E+03
 MRCHDU: Convergence failed at  82  side 2    Res =  0.2318E+04
 Side 1  free  transition at x/c =  0.8511   68
 Side 2  free  transition at x/c =  0.0781   22

  11   rms: 0.4338E+00   max: 0.1341E+01   D at   88  2   RLX: 0.961
       a = -1.500      CL =  0.3542
      Cm = -0.1149     CD =  0.02418   =>   CDf =  0.00374    CDp =  0.02044

 MRCHDU: Convergence failed at  86  side 2    Res =  0.6071E+01
 MRCHDU: Convergence failed at  87  side 2    Res =  0.3772E+01
 MRCHDU: Convergence failed at  88  side 2    Res =  0.3317E+01
 MRCHDU: Convergence failed at  89  side 2    Res =  0.2367E+01

[TIMEOUT]
