
 ===================================================
  XFOIL Version 6.99
  Copyright (C) 2000   Mark Drela, Harold Youngren

  This software comes with ABSOLUTELY NO WARRANTY,
    subject to the GNU General Public License.

  Caveat computor
 ===================================================

 File  xfoil.def  not found

   QUIT    Exit program

  .OPER    Direct operating point(s)
  .MDES    Complex mapping design routine
  .QDES    Surface speed design routine
  .GDES    Geometry design routine

   SAVE f  Write airfoil to labeled coordinate file
   PSAV f  Write airfoil to plain coordinate file
   ISAV f  Write airfoil to ISES coordinate file
   MSAV f  Write airfoil to MSES coordinate file
   REVE    Reverse written-airfoil node ordering

   LOAD f  Read buffer airfoil from coordinate file
   NACA i  Set NACA 4,5-digit airfoil and buffer airfoil
   INTE    Set buffer airfoil by interpolating two airfoils
   NORM    Buffer airfoil normalization toggle
   XYCM rr Change CM reference location, currently  0.25000 0.00000

   BEND    Display structural properties of current airfoil

   PCOP    Set current-airfoil panel nodes directly from buffer airfoil points
   PANE    Set current-airfoil panel nodes ( 160 ) based on curvature
  .PPAR    Show/change paneling

  .PLOP    Plotting options

   WDEF f  Write  current-settings file
   RDEF f  Reread current-settings file
   NAME s  Specify new airfoil name
   NINC    Increment name version number

   Z       Zoom    | (available in all menus)
   U       Unzoom  | 

 XFOIL   c>  
 Labeled airfoil file.  Name:  AH 83-159                                       

 Number of input coordinate points:  97
 Counterclockwise ordering
 Max thickness =     0.159421  at x =   0.402
 Max camber    =     0.038322  at x =   0.402

  LE  x,y  =  -0.00000   0.00022  |   Chord =   1.00000
  TE  x,y  =   1.00000   0.00000  |

 Current airfoil nodes set from buffer airfoil nodes (  97 )

 XFOIL   c>  
 XFOIL   c>  
 Sharp trailing edge

 Paneling parameters used...
   Number of panel nodes       160
   Panel bunching parameter    1.000
   TE/LE panel density ratio   0.150
   Refined-area/LE panel density ratio    0.200
   Top    side refined area x/c limits  1.000 1.000
   Bottom side refined area x/c limits  1.000 1.000

 XFOIL   c>  
.OPERi   c>  
 Xtr/c     =  1.0000    top    side
 Xtr/c     =  1.0000    bottom side
 Ncrit     =    9.00   ( 0.070 % turb. level )
 Vacc      =  0.0100

 Klag  =  5.6000     Uxwt  =    1.00
 A     =  6.7000     B     =  0.7500       KCt = 0.01485
 CtiniK=  1.8000     CtiniX=  3.3000

..VPAR   c>  
..VPAR   c>  
.OPERi   c>  
 M  =    0.0000
 Re =    600000

.OPERv   c>  
.OPERv   c>  
.OPERv   c>  
 Polar  1 newly created for accumulation
 Airfoil archived with polar: AH 83-159                                       

Enter  polar save filename  OR  <return> for no file   s>  
 New polar save file available

Enter  polar dump filename  OR  <return> for no file   s>  
 Polar dump file will NOT be written

 Polar accumulation enabled

.OPERva   c>   Calculating unit vorticity distributions ...
 Calculating wake trajectory ...
 Calculating source influence matrix ...

 Solving BL system ...

 Initializing BL ...
    side            1  ...
 MRCHUE: Inverse mode at  48     Hk =   3.933
 MRCHUE: Inverse mode at  49     Hk =   4.713
 MRCHUE: Inverse mode at  50     Hk =   5.475
 MRCHUE: Inverse mode at  51     Hk =   6.226
 MRCHUE: Inverse mode at  52     Hk =   6.971
 MRCHUE: Inverse mode at  53     Hk =   7.710
 MRCHUE: Inverse mode at  54     Hk =   8.445
 MRCHUE: Inverse mode at  55     Hk =   9.177
 MRCHUE: Inverse mode at  56     Hk =   8.530
 MRCHUE: Inverse mode at  57     Hk =   5.563
 MRCHUE: Inverse mode at  58     Hk =   3.907
 MRCHUE: Inverse mode at  59     Hk =   2.752
    side            2  ...
 MRCHUE: Inverse mode at  11     Hk =   4.222
 MRCHUE: Inverse mode at  12     Hk =   5.577
 MRCHUE: Inverse mode at  13     Hk =   6.836
 MRCHUE: Inverse mode at  14     Hk =   8.142
 MRCHUE: Inverse mode at  15     Hk =   9.585
 MRCHUE: Inverse mode at  16     Hk =   6.338
 MRCHUE: Inverse mode at  17     Hk =   2.500
 MRCHUE: Inverse mode at  73     Hk =   2.500
 MRCHUE: Inverse mode at  74     Hk =   2.500
 MRCHUE: Inverse mode at  75     Hk =   2.500
 MRCHUE: Inverse mode at  76     Hk =   2.500
 MRCHUE: Inverse mode at  77     Hk =   2.500
 MRCHUE: Inverse mode at  78     Hk =   2.500
 MRCHUE: Inverse mode at  79     Hk =   2.500
 MRCHUE: Inverse mode at  80     Hk =   2.500
 MRCHUE: Inverse mode at  81     Hk =   2.500
 MRCHUE: Inverse mode at  82     Hk =   2.500
 MRCHUE: Inverse mode at  83     Hk =   2.500
 MRCHUE: Inverse mode at  85     Hk =   2.500

 Side 1  free  transition at x/c =  0.7087   56
 Side 2  free  transition at x/c =  0.0189   16

   1   rms: 0.1367E+00   max: -.8213E+00   T at   16  2   RLX: 0.609
       a = -4.000      CL =  0.0316
      Cm = -0.0930     CD =  0.01189   =>   CDf =  0.00690    CDp =  0.00499

 Side 1  free  transition at x/c =  0.7147   57
 Side 2  free  transition at x/c =  0.0233   17

   2   rms: 0.4403E-01   max: -.4223E+00   D at   59  1
       a = -4.000      CL =  0.0165
      Cm = -0.0879     CD =  0.01169   =>   CDf =  0.00701    CDp =  0.00468

 Side 1  free  transition at x/c =  0.7137   57
 Side 2  free  transition at x/c =  0.0244   17

   3   rms: 0.1238E-01   max: -.1327E+00   D at   59  1
       a = -4.000      CL =  0.0085
      Cm = -0.0860     CD =  0.01180   =>   CDf =  0.00703    CDp =  0.00477

 Side 1  free  transition at x/c =  0.7129   57
 Side 2  free  transition at x/c =  0.0236   17

   4   rms: 0.8556E-03   max: -.1166E-01   D at   59  1
       a = -4.000      CL =  0.0084
      Cm = -0.0860     CD =  0.01181   =>   CDf =  0.00705    CDp =  0.00476

 Side 1  free  transition at x/c =  0.7128   57
 Side 2  free  transition at x/c =  0.0236   17

   5   rms: 0.1090E-04   max: -.1245E-03   D at   59  1
       a = -4.000      CL =  0.0084
      Cm = -0.0860     CD =  0.01181   =>   CDf =  0.00705    CDp =  0.00476
 plradd ia,ip,cpol            1           0  1.83917175E-03

 Point added to stored polar  1
 Point written to save file  ah83159_Re600k.base.pol                         
 Dump file unspecified or not available
 Calculating wake trajectory ...
 Calculating source influence matrix ...

 Solving BL system ...

 Side 1  free  transition at x/c =  0.7128   57
 Side 2  free  transition at x/c =  0.0236   17

   1   rms: 0.1162E+00   max: -.9328E+00   T at   17  2   RLX: 0.536
       a = -3.500      CL =  0.0358
      Cm = -0.0859     CD =  0.01152   =>   CDf =  0.00705    CDp =  0.00447

 Side 1  free  transition at x/c =  0.7111   56
 Side 2  free  transition at x/c =  0.0310   18

   2   rms: 0.7287E-01   max: -.5506E+00   T at   18  2   RLX: 0.908
       a = -3.500      CL =  0.0563
      Cm = -0.0856     CD =  0.01110   =>   CDf =  0.00704    CDp =  0.00406

 Side 1  free  transition at x/c =  0.7091   56
 Side 2  free  transition at x/c =  0.0427   19

   3   rms: 0.1269E-01   max: -.9245E-01   T at   19  2
       a = -3.500      CL =  0.0595
      Cm = -0.0857     CD =  0.01117   =>   CDf =  0.00698    CDp =  0.00419

 Side 1  free  transition at x/c =  0.7090   56
 Side 2  free  transition at x/c =  0.0448   19

   4   rms: 0.5237E-03   max: -.8869E-02   D at   19  2
       a = -3.500      CL =  0.0595
      Cm = -0.0857     CD =  0.01117   =>   CDf =  0.00697    CDp =  0.00420

 Side 1  free  transition at x/c =  0.7090   56
 Side 2  free  transition at x/c =  0.0446   19

   5   rms: 0.3413E-05   max: -.5715E-04   D at   19  2
       a = -3.500      CL =  0.0595
      Cm = -0.0857     CD =  0.01117   =>   CDf =  0.00697    CDp =  0.00420
 plradd ia,ip,cpol            2           0  1.83917175E-03

 Point added to stored polar  1
 Point written to save file  ah83159_Re600k.base.pol                         
 Dump file unspecified or not available
 Calculating wake trajectory ...
 Calculating source influence matrix ...

 Solving BL system ...

 Side 1  free  transition at x/c =  0.7090   56
 Side 2  free  transition at x/c =  0.0446   19

   1   rms: 0.1477E+00   max: 0.1376E+01   D at   19  2   RLX: 0.402
       a = -3.000      CL =  0.0799
      Cm = -0.0857     CD =  0.01089   =>   CDf =  0.00697    CDp =  0.00392

 Side 1  free  transition at x/c =  0.7072   56
 Side 2  free  transition at x/c =  0.0642   21

   2   rms: 0.1145E+00   max: -.1029E+01   C at   21  2   RLX: 0.486
       a = -3.000      CL =  0.0942
      Cm = -0.0856     CD =  0.01066   =>   CDf =  0.00691    CDp =  0.00375

 Side 1  free  transition at x/c =  0.7059   56
 Side 2  free  transition at x/c =  0.1144   24

   3   rms: 0.1624E+00   max: -.3803E+01   C at   24  2   RLX: 0.131
       a = -3.000      CL =  0.0945
      Cm = -0.0858     CD =  0.01053   =>   CDf =  0.00669    CDp =  0.00384

 Side 1  free  transition at x/c =  0.7057   56
 Side 2  free  transition at x/c =  0.1184   24

   4   rms: 0.9051E-01   max: -.2093E+01   C at   24  2   RLX: 0.239
       a = -3.000      CL =  0.0985
      Cm = -0.0857     CD =  0.01051   =>   CDf =  0.00675    CDp =  0.00376

 Side 1  free  transition at x/c =  0.7055   57
 Side 2  free  transition at x/c =  0.1310   24

   5   rms: 0.2098E+00   max: -.3993E+01   C at   24  2   RLX: 0.125
       a = -3.000      CL =  0.0996
      Cm = -0.0857     CD =  0.01042   =>   CDf =  0.00662    CDp =  0.00380

 Side 1  free  transition at x/c =  0.7054   57
 Side 2  free  transition at x/c =  0.1347   25

   6   rms: 0.9761E-01   max: -.1877E+01   C at   25  2   RLX: 0.266
       a = -3.000      CL =  0.1021
      Cm = -0.0856     CD =  0.01035   =>   CDf =  0.00662    CDp =  0.00373

 Side 1  free  transition at x/c =  0.7052   57
 Side 2  free  transition at x/c =  0.1485   26

   7   rms: 0.1082E+00   max: -.2248E+01   C at   26  2   RLX: 0.222
       a = -3.000      CL =  0.1033
      Cm = -0.0855     CD =  0.01027   =>   CDf =  0.00655    CDp =  0.00372

 Side 1  free  transition at x/c =  0.7051   57
 Side 2  free  transition at x/c =  0.1604   26

   8   rms: 0.1127E+00   max: -.2595E+01   C at   26  2   RLX: 0.193
       a = -3.000      CL =  0.1043
      Cm = -0.0855     CD =  0.01025   =>   CDf =  0.00650    CDp =  0.00374

 Side 1  free  transition at x/c =  0.7050   57
 Side 2  free  transition at x/c =  0.1700   27

   9   rms: 0.7642E-01   max: -.1743E+01   C at   27  2   RLX: 0.287
       a = -3.000      CL =  0.1052
      Cm = -0.0854     CD =  0.01019   =>   CDf =  0.00647    CDp =  0.00372

 Side 1  free  transition at x/c =  0.7049   57
 Side 2  free  transition at x/c =  0.1795   28

  10   rms: 0.5014E-01   max: -.1061E+01   C at   28  2   RLX: 0.471
       a = -3.000      CL =  0.1062
      Cm = -0.0854     CD =  0.01012   =>   CDf =  0.00644    CDp =  0.00368

 Side 1  free  transition at x/c =  0.7048   57
 Side 2  free  transition at x/c =  0.1905   28

  11   rms: 0.3445E-01   max: -.7831E+00   C at   28  2   RLX: 0.638
       a = -3.000      CL =  0.1071
      Cm = -0.0854     CD =  0.01009   =>   CDf =  0.00639    CDp =  0.00370

 Side 1  free  transition at x/c =  0.7047   57
 Side 2  free  transition at x/c =  0.2021   29

  12   rms: 0.1110E-01   max: -.2504E+00   C at   29  2
       a = -3.000      CL =  0.1074
      Cm = -0.0854     CD =  0.01005   =>   CDf =  0.00635    CDp =  0.00370

 Side 1  free  transition at x/c =  0.7047   57
 Side 2  free  transition at x/c =  0.2074   29

  13   rms: 0.8706E-03   max: -.1964E-01   C at   29  2
       a = -3.000      CL =  0.1074
      Cm = -0.0854     CD =  0.01006   =>   CDf =  0.00633    CDp =  0.00372

 Side 1  free  transition at x/c =  0.7047   57
 Side 2  free  transition at x/c =  0.2073   29

  14   rms: 0.2631E-02   max: -.5782E-01   C at   29  2
       a = -3.000      CL =  0.1074
      Cm = -0.0854     CD =  0.01006   =>   CDf =  0.00634    CDp =  0.00372

 Side 1  free  transition at x/c =  0.7047   57
 Side 2  free  transition at x/c =  0.2073   29

  15   rms: 0.2608E-02   max: -.5729E-01   C at   29  2
       a = -3.000      CL =  0.1074
      Cm = -0.0854     CD =  0.01006   =>   CDf =  0.00634    CDp =  0.00372

 Side 1  free  transition at x/c =  0.7047   57
 Side 2  free  transition at x/c =  0.2073   29

  16   rms: 0.2605E-02   max: -.5722E-01   C at   29  2
       a = -3.000      CL =  0.1074
      Cm = -0.0854     CD =  0.01006   =>   CDf =  0.00634    CDp =  0.00372

 Side 1  free  transition at x/c =  0.7047   57
 Side 2  free  transition at x/c =  0.2073   29

  17   rms: 0.2606E-02   max: -.5725E-01   C at   29  2
       a = -3.000      CL =  0.1074
      Cm = -0.0854     CD =  0.01006   =>   CDf =  0.00634    CDp =  0.00372

 Side 1  free  transition at x/c =  0.7047   57
 Side 2  free  transition at x/c =  0.2073   29

  18   rms: 0.2605E-02   max: -.5723E-01   C at   29  2
       a = -3.000      CL =  0.1074
      Cm = -0.0854     CD =  0.01006   =>   CDf =  0.00634    CDp =  0.00372

 Side 1  free  transition at x/c =  0.7047   57
 Side 2  free  transition at x/c =  0.2073   29

  19   rms: 0.2607E-02   max: -.5727E-01   C at   29  2
       a = -3.000      CL =  0.1074
      Cm = -0.0854     CD =  0.01006   =>   CDf =  0.00634    CDp =  0.00372

 Side 1  free  transition at x/c =  0.7047   57
 Side 2  free  transition at x/c =  0.2073   29

  20   rms: 0.2607E-02   max: -.5728E-01   C at   29  2
       a = -3.000      CL =  0.1074
      Cm = -0.0854     CD =  0.01006   =>   CDf =  0.00634    CDp =  0.00372

 Side 1  free  transition at x/c =  0.7047   57
 Side 2  free  transition at x/c =  0.2073   29

  21   rms: 0.2607E-02   max: -.5728E-01   C at   29  2
       a = -3.000      CL =  0.1074
      Cm = -0.0854     CD =  0.01006   =>   CDf =  0.00634    CDp =  0.00372

 Side 1  free  transition at x/c =  0.7047   57
 Side 2  free  transition at x/c =  0.2073   29

  22   rms: 0.2605E-02   max: -.5723E-01   C at   29  2
       a = -3.000      CL =  0.1074
      Cm = -0.0854     CD =  0.01006   =>   CDf =  0.00634    CDp =  0.00372

 Side 1  free  transition at x/c =  0.7047   57
 Side 2  free  transition at x/c =  0.2073   29

  23   rms: 0.2606E-02   max: -.5726E-01   C at   29  2
       a = -3.000      CL =  0.1074
      Cm = -0.0854     CD =  0.01006   =>   CDf =  0.00634    CDp =  0.00372

 Side 1  free  transition at x/c =  0.7047   57
 Side 2  free  transition at x/c =  0.2073   29

  24   rms: 0.2606E-02   max: -.5726E-01   C at   29  2
       a = -3.000      CL =  0.1074
      Cm = -0.0854     CD =  0.01006   =>   CDf =  0.00634    CDp =  0.00372

 Side 1  free  transition at x/c =  0.7047   57
 Side 2  free  transition at x/c =  0.2073   29

  25   rms: 0.2607E-02   max: -.5726E-01   C at   29  2
       a = -3.000      CL =  0.1074
      Cm = -0.0854     CD =  0.01006   =>   CDf =  0.00634    CDp =  0.00372

 Side 1  free  transition at x/c =  0.7047   57
 Side 2  free  transition at x/c =  0.2073   29

  26   rms: 0.2606E-02   max: -.5725E-01   C at   29  2
       a = -3.000      CL =  0.1074
      Cm = -0.0854     CD =  0.01006   =>   CDf =  0.00634    CDp =  0.00372

 Side 1  free  transition at x/c =  0.7047   57
 Side 2  free  transition at x/c =  0.2073   29

  27   rms: 0.2606E-02   max: -.5726E-01   C at   29  2
       a = -3.000      CL =  0.1074
      Cm = -0.0854     CD =  0.01006   =>   CDf =  0.00634    CDp =  0.00372

 Side 1  free  transition at x/c =  0.7047   57
 Side 2  free  transition at x/c =  0.2073   29

  28   rms: 0.2606E-02   max: -.5726E-01   C at   29  2
       a = -3.000      CL =  0.1074
      Cm = -0.0854     CD =  0.01006   =>   CDf =  0.00634    CDp =  0.00372

 Side 1  free  transition at x/c =  0.7047   57
 Side 2  free  transition at x/c =  0.2073   29

  29   rms: 0.2606E-02   max: -.5725E-01   C at   29  2
       a = -3.000      CL =  0.1074
      Cm = -0.0854     CD =  0.01006   =>   CDf =  0.00634    CDp =  0.00372

 Side 1  free  transition at x/c =  0.7047   57
 Side 2  free  transition at x/c =  0.2073   29

  30   rms: 0.2608E-02   max: -.5730E-01   C at   29  2
       a = -3.000      CL =  0.1074
      Cm = -0.0854     CD =  0.01006   =>   CDf =  0.00634    CDp =  0.00372

 Side 1  free  transition at x/c =  0.7047   57
 Side 2  free  transition at x/c =  0.2073   29

  31   rms: 0.2606E-02   max: -.5725E-01   C at   29  2
       a = -3.000      CL =  0.1074
      Cm = -0.0854     CD =  0.01006   =>   CDf =  0.00634    CDp =  0.00372

 Side 1  free  transition at x/c =  0.7047   57
 Side 2  free  transition at x/c =  0.2073   29

  32   rms: 0.2604E-02   max: -.5721E-01   C at   29  2
       a = -3.000      CL =  0.1074
      Cm = -0.0854     CD =  0.01006   =>   CDf =  0.00634    CDp =  0.00372

 Side 1  free  transition at x/c =  0.7047   57
 Side 2  free  transition at x/c =  0.2073   29

  33   rms: 0.2606E-02   max: -.5725E-01   C at   29  2
       a = -3.000      CL =  0.1074
      Cm = -0.0854     CD =  0.01006   =>   CDf =  0.00634    CDp =  0.00372

 Side 1  free  transition at x/c =  0.7047   57
 Side 2  free  transition at x/c =  0.2073   29

  34   rms: 0.2607E-02   max: -.5728E-01   C at   29  2
       a = -3.000      CL =  0.1074
      Cm = -0.0854     CD =  0.01006   =>   CDf =  0.00634    CDp =  0.00372

 Side 1  free  transition at x/c =  0.7047   57
 Side 2  free  transition at x/c =  0.2073   29

  35   rms: 0.2608E-02   max: -.5729E-01   C at   29  2
       a = -3.000      CL =  0.1074
      Cm = -0.0854     CD =  0.01006   =>   CDf =  0.00634    CDp =  0.00372

 Side 1  free  transition at x/c =  0.7047   57
 Side 2  free  transition at x/c =  0.2073   29

  36   rms: 0.2606E-02   max: -.5725E-01   C at   29  2
       a = -3.000      CL =  0.1074
      Cm = -0.0854     CD =  0.01006   =>   CDf =  0.00634    CDp =  0.00372

 Side 1  free  transition at x/c =  0.7047   57
 Side 2  free  transition at x/c =  0.2073   29

  37   rms: 0.2608E-02   max: -.5729E-01   C at   29  2
       a = -3.000      CL =  0.1074
      Cm = -0.0854     CD =  0.01006   =>   CDf =  0.00634    CDp =  0.00372

 Side 1  free  transition at x/c =  0.7047   57
 Side 2  free  transition at x/c =  0.2073   29

  38   rms: 0.2610E-02   max: -.5734E-01   C at   29  2
       a = -3.000      CL =  0.1074
      Cm = -0.0854     CD =  0.01006   =>   CDf =  0.00634    CDp =  0.00372

 Side 1  free  transition at x/c =  0.7047   57
 Side 2  free  transition at x/c =  0.2073   29

  39   rms: 0.2607E-02   max: -.5728E-01   C at   29  2
       a = -3.000      CL =  0.1074
      Cm = -0.0854     CD =  0.01006   =>   CDf =  0.00634    CDp =  0.00372

 Side 1  free  transition at x/c =  0.7047   57
 Side 2  free  transition at x/c =  0.2073   29

  40   rms: 0.2606E-02   max: -.5726E-01   C at   29  2
       a = -3.000      CL =  0.1074
      Cm = -0.0854     CD =  0.01006   =>   CDf =  0.00634    CDp =  0.00372

 Side 1  free  transition at x/c =  0.7047   57
 Side 2  free  transition at x/c =  0.2073   29

  41   rms: 0.2610E-02   max: -.5734E-01   C at   29  2
       a = -3.000      CL =  0.1074
      Cm = -0.0854     CD =  0.01006   =>   CDf =  0.00634    CDp =  0.00372

 Side 1  free  transition at x/c =  0.7047   57
 Side 2  free  transition at x/c =  0.2073   29

  42   rms: 0.2604E-02   max: -.5719E-01   C at   29  2
       a = -3.000      CL =  0.1074
      Cm = -0.0854     CD =  0.01006   =>   CDf =  0.00634    CDp =  0.00372

 Side 1  free  transition at x/c =  0.7047   57
 Side 2  free  transition at x/c =  0.2073   29

  43   rms: 0.2607E-02   max: -.5726E-01   C at   29  2
       a = -3.000      CL =  0.1074
      Cm = -0.0854     CD =  0.01006   =>   CDf =  0.00634    CDp =  0.00372

 Side 1  free  transition at x/c =  0.7047   57
 Side 2  free  transition at x/c =  0.2073   29

  44   rms: 0.2606E-02   max: -.5726E-01   C at   29  2
       a = -3.000      CL =  0.1074
      Cm = -0.0854     CD =  0.01006   =>   CDf =  0.00634    CDp =  0.00372

 Side 1  free  transition at x/c =  0.7047   57
 Side 2  free  transition at x/c =  0.2073   29

  45   rms: 0.2605E-02   max: -.5723E-01   C at   29  2
       a = -3.000      CL =  0.1074
      Cm = -0.0854     CD =  0.01006   =>   CDf =  0.00634    CDp =  0.00372

 Side 1  free  transition at x/c =  0.7047   57
 Side 2  free  transition at x/c =  0.2073   29

  46   rms: 0.2605E-02   max: -.5723E-01   C at   29  2
       a = -3.000      CL =  0.1074
      Cm = -0.0854     CD =  0.01006   =>   CDf =  0.00634    CDp =  0.00372

 Side 1  free  transition at x/c =  0.7047   57
 Side 2  free  transition at x/c =  0.2073   29

  47   rms: 0.2607E-02   max: -.5727E-01   C at   29  2
       a = -3.000      CL =  0.1074
      Cm = -0.0854     CD =  0.01006   =>   CDf =  0.00634    CDp =  0.00372

 Side 1  free  transition at x/c =  0.7047   57
 Side 2  free  transition at x/c =  0.2073   29

  48   rms: 0.2607E-02   max: -.5727E-01   C at   29  2
       a = -3.000      CL =  0.1074
      Cm = -0.0854     CD =  0.01006   =>   CDf =  0.00634    CDp =  0.00372

 Side 1  free  transition at x/c =  0.7047   57
 Side 2  free  transition at x/c =  0.2073   29

  49   rms: 0.2609E-02   max: -.5732E-01   C at   29  2
       a = -3.000      CL =  0.1074
      Cm = -0.0854     CD =  0.01006   =>   CDf =  0.00634    CDp =  0.00372

 Side 1  free  transition at x/c =  0.7047   57
 Side 2  free  transition at x/c =  0.2073   29

  50   rms: 0.2606E-02   max: -.5724E-01   C at   29  2
       a = -3.000      CL =  0.1074
      Cm = -0.0854     CD =  0.01006   =>   CDf =  0.00634    CDp =  0.00372

 Side 1  free  transition at x/c =  0.7047   57
 Side 2  free  transition at x/c =  0.2073   29

  51   rms: 0.2607E-02   max: -.5727E-01   C at   29  2
       a = -3.000      CL =  0.1074
      Cm = -0.0854     CD =  0.01006   =>   CDf =  0.00634    CDp =  0.00372

 Side 1  free  transition at x/c =  0.7047   57
 Side 2  free  transition at x/c =  0.2073   29

  52   rms: 0.2605E-02   max: -.5724E-01   C at   29  2
       a = -3.000      CL =  0.1074
      Cm = -0.0854     CD =  0.01006   =>   CDf =  0.00634    CDp =  0.00372

 Side 1  free  transition at x/c =  0.7047   57
 Side 2  free  transition at x/c =  0.2073   29

  53   rms: 0.2604E-02   max: -.5719E-01   C at   29  2
       a = -3.000      CL =  0.1074
      Cm = -0.0854     CD =  0.01006   =>   CDf =  0.00634    CDp =  0.00372

 Side 1  free  transition at x/c =  0.7047   57
 Side 2  free  transition at x/c =  0.2073   29

  54   rms: 0.2609E-02   max: -.5731E-01   C at   29  2
       a = -3.000      CL =  0.1074
      Cm = -0.0854     CD =  0.01006   =>   CDf =  0.00634    CDp =  0.00372

 Side 1  free  transition at x/c =  0.7047   57
 Side 2  free  transition at x/c =  0.2073   29

  55   rms: 0.2608E-02   max: -.5730E-01   C at   29  2
       a = -3.000      CL =  0.1074
      Cm = -0.0854     CD =  0.01006   =>   CDf =  0.00634    CDp =  0.00372

 Side 1  free  transition at x/c =  0.7047   57
 Side 2  free  transition at x/c =  0.2073   29

  56   rms: 0.2607E-02   max: -.5727E-01   C at   29  2
       a = -3.000      CL =  0.1074
      Cm = -0.0854     CD =  0.01006   =>   CDf =  0.00634    CDp =  0.00372

 Side 1  free  transition at x/c =  0.7047   57
 Side 2  free  transition at x/c =  0.2073   29

  57   rms: 0.2607E-02   max: -.5727E-01   C at   29  2
       a = -3.000      CL =  0.1074
      Cm = -0.0854     CD =  0.01006   =>   CDf =  0.00634    CDp =  0.00372

 Side 1  free  transition at x/c =  0.7047   57
 Side 2  free  transition at x/c =  0.2073   29

  58   rms: 0.2605E-02   max: -.5722E-01   C at   29  2
       a = -3.000      CL =  0.1074
      Cm = -0.0854     CD =  0.01006   =>   CDf =  0.00634    CDp =  0.00372

 Side 1  free  transition at x/c =  0.7047   57
 Side 2  free  transition at x/c =  0.2073   29

  59   rms: 0.2606E-02   max: -.5725E-01   C at   29  2
       a = -3.000      CL =  0.1074
      Cm = -0.0854     CD =  0.01006   =>   CDf =  0.00634    CDp =  0.00372

 Side 1  free  transition at x/c =  0.7047   57
 Side 2  free  transition at x/c =  0.2073   29

  60   rms: 0.2606E-02   max: -.5725E-01   C at   29  2
       a = -3.000      CL =  0.1074
      Cm = -0.0854     CD =  0.01006   =>   CDf =  0.00634    CDp =  0.00372

 Side 1  free  transition at x/c =  0.7047   57
 Side 2  free  transition at x/c =  0.2073   29

  61   rms: 0.2606E-02   max: -.5725E-01   C at   29  2
       a = -3.000      CL =  0.1074
      Cm = -0.0854     CD =  0.01006   =>   CDf =  0.00634    CDp =  0.00372

 Side 1  free  transition at x/c =  0.7047   57
 Side 2  free  transition at x/c =  0.2073   29

  62   rms: 0.2606E-02   max: -.5724E-01   C at   29  2
       a = -3.000      CL =  0.1074
      Cm = -0.0854     CD =  0.01006   =>   CDf =  0.00634    CDp =  0.00372

 Side 1  free  transition at x/c =  0.7047   57
 Side 2  free  transition at x/c =  0.2073   29

  63   rms: 0.2607E-02   max: -.5727E-01   C at   29  2
       a = -3.000      CL =  0.1074
      Cm = -0.0854     CD =  0.01006   =>   CDf =  0.00634    CDp =  0.00372

 Side 1  free  transition at x/c =  0.7047   57
 Side 2  free  transition at x/c =  0.2073   29

  64   rms: 0.2606E-02   max: -.5725E-01   C at   29  2
       a = -3.000      CL =  0.1074
      Cm = -0.0854     CD =  0.01006   =>   CDf =  0.00634    CDp =  0.00372

 Side 1  free  transition at x/c =  0.7047   57
 Side 2  free  transition at x/c =  0.2073   29

  65   rms: 0.2610E-02   max: -.5733E-01   C at   29  2
       a = -3.000      CL =  0.1074
      Cm = -0.0854     CD =  0.01006   =>   CDf =  0.00634    CDp =  0.00372

 Side 1  free  transition at x/c =  0.7047   57
 Side 2  free  transition at x/c =  0.2073   29

  66   rms: 0.2607E-02   max: -.5728E-01   C at   29  2
       a = -3.000      CL =  0.1074
      Cm = -0.0854     CD =  0.01006   =>   CDf =  0.00634    CDp =  0.00372

 Side 1  free  transition at x/c =  0.7047   57
 Side 2  free  transition at x/c =  0.2073   29

  67   rms: 0.2604E-02   max: -.5720E-01   C at   29  2
       a = -3.000      CL =  0.1074
      Cm = -0.0854     CD =  0.01006   =>   CDf =  0.00634    CDp =  0.00372

 Side 1  free  transition at x/c =  0.7047   57
 Side 2  free  transition at x/c =  0.2073   29

  68   rms: 0.2607E-02   max: -.5727E-01   C at   29  2
       a = -3.000      CL =  0.1074
      Cm = -0.0854     CD =  0.01006   =>   CDf =  0.00634    CDp =  0.00372

 Side 1  free  transition at x/c =  0.7047   57
 Side 2  free  transition at x/c =  0.2073   29

  69   rms: 0.2608E-02   max: -.5730E-01   C at   29  2
       a = -3.000      CL =  0.1074
      Cm = -0.0854     CD =  0.01006   =>   CDf =  0.00634    CDp =  0.00372

 Side 1  free  transition at x/c =  0.7047   57
 Side 2  free  transition at x/c =  0.2073   29

  70   rms: 0.2610E-02   max: -.5733E-01   C at   29  2
       a = -3.000      CL =  0.1074
      Cm = -0.0854     CD =  0.01006   =>   CDf =  0.00634    CDp =  0.00372

 Side 1  free  transition at x/c =  0.7047   57
 Side 2  free  transition at x/c =  0.2073   29

  71   rms: 0.2609E-02   max: -.5733E-01   C at   29  2
       a = -3.000      CL =  0.1074
      Cm = -0.0854     CD =  0.01006   =>   CDf =  0.00634    CDp =  0.00372

 Side 1  free  transition at x/c =  0.7047   57
 Side 2  free  transition at x/c =  0.2073   29

  72   rms: 0.2607E-02   max: -.5728E-01   C at   29  2
       a = -3.000      CL =  0.1074
      Cm = -0.0854     CD =  0.01006   =>   CDf =  0.00634    CDp =  0.00372

 Side 1  free  transition at x/c =  0.7047   57
 Side 2  free  transition at x/c =  0.2073   29

  73   rms: 0.2607E-02   max: -.5727E-01   C at   29  2
       a = -3.000      CL =  0.1074
      Cm = -0.0854     CD =  0.01006   =>   CDf =  0.00634    CDp =  0.00372

 Side 1  free  transition at x/c =  0.7047   57
 Side 2  free  transition at x/c =  0.2073   29

  74   rms: 0.2607E-02   max: -.5727E-01   C at   29  2
       a = -3.000      CL =  0.1074
      Cm = -0.0854     CD =  0.01006   =>   CDf =  0.00634    CDp =  0.00372

 Side 1  free  transition at x/c =  0.7047   57
 Side 2  free  transition at x/c =  0.2073   29

  75   rms: 0.2607E-02   max: -.5728E-01   C at   29  2
       a = -3.000      CL =  0.1074
      Cm = -0.0854     CD =  0.01006   =>   CDf =  0.00634    CDp =  0.00372

 Side 1  free  transition at x/c =  0.7047   57
 Side 2  free  transition at x/c =  0.2073   29

  76   rms: 0.2606E-02   max: -.5725E-01   C at   29  2
       a = -3.000      CL =  0.1074
      Cm = -0.0854     CD =  0.01006   =>   CDf =  0.00634    CDp =  0.00372

 Side 1  free  transition at x/c =  0.7047   57
 Side 2  free  transition at x/c =  0.2073   29

  77   rms: 0.2608E-02   max: -.5730E-01   C at   29  2
       a = -3.000      CL =  0.1074
      Cm = -0.0854     CD =  0.01006   =>   CDf =  0.00634    CDp =  0.00372

 Side 1  free  transition at x/c =  0.7047   57
 Side 2  free  transition at x/c =  0.2073   29

  78   rms: 0.2607E-02   max: -.5727E-01   C at   29  2
       a = -3.000      CL =  0.1074
      Cm = -0.0854     CD =  0.01006   =>   CDf =  0.00634    CDp =  0.00372

 Side 1  free  transition at x/c =  0.7047   57
 Side 2  free  transition at x/c =  0.2073   29

  79   rms: 0.2607E-02   max: -.5728E-01   C at   29  2
       a = -3.000      CL =  0.1074
      Cm = -0.0854     CD =  0.01006   =>   CDf =  0.00634    CDp =  0.00372

 Side 1  free  transition at x/c =  0.7047   57
 Side 2  free  transition at x/c =  0.2073   29

  80   rms: 0.2608E-02   max: -.5729E-01   C at   29  2
       a = -3.000      CL =  0.1074
      Cm = -0.0854     CD =  0.01006   =>   CDf =  0.00634    CDp =  0.00372

 Side 1  free  transition at x/c =  0.7047   57
 Side 2  free  transition at x/c =  0.2073   29

  81   rms: 0.2605E-02   max: -.5722E-01   C at   29  2
       a = -3.000      CL =  0.1074
      Cm = -0.0854     CD =  0.01006   =>   CDf =  0.00634    CDp =  0.00372

 Side 1  free  transition at x/c =  0.7047   57
 Side 2  free  transition at x/c =  0.2073   29

  82   rms: 0.2605E-02   max: -.5723E-01   C at   29  2
       a = -3.000      CL =  0.1074
      Cm = -0.0854     CD =  0.01006   =>   CDf =  0.00634    CDp =  0.00372

 Side 1  free  transition at x/c =  0.7047   57
 Side 2  free  transition at x/c =  0.2073   29

  83   rms: 0.2608E-02   max: -.5729E-01   C at   29  2
       a = -3.000      CL =  0.1074
      Cm = -0.0854     CD =  0.01006   =>   CDf =  0.00634    CDp =  0.00372

 Side 1  free  transition at x/c =  0.7047   57
 Side 2  free  transition at x/c =  0.2073   29

  84   rms: 0.2608E-02   max: -.5730E-01   C at   29  2
       a = -3.000      CL =  0.1074
      Cm = -0.0854     CD =  0.01006   =>   CDf =  0.00634    CDp =  0.00372

 Side 1  free  transition at x/c =  0.7047   57
 Side 2  free  transition at x/c =  0.2073   29

  85   rms: 0.2605E-02   max: -.5723E-01   C at   29  2
       a = -3.000      CL =  0.1074
      Cm = -0.0854     CD =  0.01006   =>   CDf =  0.00634    CDp =  0.00372

 Side 1  free  transition at x/c =  0.7047   57
 Side 2  free  transition at x/c =  0.2073   29

  86   rms: 0.2607E-02   max: -.5728E-01   C at   29  2
       a = -3.000      CL =  0.1074
      Cm = -0.0854     CD =  0.01006   =>   CDf =  0.00634    CDp =  0.00372

 Side 1  free  transition at x/c =  0.7047   57
 Side 2  free  transition at x/c =  0.2073   29

  87   rms: 0.2609E-02   max: -.5731E-01   C at   29  2
       a = -3.000      CL =  0.1074
      Cm = -0.0854     CD =  0.01006   =>   CDf =  0.00634    CDp =  0.00372

 Side 1  free  transition at x/c =  0.7047   57
 Side 2  free  transition at x/c =  0.2073   29

  88   rms: 0.2608E-02   max: -.5729E-01   C at   29  2
       a = -3.000      CL =  0.1074
      Cm = -0.0854     CD =  0.01006   =>   CDf =  0.00634    CDp =  0.00372

 Side 1  free  transition at x/c =  0.7047   57
 Side 2  free  transition at x/c =  0.2073   29

  89   rms: 0.2606E-02   max: -.5724E-01   C at   29  2
       a = -3.000      CL =  0.1074
      Cm = -0.0854     CD =  0.01006   =>   CDf =  0.00634    CDp =  0.00372

 Side 1  free  transition at x/c =  0.7047   57
 Side 2  free  transition at x/c =  0.2073   29

  90   rms: 0.2605E-02   max: -.5724E-01   C at   29  2
       a = -3.000      CL =  0.1074
      Cm = -0.0854     CD =  0.01006   =>   CDf =  0.00634    CDp =  0.00372

 Side 1  free  transition at x/c =  0.7047   57
 Side 2  free  transition at x/c =  0.2073   29

  91   rms: 0.2606E-02   max: -.5725E-01   C at   29  2
       a = -3.000      CL =  0.1074
      Cm = -0.0854     CD =  0.01006   =>   CDf =  0.00634    CDp =  0.00372

 Side 1  free  transition at x/c =  0.7047   57
 Side 2  free  transition at x/c =  0.2073   29

  92   rms: 0.2610E-02   max: -.5734E-01   C at   29  2
       a = -3.000      CL =  0.1074
      Cm = -0.0854     CD =  0.01006   =>   CDf =  0.00634    CDp =  0.00372

 Side 1  free  transition at x/c =  0.7047   57
 Side 2  free  transition at x/c =  0.2073   29

  93   rms: 0.2604E-02   max: -.5720E-01   C at   29  2
       a = -3.000      CL =  0.1074
      Cm = -0.0854     CD =  0.01006   =>   CDf =  0.00634    CDp =  0.00372

 Side 1  free  transition at x/c =  0.7047   57
 Side 2  free  transition at x/c =  0.2073   29

  94   rms: 0.2607E-02   max: -.5727E-01   C at   29  2
       a = -3.000      CL =  0.1074
      Cm = -0.0854     CD =  0.01006   =>   CDf =  0.00634    CDp =  0.00372

 Side 1  free  transition at x/c =  0.7047   57
 Side 2  free  transition at x/c =  0.2073   29

  95   rms: 0.2607E-02   max: -.5727E-01   C at   29  2
       a = -3.000      CL =  0.1074
      Cm = -0.0854     CD =  0.01006   =>   CDf =  0.00634    CDp =  0.00372

 Side 1  free  transition at x/c =  0.7047   57
 Side 2  free  transition at x/c =  0.2073   29

  96   rms: 0.2606E-02   max: -.5725E-01   C at   29  2
       a = -3.000      CL =  0.1074
      Cm = -0.0854     CD =  0.01006   =>   CDf =  0.00634    CDp =  0.00372

 Side 1  free  transition at x/c =  0.7047   57
 Side 2  free  transition at x/c =  0.2073   29

  97   rms: 0.2605E-02   max: -.5723E-01   C at   29  2
       a = -3.000      CL =  0.1074
      Cm = -0.0854     CD =  0.01006   =>   CDf =  0.00634    CDp =  0.00372

 Side 1  free  transition at x/c =  0.7047   57
 Side 2  free  transition at x/c =  0.2073   29

  98   rms: 0.2606E-02   max: -.5726E-01   C at   29  2
       a = -3.000      CL =  0.1074
      Cm = -0.0854     CD =  0.01006   =>   CDf =  0.00634    CDp =  0.00372

 Side 1  free  transition at x/c =  0.7047   57
 Side 2  free  transition at x/c =  0.2073   29

  99   rms: 0.2607E-02   max: -.5728E-01   C at   29  2
       a = -3.000      CL =  0.1074
      Cm = -0.0854     CD =  0.01006   =>   CDf =  0.00634    CDp =  0.00372

 Side 1  free  transition at x/c =  0.7047   57
 Side 2  free  transition at x/c =  0.2073   29

 100   rms: 0.2606E-02   max: -.5726E-01   C at   29  2
       a = -3.000      CL =  0.1074
      Cm = -0.0854     CD =  0.01006   =>   CDf =  0.00634    CDp =  0.00372

 Side 1  free  transition at x/c =  0.7047   57
 Side 2  free  transition at x/c =  0.2073   29

 101   rms: 0.2605E-02   max: -.5724E-01   C at   29  2
       a = -3.000      CL =  0.1074
      Cm = -0.0854     CD =  0.01006   =>   CDf =  0.00634    CDp =  0.00372

 Side 1  free  transition at x/c =  0.7047   57
 Side 2  free  transition at x/c =  0.2073   29

 102   rms: 0.2606E-02   max: -.5726E-01   C at   29  2
       a = -3.000      CL =  0.1074
      Cm = -0.0854     CD =  0.01006   =>   CDf =  0.00634    CDp =  0.00372

 Side 1  free  transition at x/c =  0.7047   57
 Side 2  free  transition at x/c =  0.2073   29

 103   rms: 0.2608E-02   max: -.5729E-01   C at   29  2
       a = -3.000      CL =  0.1074
      Cm = -0.0854     CD =  0.01006   =>   CDf =  0.00634    CDp =  0.00372

 Side 1  free  transition at x/c =  0.7047   57
 Side 2  free  transition at x/c =  0.2073   29

 104   rms: 0.2605E-02   max: -.5722E-01   C at   29  2
       a = -3.000      CL =  0.1074
      Cm = -0.0854     CD =  0.01006   =>   CDf =  0.00634    CDp =  0.00372

 Side 1  free  transition at x/c =  0.7047   57
 Side 2  free  transition at x/c =  0.2073   29

 105   rms: 0.2607E-02   max: -.5727E-01   C at   29  2
       a = -3.000      CL =  0.1074
      Cm = -0.0854     CD =  0.01006   =>   CDf =  0.00634    CDp =  0.00372

 Side 1  free  transition at x/c =  0.7047   57
 Side 2  free  transition at x/c =  0.2073   29

 106   rms: 0.2607E-02   max: -.5728E-01   C at   29  2
       a = -3.000      CL =  0.1074
      Cm = -0.0854     CD =  0.01006   =>   CDf =  0.00634    CDp =  0.00372

 Side 1  free  transition at x/c =  0.7047   57
 Side 2  free  transition at x/c =  0.2073   29

 107   rms: 0.2604E-02   max: -.5720E-01   C at   29  2
       a = -3.000      CL =  0.1074
      Cm = -0.0854     CD =  0.01006   =>   CDf =  0.00634    CDp =  0.00372

 Side 1  free  transition at x/c =  0.7047   57
 Side 2  free  transition at x/c =  0.2073   29

 108   rms: 0.2605E-02   max: -.5723E-01   C at   29  2
       a = -3.000      CL =  0.1074
      Cm = -0.0854     CD =  0.01006   =>   CDf =  0.00634    CDp =  0.00372

 Side 1  free  transition at x/c =  0.7047   57
 Side 2  free  transition at x/c =  0.2073   29

 109   rms: 0.2608E-02   max: -.5729E-01   C at   29  2
       a = -3.000      CL =  0.1074
      Cm = -0.0854     CD =  0.01006   =>   CDf =  0.00634    CDp =  0.00372

 Side 1  free  transition at x/c =  0.7047   57
 Side 2  free  transition at x/c =  0.2073   29

 110   rms: 0.2606E-02   max: -.5724E-01   C at   29  2
       a = -3.000      CL =  0.1074
      Cm = -0.0854     CD =  0.01006   =>   CDf =  0.00634    CDp =  0.00372

 Side 1  free  transition at x/c =  0.7047   57
 Side 2  free  transition at x/c =  0.2073   29

 111   rms: 0.2605E-02   max: -.5722E-01   C at   29  2
       a = -3.000      CL =  0.1074
      Cm = -0.0854     CD =  0.01006   =>   CDf =  0.00634    CDp =  0.00372

 Side 1  free  transition at x/c =  0.7047   57
 Side 2  free  transition at x/c =  0.2073   29

 112   rms: 0.2606E-02   max: -.5724E-01   C at   29  2
       a = -3.000      CL =  0.1074
      Cm = -0.0854     CD =  0.01006   =>   CDf =  0.00634    CDp =  0.00372

 Side 1  free  transition at x/c =  0.7047   57
 Side 2  free  transition at x/c =  0.2073   29

 113   rms: 0.2605E-02   max: -.5723E-01   C at   29  2
       a = -3.000      CL =  0.1074
      Cm = -0.0854     CD =  0.01006   =>   CDf =  0.00634    CDp =  0.00372

 Side 1  free  transition at x/c =  0.7047   57
 Side 2  free  transition at x/c =  0.2073   29

 114   rms: 0.2610E-02   max: -.5733E-01   C at   29  2
       a = -3.000      CL =  0.1074
      Cm = -0.0854     CD =  0.01006   =>   CDf =  0.00634    CDp =  0.00372

 Side 1  free  transition at x/c =  0.7047   57
 Side 2  free  transition at x/c =  0.2073   29

 115   rms: 0.2607E-02   max: -.5726E-01   C at   29  2
       a = -3.000      CL =  0.1074
      Cm = -0.0854     CD =  0.01006   =>   CDf =  0.00634    CDp =  0.00372

 Side 1  free  transition at x/c =  0.7047   57
 Side 2  free  transition at x/c =  0.2073   29

 116   rms: 0.2608E-02   max: -.5731E-01   C at   29  2
       a = -3.000      CL =  0.1074
      Cm = -0.0854     CD =  0.01006   =>   CDf =  0.00634    CDp =  0.00372

 Side 1  free  transition at x/c =  0.7047   57
 Side 2  free  transition at x/c =  0.2073   29

 117   rms: 0.2605E-02   max: -.5723E-01   C at   29  2
       a = -3.000      CL =  0.1074
      Cm = -0.0854     CD =  0.01006   =>   CDf =  0.00634    CDp =  0.00372

 Side 1  free  transition at x/c =  0.7047   57
 Side 2  free  transition at x/c =  0.2073   29

 118   rms: 0.2605E-02   max: -.5723E-01   C at   29  2
       a = -3.000      CL =  0.1074
      Cm = -0.0854     CD =  0.01006   =>   CDf =  0.00634    CDp =  0.00372

 Side 1  free  transition at x/c =  0.7047   57
 Side 2  free  transition at x/c =  0.2073   29

 119   rms: 0.2607E-02   max: -.5727E-01   C at   29  2
       a = -3.000      CL =  0.1074
      Cm = -0.0854     CD =  0.01006   =>   CDf =  0.00634    CDp =  0.00372

 Side 1  free  transition at x/c =  0.7047   57
 Side 2  free  transition at x/c =  0.2073   29

 120   rms: 0.2606E-02   max: -.5726E-01   C at   29  2
       a = -3.000      CL =  0.1074
      Cm = -0.0854     CD =  0.01006   =>   CDf =  0.00634    CDp =  0.00372

 Side 1  free  transition at x/c =  0.7047   57
 Side 2  free  transition at x/c =  0.2073   29

 121   rms: 0.2606E-02   max: -.5725E-01   C at   29  2
       a = -3.000      CL =  0.1074
      Cm = -0.0854     CD =  0.01006   =>   CDf =  0.00634    CDp =  0.00372

 Side 1  free  transition at x/c =  0.7047   57
 Side 2  free  transition at x/c =  0.2073   29

 122   rms: 0.2607E-02   max: -.5727E-01   C at   29  2
       a = -3.000      CL =  0.1074
      Cm = -0.0854     CD =  0.01006   =>   CDf =  0.00634    CDp =  0.00372

 Side 1  free  transition at x/c =  0.7047   57
 Side 2  free  transition at x/c =  0.2073   29

 123   rms: 0.2605E-02   max: -.5723E-01   C at   29  2
       a = -3.000      CL =  0.1074
      Cm = -0.0854     CD =  0.01006   =>   CDf =  0.00634    CDp =  0.00372

 Side 1  free  transition at x/c =  0.7047   57
 Side 2  free  transition at x/c =  0.2073   29

 124   rms: 0.2606E-02   max: -.5724E-01   C at   29  2
       a = -3.000      CL =  0.1074
      Cm = -0.0854     CD =  0.01006   =>   CDf =  0.00634    CDp =  0.00372

 Side 1  free  transition at x/c =  0.7047   57
 Side 2  free  transition at x/c =  0.2073   29

 125   rms: 0.2608E-02   max: -.5729E-01   C at   29  2
       a = -3.000      CL =  0.1074
      Cm = -0.0854     CD =  0.01006   =>   CDf =  0.00634    CDp =  0.00372

 Side 1  free  transition at x/c =  0.7047   57
 Side 2  free  transition at x/c =  0.2073   29

 126   rms: 0.2607E-02   max: -.5727E-01   C at   29  2
       a = -3.000      CL =  0.1074
      Cm = -0.0854     CD =  0.01006   =>   CDf =  0.00634    CDp =  0.00372

 Side 1  free  transition at x/c =  0.7047   57
 Side 2  free  transition at x/c =  0.2073   29

 127   rms: 0.2607E-02   max: -.5728E-01   C at   29  2
       a = -3.000      CL =  0.1074
      Cm = -0.0854     CD =  0.01006   =>   CDf =  0.00634    CDp =  0.00372

 Side 1  free  transition at x/c =  0.7047   57
 Side 2  free  transition at x/c =  0.2073   29

 128   rms: 0.2607E-02   max: -.5727E-01   C at   29  2
       a = -3.000      CL =  0.1074
      Cm = -0.0854     CD =  0.01006   =>   CDf =  0.00634    CDp =  0.00372

 Side 1  free  transition at x/c =  0.7047   57
 Side 2  free  transition at x/c =  0.2073   29

 129   rms: 0.2607E-02   max: -.5728E-01   C at   29  2
       a = -3.000      CL =  0.1074
      Cm = -0.0854     CD =  0.01006   =>   CDf =  0.00634    CDp =  0.00372

 Side 1  free  transition at x/c =  0.7047   57
 Side 2  free  transition at x/c =  0.2073   29

 130   rms: 0.2606E-02   max: -.5725E-01   C at   29  2
       a = -3.000      CL =  0.1074
      Cm = -0.0854     CD =  0.01006   =>   CDf =  0.00634    CDp =  0.00372

 Side 1  free  transition at x/c =  0.7047   57
 Side 2  free  transition at x/c =  0.2073   29

 131   rms: 0.2608E-02   max: -.5729E-01   C at   29  2
       a = -3.000      CL =  0.1074
      Cm = -0.0854     CD =  0.01006   =>   CDf =  0.00634    CDp =  0.00372

 Side 1  free  transition at x/c =  0.7047   57
 Side 2  free  transition at x/c =  0.2073   29

 132   rms: 0.2606E-02   max: -.5726E-01   C at   29  2
       a = -3.000      CL =  0.1074
      Cm = -0.0854     CD =  0.01006   =>   CDf =  0.00634    CDp =  0.00372

 Side 1  free  transition at x/c =  0.7047   57
 Side 2  free  transition at x/c =  0.2073   29

 133   rms: 0.2606E-02   max: -.5726E-01   C at   29  2
       a = -3.000      CL =  0.1074
      Cm = -0.0854     CD =  0.01006   =>   CDf =  0.00634    CDp =  0.00372

 Side 1  free  transition at x/c =  0.7047   57
 Side 2  free  transition at x/c =  0.2073   29

 134   rms: 0.2608E-02   max: -.5730E-01   C at   29  2
       a = -3.000      CL =  0.1074
      Cm = -0.0854     CD =  0.01006   =>   CDf =  0.00634    CDp =  0.00372

 Side 1  free  transition at x/c =  0.7047   57
 Side 2  free  transition at x/c =  0.2073   29

 135   rms: 0.2606E-02   max: -.5725E-01   C at   29  2
       a = -3.000      CL =  0.1074
      Cm = -0.0854     CD =  0.01006   =>   CDf =  0.00634    CDp =  0.00372

 Side 1  free  transition at x/c =  0.7047   57
 Side 2  free  transition at x/c =  0.2073   29

 136   rms: 0.2606E-02   max: -.5724E-01   C at   29  2
       a = -3.000      CL =  0.1074
      Cm = -0.0854     CD =  0.01006   =>   CDf =  0.00634    CDp =  0.00372

 Side 1  free  transition at x/c =  0.7047   57
 Side 2  free  transition at x/c =  0.2073   29

 137   rms: 0.2605E-02   max: -.5723E-01   C at   29  2
       a = -3.000      CL =  0.1074
      Cm = -0.0854     CD =  0.01006   =>   CDf =  0.00634    CDp =  0.00372

 Side 1  free  transition at x/c =  0.7047   57
 Side 2  free  transition at x/c =  0.2073   29

 138   rms: 0.2606E-02   max: -.5724E-01   C at   29  2
       a = -3.000      CL =  0.1074
      Cm = -0.0854     CD =  0.01006   =>   CDf =  0.00634    CDp =  0.00372

 Side 1  free  transition at x/c =  0.7047   57
 Side 2  free  transition at x/c =  0.2073   29

 139   rms: 0.2608E-02   max: -.5729E-01   C at   29  2
       a = -3.000      CL =  0.1074
      Cm = -0.0854     CD =  0.01006   =>   CDf =  0.00634    CDp =  0.00372

 Side 1  free  transition at x/c =  0.7047   57
 Side 2  free  transition at x/c =  0.2073   29

 140   rms: 0.2606E-02   max: -.5726E-01   C at   29  2
       a = -3.000      CL =  0.1074
      Cm = -0.0854     CD =  0.01006   =>   CDf =  0.00634    CDp =  0.00372

 Side 1  free  transition at x/c =  0.7047   57
 Side 2  free  transition at x/c =  0.2073   29

 141   rms: 0.2605E-02   max: -.5724E-01   C at   29  2
       a = -3.000      CL =  0.1074
      Cm = -0.0854     CD =  0.01006   =>   CDf =  0.00634    CDp =  0.00372

 Side 1  free  transition at x/c =  0.7047   57
 Side 2  free  transition at x/c =  0.2073   29

 142   rms: 0.2606E-02   max: -.5725E-01   C at   29  2
       a = -3.000      CL =  0.1074
      Cm = -0.0854     CD =  0.01006   =>   CDf =  0.00634    CDp =  0.00372

 Side 1  free  transition at x/c =  0.7047   57
 Side 2  free  transition at x/c =  0.2073   29

 143   rms: 0.2606E-02   max: -.5726E-01   C at   29  2
       a = -3.000      CL =  0.1074
      Cm = -0.0854     CD =  0.01006   =>   CDf =  0.00634    CDp =  0.00372

 Side 1  free  transition at x/c =  0.7047   57
 Side 2  free  transition at x/c =  0.2073   29

 144   rms: 0.2606E-02   max: -.5726E-01   C at   29  2
       a = -3.000      CL =  0.1074
      Cm = -0.0854     CD =  0.01006   =>   CDf =  0.00634    CDp =  0.00372

 Side 1  free  transition at x/c =  0.7047   57
 Side 2  free  transition at x/c =  0.2073   29

 145   rms: 0.2607E-02   max: -.5728E-01   C at   29  2
       a = -3.000      CL =  0.1074
      Cm = -0.0854     CD =  0.01006   =>   CDf =  0.00634    CDp =  0.00372

 Side 1  free  transition at x/c =  0.7047   57
 Side 2  free  transition at x/c =  0.2073   29

 146   rms: 0.2607E-02   max: -.5726E-01   C at   29  2
       a = -3.000      CL =  0.1074
      Cm = -0.0854     CD =  0.01006   =>   CDf =  0.00634    CDp =  0.00372

 Side 1  free  transition at x/c =  0.7047   57
 Side 2  free  transition at x/c =  0.2073   29

 147   rms: 0.2603E-02   max: -.5719E-01   C at   29  2
       a = -3.000      CL =  0.1074
      Cm = -0.0854     CD =  0.01006   =>   CDf =  0.00634    CDp =  0.00372

 Side 1  free  transition at x/c =  0.7047   57
 Side 2  free  transition at x/c =  0.2073   29

 148   rms: 0.2605E-02   max: -.5722E-01   C at   29  2
       a = -3.000      CL =  0.1074
      Cm = -0.0854     CD =  0.01006   =>   CDf =  0.00634    CDp =  0.00372

 Side 1  free  transition at x/c =  0.7047   57
 Side 2  free  transition at x/c =  0.2073   29

 149   rms: 0.2607E-02   max: -.5727E-01   C at   29  2
       a = -3.000      CL =  0.1074
      Cm = -0.0854     CD =  0.01006   =>   CDf =  0.00634    CDp =  0.00372

 Side 1  free  transition at x/c =  0.7047   57
 Side 2  free  transition at x/c =  0.2073   29

 150   rms: 0.2608E-02   max: -.5729E-01   C at   29  2
       a = -3.000      CL =  0.1074
      Cm = -0.0854     CD =  0.01006   =>   CDf =  0.00634    CDp =  0.00372

 Side 1  free  transition at x/c =  0.7047   57
 Side 2  free  transition at x/c =  0.2073   29

 151   rms: 0.2606E-02   max: -.5725E-01   C at   29  2
       a = -3.000      CL =  0.1074
      Cm = -0.0854     CD =  0.01006   =>   CDf =  0.00634    CDp =  0.00372

 Side 1  free  transition at x/c =  0.7047   57
 Side 2  free  transition at x/c =  0.2073   29

 152   rms: 0.2606E-02   max: -.5725E-01   C at   29  2
       a = -3.000      CL =  0.1074
      Cm = -0.0854     CD =  0.01006   =>   CDf =  0.00634    CDp =  0.00372

 Side 1  free  transition at x/c =  0.7047   57
 Side 2  free  transition at x/c =  0.2073   29

 153   rms: 0.2607E-02   max: -.5727E-01   C at   29  2
       a = -3.000      CL =  0.1074
      Cm = -0.0854     CD =  0.01006   =>   CDf =  0.00634    CDp =  0.00372

 Side 1  free  transition at x/c =  0.7047   57
 Side 2  free  transition at x/c =  0.2073   29

 154   rms: 0.2610E-02   max: -.5734E-01   C at   29  2
       a = -3.000      CL =  0.1074
      Cm = -0.0854     CD =  0.01006   =>   CDf =  0.00634    CDp =  0.00372

 Side 1  free  transition at x/c =  0.7047   57
 Side 2  free  transition at x/c =  0.2073   29

 155   rms: 0.2606E-02   max: -.5726E-01   C at   29  2
       a = -3.000      CL =  0.1074
      Cm = -0.0854     CD =  0.01006   =>   CDf =  0.00634    CDp =  0.00372
 VISCAL:  Convergence failed
 Calculating wake trajectory ...
 Calculating source influence matrix ...

 Solving BL system ...

 Side 1  free  transition at x/c =  0.7047   57
 Side 2  free  transition at x/c =  0.2073   29

   1   rms: 0.6261E+00   max: -.1393E+02   C at   29  2   RLX: 0.036
       a = -2.500      CL =  0.1091
      Cm = -0.0854     CD =  0.01001   =>   CDf =  0.00634    CDp =  0.00367

 Side 1  free  transition at x/c =  0.7045   57
 Side 2  free  transition at x/c =  0.2212   30

   2   rms: 0.6144E+00   max: -.1359E+02   C at   30  2   RLX: 0.037
       a = -2.500      CL =  0.1107
      Cm = -0.0854     CD =  0.00994   =>   CDf =  0.00629    CDp =  0.00365

 Side 1  free  transition at x/c =  0.7044   57
 Side 2  free  transition at x/c =  0.2364   31

   3   rms: 0.6931E+00   max: -.1518E+02   C at   31  2   RLX: 0.033
       a = -2.500      CL =  0.1118
      Cm = -0.0854     CD =  0.00986   =>   CDf =  0.00623    CDp =  0.00363

 Side 1  free  transition at x/c =  0.7042   57
 Side 2  free  transition at x/c =  0.2496   32

   4   rms: 0.5980E+00   max: -.1304E+02   C at   32  2   RLX: 0.038
       a = -2.500      CL =  0.1133
      Cm = -0.0854     CD =  0.00979   =>   CDf =  0.00618    CDp =  0.00361

 Side 1  free  transition at x/c =  0.7041   57
 Side 2  free  transition at x/c =  0.2652   33

   5   rms: 0.5833E+00   max: -.1260E+02   C at   33  2   RLX: 0.040
       a = -2.500      CL =  0.1146
      Cm = -0.0854     CD =  0.00971   =>   CDf =  0.00612    CDp =  0.00359

 Side 1  free  transition at x/c =  0.7040   57
 Side 2  free  transition at x/c =  0.2813   34

   6   rms: 0.5852E+00   max: -.1251E+02   C at   34  2   RLX: 0.040
       a = -2.500      CL =  0.1159
      Cm = -0.0853     CD =  0.00964   =>   CDf =  0.00607    CDp =  0.00357

 Side 1  free  transition at x/c =  0.7038   57
 Side 2  free  transition at x/c =  0.2974   35

   7   rms: 0.5507E+00   max: -.1165E+02   C at   35  2   RLX: 0.043
       a = -2.500      CL =  0.1173
      Cm = -0.0853     CD =  0.00956   =>   CDf =  0.00601    CDp =  0.00355

 Side 1  free  transition at x/c =  0.7037   57
 Side 2  free  transition at x/c =  0.3149   37

   8   rms: 0.5575E+00   max: -.1170E+02   C at   37  2   RLX: 0.043
       a = -2.500      CL =  0.1183
      Cm = -0.0853     CD =  0.00945   =>   CDf =  0.00594    CDp =  0.00351

 Side 1  free  transition at x/c =  0.7036   57
 Side 2  free  transition at x/c =  0.3267   37

   9   rms: 0.5619E+00   max: -.1176E+02   C at   37  2   RLX: 0.043
       a = -2.500      CL =  0.1199
      Cm = -0.0853     CD =  0.00941   =>   CDf =  0.00590    CDp =  0.00351

 Side 1  free  transition at x/c =  0.7035   57
 Side 2  free  transition at x/c =  0.3406   38

  10   rms: 0.5609E+00   max: -.1171E+02   C at   38  2   RLX: 0.043
       a = -2.500      CL =  0.1211
      Cm = -0.0853     CD =  0.00934   =>   CDf =  0.00585    CDp =  0.00349

 Side 1  free  transition at x/c =  0.7033   57
 Side 2  free  transition at x/c =  0.3549   39

  11   rms: 0.5591E+00   max: -.1162E+02   C at   39  2   RLX: 0.043
       a = -2.500      CL =  0.1223
      Cm = -0.0853     CD =  0.00927   =>   CDf =  0.00579    CDp =  0.00347

 Side 1  free  transition at x/c =  0.7032   57
 Side 2  free  transition at x/c =  0.3693   40

  12   rms: 0.5188E+00   max: -.1078E+02   C at   40  2   RLX: 0.046
       a = -2.500      CL =  0.1235
      Cm = -0.0852     CD =  0.00920   =>   CDf =  0.00574    CDp =  0.00345

 Side 1  free  transition at x/c =  0.7031   57
 Side 2  free  transition at x/c =  0.3848   41

  13   rms: 0.4892E+00   max: -.1009E+02   C at   41  2   RLX: 0.050
       a = -2.500      CL =  0.1247
      Cm = -0.0852     CD =  0.00912   =>   CDf =  0.00569    CDp =  0.00343

 Side 1  free  transition at x/c =  0.7030   57
 Side 2  free  transition at x/c =  0.4010   42

  14   rms: 0.4616E+00   max: -.9427E+01   C at   42  2   RLX: 0.053
       a = -2.500      CL =  0.1259
      Cm = -0.0852     CD =  0.00904   =>   CDf =  0.00563    CDp =  0.00342

 Side 1  free  transition at x/c =  0.7029   57
 Side 2  free  transition at x/c =  0.4177   43

  15   rms: 0.4113E+00   max: -.8293E+01   C at   43  2   RLX: 0.060
       a = -2.500      CL =  0.1272
      Cm = -0.0852     CD =  0.00897   =>   CDf =  0.00557    CDp =  0.00340

 Side 1  free  transition at x/c =  0.7028   57
 Side 2  free  transition at x/c =  0.4367   45

  16   rms: 0.4045E+00   max: -.8234E+01   C at   45  2   RLX: 0.061
       a = -2.500      CL =  0.1282
      Cm = -0.0851     CD =  0.00885   =>   CDf =  0.00550    CDp =  0.00335

 Side 1  free  transition at x/c =  0.7027   57
 SETBL: Xtr???  n1 n2:    8.9029417       8.9999876    
 Side 2  free  transition at x/c =  0.4367   45

  17   rms: 0.1196E+01   max: -.2344E+02   C at   45  2   RLX: 0.021
       a = -2.500      CL =  0.1286
      Cm = -0.0851     CD =  0.00881   =>   CDf =  0.00546    CDp =  0.00335

 Side 1  free  transition at x/c =  0.7026   57
 Side 2  free  transition at x/c =  0.4503   46

  18   rms: 0.3331E+00   max: -.6704E+01   C at   46  2   RLX: 0.075
       a = -2.500      CL =  0.1301
      Cm = -0.0851     CD =  0.00878   =>   CDf =  0.00546    CDp =  0.00332

 Side 1  free  transition at x/c =  0.7025   57
 Side 2  free  transition at x/c =  0.4630   46

  19   rms: 0.3491E+00   max: -.6949E+01   C at   46  2   RLX: 0.072
       a = -2.500      CL =  0.1316
      Cm = -0.0852     CD =  0.00874   =>   CDf =  0.00541    CDp =  0.00333

 Side 1  free  transition at x/c =  0.7024   57
 Side 2  free  transition at x/c =  0.4782   47

  20   rms: 0.4306E+00   max: -.8404E+01   C at   47  2   RLX: 0.059
       a = -2.500      CL =  0.1325
      Cm = -0.0851     CD =  0.00866   =>   CDf =  0.00534    CDp =  0.00331

 Side 1  free  transition at x/c =  0.7023   57
 Side 2  free  transition at x/c =  0.4906   48

  21   rms: 0.3915E+00   max: -.7713E+01   C at   48  2   RLX: 0.065
       a = -2.500      CL =  0.1335
      Cm = -0.0851     CD =  0.00859   =>   CDf =  0.00530    CDp =  0.00329

 Side 1  free  transition at x/c =  0.7022   57
 Side 2  free  transition at x/c =  0.5046   49

  22   rms: 0.3282E+00   max: -.6484E+01   C at   49  2   RLX: 0.077
       a = -2.500      CL =  0.1347
      Cm = -0.0851     CD =  0.00852   =>   CDf =  0.00525    CDp =  0.00327

 Side 1  free  transition at x/c =  0.7021   57
 Side 2  free  transition at x/c =  0.5215   50

  23   rms: 0.2839E+00   max: -.5558E+01   C at   50  2   RLX: 0.090
       a = -2.500      CL =  0.1358
      Cm = -0.0851     CD =  0.00845   =>   CDf =  0.00519    CDp =  0.00326

 Side 1  free  transition at x/c =  0.7020   57
 Side 2  free  transition at x/c =  0.5402   52

  24   rms: 0.2618E+00   max: -.5184E+01   C at   52  2   RLX: 0.096
       a = -2.500      CL =  0.1367
      Cm = -0.0850     CD =  0.00834   =>   CDf =  0.00512    CDp =  0.00321

 Side 1  free  transition at x/c =  0.7019   57
 Side 2  free  transition at x/c =  0.5535   52

  25   rms: 0.2456E+00   max: -.4733E+01   C at   52  2   RLX: 0.106
       a = -2.500      CL =  0.1380
      Cm = -0.0850     CD =  0.00830   =>   CDf =  0.00507    CDp =  0.00322

 Side 1  free  transition at x/c =  0.7018   57
 Side 2  free  transition at x/c =  0.5696   53

  26   rms: 0.2058E+00   max: -.3938E+01   C at   53  2   RLX: 0.127
       a = -2.500      CL =  0.1392
      Cm = -0.0850     CD =  0.00822   =>   CDf =  0.00502    CDp =  0.00321

 Side 1  free  transition at x/c =  0.7017   57
 Side 2  free  transition at x/c =  0.5897   55

  27   rms: 0.1832E+00   max: -.3588E+01   C at   55  2   RLX: 0.139
       a = -2.500      CL =  0.1400
      Cm = -0.0848     CD =  0.00812   =>   CDf =  0.00493    CDp =  0.00318

 Side 1  free  transition at x/c =  0.7016   57
 Side 2  free  transition at x/c =  0.6058   56

  28   rms: 0.1478E+00   max: -.2883E+01   C at   56  2   RLX: 0.173
       a = -2.500      CL =  0.1411
      Cm = -0.0848     CD =  0.00805   =>   CDf =  0.00487    CDp =  0.00318

 Side 1  free  transition at x/c =  0.7015   57
 Side 2  free  transition at x/c =  0.6235   57

  29   rms: 0.1128E+00   max: -.2181E+01   C at   57  2   RLX: 0.229
       a = -2.500      CL =  0.1423
      Cm = -0.0846     CD =  0.00799   =>   CDf =  0.00480    CDp =  0.00318

 Side 1  free  transition at x/c =  0.7013   57
 Side 2  free  transition at x/c =  0.6428   58

  30   rms: 0.7209E-01   max: -.1373E+01   C at   58  2   RLX: 0.364
       a = -2.500      CL =  0.1439
      Cm = -0.0845     CD =  0.00793   =>   CDf =  0.00473    CDp =  0.00320

 Side 1  free  transition at x/c =  0.7012   57
 Side 2  free  transition at x/c =  0.6675   60

  31   rms: 0.3205E-01   max: -.6074E+00   C at   60  2   RLX: 0.823
       a = -2.500      CL =  0.1458
      Cm = -0.0841     CD =  0.00787   =>   CDf =  0.00463    CDp =  0.00324

 Side 1  free  transition at x/c =  0.7010   57
 Side 2  free  transition at x/c =  0.6870   61

  32   rms: 0.3754E-02   max: -.6185E-01   C at   61  2
       a = -2.500      CL =  0.1464
      Cm = -0.0841     CD =  0.00788   =>   CDf =  0.00456    CDp =  0.00332

 Side 1  free  transition at x/c =  0.7009   57
 Side 2  free  transition at x/c =  0.6908   62

  33   rms: 0.2126E-02   max: 0.3818E-01   C at   62  2
       a = -2.500      CL =  0.1464
      Cm = -0.0841     CD =  0.00788   =>   CDf =  0.00454    CDp =  0.00334

 Side 1  free  transition at x/c =  0.7009   57
 Side 2  free  transition at x/c =  0.6899   62

  34   rms: 0.2256E-04   max: -.4182E-03   C at   62  2
       a = -2.500      CL =  0.1464
      Cm = -0.0841     CD =  0.00788   =>   CDf =  0.00455    CDp =  0.00333
 plradd ia,ip,cpol            3           0  1.83917175E-03

 Point added to stored polar  1
 Point written to save file  ah83159_Re600k.base.pol                         
 Dump file unspecified or not available
 Calculating wake trajectory ...
 Calculating source influence matrix ...

 Solving BL system ...

 Side 1  free  transition at x/c =  0.7009   57
 Side 2  free  transition at x/c =  0.6899   62

   1   rms: 0.3886E+00   max: -.7011E+01   C at   62  2   RLX: 0.071
       a = -2.000      CL =  0.1492
      Cm = -0.0838     CD =  0.00786   =>   CDf =  0.00455    CDp =  0.00331

 Side 1  free  transition at x/c =  0.7007   57
 Side 2  free  transition at x/c =  0.7033   62

   2   rms: 0.1773E+00   max: -.2836E+01   C at   62  2   RLX: 0.176
       a = -2.000      CL =  0.1586
      Cm = -0.0840     CD =  0.00787   =>   CDf =  0.00452    CDp =  0.00335

 Side 1  free  transition at x/c =  0.7001   57
 Side 2  free  transition at x/c =  0.7444   65

   3   rms: 0.1026E+00   max: 0.6405E+00   C at   66  2
       a = -2.000      CL =  0.2050
      Cm = -0.0850     CD =  0.00798   =>   CDf =  0.00443    CDp =  0.00355

 MRCHDU: Convergence failed at  67  side 2    Res =  0.2757E+01
 MRCHDU: Convergence failed at  68  side 2    Res =  0.3135E+01
 MRCHDU: Convergence failed at  69  side 2    Res =  0.2315E+01
 MRCHDU: Convergence failed at  70  side 2    Res =  0.2481E+01
 MRCHDU: Convergence failed at  71  side 2    Res =  0.3441E+01
 MRCHDU: Convergence failed at  72  side 2    Res =  0.3933E+01
 MRCHDU: Convergence failed at  73  side 2    Res =  0.4208E+01
 MRCHDU: Convergence failed at  74  side 2    Res =  0.4287E+01
 MRCHDU: Convergence failed at  75  side 2    Res =  0.3872E+01
 MRCHDU: Convergence failed at  76  side 2    Res =  0.4509E+01
 MRCHDU: Convergence failed at  77  side 2    Res =  0.3666E+01
 MRCHDU: Convergence failed at  78  side 2    Res =  0.3752E+01
 MRCHDU: Convergence failed at  79  side 2    Res =  0.3903E+01
 MRCHDU: Convergence failed at  80  side 2    Res =  0.4114E+01
 MRCHDU: Convergence failed at  81  side 2    Res =  0.4467E+01
 MRCHDU: Convergence failed at  82  side 2    Res =  0.4702E+01
 MRCHDU: Convergence failed at  83  side 2    Res =  0.3999E+01
 Side 1  free  transition at x/c =  0.6976   57
 Side 2  free  transition at x/c =  0.9100   76

   4   rms: 0.3617E+00   max: 0.3407E+01   C at   76  2   RLX: 0.272
       a = -2.000      CL =  0.1721
      Cm = -0.0534     CD =  0.00649   =>   CDf =  0.00438    CDp =  0.00211

 Side 1  free  transition at x/c =  0.6977   57
 Side 2  free  transition at x/c =  0.8414   71

   5   rms: 0.1930E+00   max: 0.1374E+01   T at   72  2
       a = -2.000      CL =  0.1929
      Cm = -0.0816     CD =  0.00780   =>   CDf =  0.00472    CDp =  0.00308

 MRCHDU: Convergence failed at  71  side 2    Res =  0.1771E+02
 MRCHDU: Convergence failed at  72  side 2    Res =  0.9287E+01
 MRCHDU: Convergence failed at  73  side 2    Res =  0.6177E+01
 MRCHDU: Convergence failed at  74  side 2    Res =  0.6658E+01
 MRCHDU: Convergence failed at  75  side 2    Res =  0.7594E+01
 MRCHDU: Convergence failed at  76  side 2    Res =  0.9127E+01
 MRCHDU: Convergence failed at  77  side 2    Res =  0.9046E+01
 MRCHDU: Convergence failed at  78  side 2    Res =  0.7880E+01
 MRCHDU: Convergence failed at  79  side 2    Res =  0.5769E+01
 MRCHDU: Convergence failed at  80  side 2    Res =  0.4636E+01
 MRCHDU: Convergence failed at  81  side 2    Res =  0.3130E+01
 MRCHDU: Convergence failed at  82  side 2    Res =  0.2553E+01
 MRCHDU: Convergence failed at  83  side 2    Res =  0.4469E+01
 Side 1  free  transition at x/c =  0.6972   57
 Side 2  free  transition at x/c =  0.7829   67

   6   rms: 0.1133E+00   max: 0.5100E+00   T at   81  2
       a = -2.000      CL =  0.2127
      Cm = -0.0844     CD =  0.00848   =>   CDf =  0.00418    CDp =  0.00430

 Side 1  free  transition at x/c =  0.6976   57
 Side 2  free  transition at x/c =  0.7678   66

   7   rms: 0.7473E-01   max: -.6859E+00   D at   72  2   RLX: 0.729
       a = -2.000      CL =  0.2078
      Cm = -0.0852     CD =  0.00843   =>   CDf =  0.00449    CDp =  0.00394

 MRCHDU: Convergence failed at  69  side 2    Res =  0.2034E+01
 MRCHDU: Convergence failed at  70  side 2    Res =  0.1131E+04
 MRCHDU: Convergence failed at  71  side 2    Res =  0.3795E+03
 MRCHDU: Convergence failed at  72  side 2    Res =  0.1850E+02
 MRCHDU: Convergence failed at  73  side 2    Res =  0.4042E+01
 MRCHDU: Convergence failed at  74  side 2    Res =  0.3331E+01
 MRCHDU: Convergence failed at  75  side 2    Res =  0.2933E+01
 MRCHDU: Convergence failed at  76  side 2    Res =  0.2618E+01
 MRCHDU: Convergence failed at  77  side 2    Res =  0.2464E+01
 MRCHDU: Convergence failed at  78  side 2    Res =  0.2314E+01
 MRCHDU: Convergence failed at  79  side 2    Res =  0.2177E+01
 MRCHDU: Convergence failed at  80  side 2    Res =  0.2039E+01
 MRCHDU: Convergence failed at  81  side 2    Res =  0.2436E+01
 MRCHDU: Convergence failed at  82  side 2    Res =  0.2647E+01
 MRCHDU: Convergence failed at  83  side 2    Res =  0.2707E+01
 Side 1  free  transition at x/c =  0.6973   57
 Side 2  free  transition at x/c =  0.7873   67

   8   rms: 0.1700E+00   max: 0.8670E+00   T at   77  2
       a = -2.000      CL =  0.2198
      Cm = -0.0871     CD =  0.00747   =>   CDf =  0.00427    CDp =  0.00320

 Side 1  free  transition at x/c =  0.6975   57
 Side 2  free  transition at x/c =  0.7797   67

   9   rms: 0.2686E-01   max: -.2445E+00   D at   72  2
       a = -2.000      CL =  0.2008
      Cm = -0.0834     CD =  0.00836   =>   CDf =  0.00447    CDp =  0.00389

 Side 1  free  transition at x/c =  0.6972   57
 Side 2  free  transition at x/c =  0.7786   67

  10   rms: 0.2431E-02   max: -.4061E-01   D at   72  2
       a = -2.000      CL =  0.2005
      Cm = -0.0833     CD =  0.00837   =>   CDf =  0.00445    CDp =  0.00392

 Side 1  free  transition at x/c =  0.6972   57
 Side 2  free  transition at x/c =  0.7782   67

  11   rms: 0.6297E-04   max: -.1137E-02   D at   72  2
       a = -2.000      CL =  0.2005
      Cm = -0.0833     CD =  0.00836   =>   CDf =  0.00445    CDp =  0.00391
 plradd ia,ip,cpol            4           0  1.83917175E-03

 Point added to stored polar  1
 Point written to save file  ah83159_Re600k.base.pol                         
 Dump file unspecified or not available
 Calculating wake trajectory ...
 Calculating source influence matrix ...

 Solving BL system ...

 Side 1  free  transition at x/c =  0.6972   57
 Side 2  free  transition at x/c =  0.7782   67

   1   rms: 0.1123E+00   max: 0.5580E+00   D at   68  2
       a = -1.500      CL =  0.2544
      Cm = -0.0824     CD =  0.00897   =>   CDf =  0.00445    CDp =  0.00452

 Side 1  free  transition at x/c =  0.6931   57
 Side 2  free  transition at x/c =  0.7972   68

   2   rms: 0.8164E-02   max: -.9266E-01   T at   68  2
       a = -1.500      CL =  0.2559
      Cm = -0.0829     CD =  0.00896   =>   CDf =  0.00449    CDp =  0.00447

 Side 1  free  transition at x/c =  0.6931   57
 Side 2  free  transition at x/c =  0.8013   68

   3   rms: 0.2669E-02   max: -.2718E-01   D at   70  2
       a = -1.500      CL =  0.2561
      Cm = -0.0830     CD =  0.00895   =>   CDf =  0.00450    CDp =  0.00445

 Side 1  free  transition at x/c =  0.6931   57
 Side 2  free  transition at x/c =  0.8019   68

   4   rms: 0.4816E-04   max: -.6137E-03   D at   69  2
       a = -1.500      CL =  0.2561
      Cm = -0.0830     CD =  0.00895   =>   CDf =  0.00451    CDp =  0.00444
 plradd ia,ip,cpol            5           0  0.44040519    

 Point added to stored polar  1
 Point written to save file  ah83159_Re600k.base.pol                         
 Dump file unspecified or not available
 Calculating wake trajectory ...
 Calculating source influence matrix ...

 Solving BL system ...

 Side 1  free  transition at x/c =  0.6931   57
 Side 2  free  transition at x/c =  0.8019   68

   1   rms: 0.1129E+00   max: -.9276E+00   T at   68  2   RLX: 0.539
       a = -1.000      CL =  0.2885
      Cm = -0.0838     CD =  0.00917   =>   CDf =  0.00455    CDp =  0.00462

 MRCHDU: Convergence failed at  69  side 2    Res =  0.3867E+01
 MRCHDU: Convergence failed at  70  side 2    Res =  0.8738E+01
 MRCHDU: Convergence failed at  71  side 2    Res =  0.5532E+02
 MRCHDU: Convergence failed at  72  side 2    Res =  0.1293E+02
 MRCHDU: Convergence failed at  73  side 2    Res =  0.8854E+01
 MRCHDU: Convergence failed at  74  side 2    Res =  0.7469E+01
 MRCHDU: Convergence failed at  75  side 2    Res =  0.6844E+01
 MRCHDU: Convergence failed at  76  side 2    Res =  0.6256E+01
 MRCHDU: Convergence failed at  77  side 2    Res =  0.9347E+01
 MRCHDU: Convergence failed at  78  side 2    Res =  0.1080E+02
 MRCHDU: Convergence failed at  79  side 2    Res =  0.1239E+02
 MRCHDU: Convergence failed at  80  side 2    Res =  0.1362E+02
 MRCHDU: Convergence failed at  81  side 2    Res =  0.1326E+02
 MRCHDU: Convergence failed at  82  side 2    Res =  0.1179E+02
 Side 1  free  transition at x/c =  0.6907   58
 Side 2  free  transition at x/c =  0.8207   69

   2   rms: 0.2706E+00   max: 0.1608E+01   T at   77  2   RLX: 0.933
       a = -1.000      CL =  0.3121
      Cm = -0.0806     CD =  0.00779   =>   CDf =  0.00432    CDp =  0.00347

 Side 1  free  transition at x/c =  0.6893   58
 Side 2  free  transition at x/c =  0.8172   68

   3   rms: 0.2593E+00   max: -.2488E+01   T at   68  2   RLX: 0.201
       a = -1.000      CL =  0.3254
      Cm = -0.0857     CD =  0.01030   =>   CDf =  0.00449    CDp =  0.00581

 Side 1  free  transition at x/c =  0.6893   58
 Side 2  free  transition at x/c =  0.8307   69

   4   rms: 0.8012E-01   max: 0.7420E+00   T at   69  2
       a = -1.000      CL =  0.3034
      Cm = -0.0797     CD =  0.01002   =>   CDf =  0.00456    CDp =  0.00546

 Side 1  free  transition at x/c =  0.6890   58
 Side 2  free  transition at x/c =  0.8116   68

   5   rms: 0.4267E-01   max: -.3692E+00   D at   72  2
       a = -1.000      CL =  0.3099
      Cm = -0.0820     CD =  0.00984   =>   CDf =  0.00451    CDp =  0.00533

 Side 1  free  transition at x/c =  0.6890   58
 Side 2  free  transition at x/c =  0.8200   69

   6   rms: 0.1632E-01   max: 0.1072E+00   D at   70  2
       a = -1.000      CL =  0.3095
      Cm = -0.0819     CD =  0.00967   =>   CDf =  0.00456    CDp =  0.00511

 Side 1  free  transition at x/c =  0.6890   58
 Side 2  free  transition at x/c =  0.8195   69

   7   rms: 0.3659E-03   max: 0.3639E-02   T at   69  2
       a = -1.000      CL =  0.3096
      Cm = -0.0819     CD =  0.00969   =>   CDf =  0.00455    CDp =  0.00513

 Side 1  free  transition at x/c =  0.6890   58
 Side 2  free  transition at x/c =  0.8194   69

   8   rms: 0.1928E-05   max: -.2235E-04   D at   74  2
       a = -1.000      CL =  0.3096
      Cm = -0.0819     CD =  0.00969   =>   CDf =  0.00456    CDp =  0.00513
 plradd ia,ip,cpol            6           0  0.44040519    

 Point added to stored polar  1
 Point written to save file  ah83159_Re600k.base.pol                         
 Dump file unspecified or not available
 Calculating wake trajectory ...
 Calculating source influence matrix ...

 Solving BL system ...

 Side 1  free  transition at x/c =  0.6890   58
 Side 2  free  transition at x/c =  0.8194   69

   1   rms: 0.1056E+00   max: 0.4671E+00   D at   72  2
       a = -0.500      CL =  0.3576
      Cm = -0.0790     CD =  0.01033   =>   CDf =  0.00459    CDp =  0.00574

 Side 1  free  transition at x/c =  0.6853   59
 Side 2  free  transition at x/c =  0.8222   68

   2   rms: 0.5934E-01   max: -.4601E+00   D at   68  2
       a = -0.500      CL =  0.3624
      Cm = -0.0806     CD =  0.01055   =>   CDf =  0.00455    CDp =  0.00600

 Side 1  free  transition at x/c =  0.6854   59
 Side 2  free  transition at x/c =  0.8287   68

   3   rms: 0.7455E-02   max: -.6498E-01   D at   68  2
       a = -0.500      CL =  0.3623
      Cm = -0.0807     CD =  0.01024   =>   CDf =  0.00461    CDp =  0.00563

 Side 1  free  transition at x/c =  0.6854   59
 Side 2  free  transition at x/c =  0.8300   68

   4   rms: 0.4368E-03   max: -.3609E-02   D at   71  2
       a = -0.500      CL =  0.3623
      Cm = -0.0807     CD =  0.01023   =>   CDf =  0.00462    CDp =  0.00561

 Side 1  free  transition at x/c =  0.6854   59
 Side 2  free  transition at x/c =  0.8301   68

   5   rms: 0.2256E-05   max: -.1756E-04   D at    4  1
       a = -0.500      CL =  0.3623
      Cm = -0.0807     CD =  0.01023   =>   CDf =  0.00462    CDp =  0.00561
 plradd ia,ip,cpol            7           0  0.44040519    

 Point added to stored polar  1
 Point written to save file  ah83159_Re600k.base.pol                         
 Dump file unspecified or not available
 Calculating wake trajectory ...
 Calculating source influence matrix ...

 Solving BL system ...

 Side 1  free  transition at x/c =  0.6854   59
 Side 2  free  transition at x/c =  0.8301   68

   1   rms: 0.8783E-01   max: -.7634E+00   T at   68  2   RLX: 0.655
       a =  0.000      CL =  0.4016
      Cm = -0.0816     CD =  0.01048   =>   CDf =  0.00462    CDp =  0.00585

 Side 1  free  transition at x/c =  0.6832   58
 Side 2  free  transition at x/c =  0.8394   69

   2   rms: 0.7238E-01   max: 0.5487E+00   D at   71  2
       a =  0.000      CL =  0.4149
      Cm = -0.0800     CD =  0.01050   =>   CDf =  0.00470    CDp =  0.00580

 Side 1  free  transition at x/c =  0.6814   58
 Side 2  free  transition at x/c =  0.8380   69

   3   rms: 0.6584E-02   max: 0.7106E-01   D at   71  2
       a =  0.000      CL =  0.4145
      Cm = -0.0799     CD =  0.01050   =>   CDf =  0.00465    CDp =  0.00585

 Side 1  free  transition at x/c =  0.6814   58
 Side 2  free  transition at x/c =  0.8377   69

   4   rms: 0.1839E-03   max: 0.3862E-02   D at   72  2
       a =  0.000      CL =  0.4145
      Cm = -0.0799     CD =  0.01051   =>   CDf =  0.00464    CDp =  0.00587

 Side 1  free  transition at x/c =  0.6814   58
 Side 2  free  transition at x/c =  0.8377   69

   5   rms: 0.8404E-06   max: -.5684E-05   D at   69  2
       a =  0.000      CL =  0.4145
      Cm = -0.0799     CD =  0.01051   =>   CDf =  0.00464    CDp =  0.00587
 plradd ia,ip,cpol            8           0  0.42591771    

 Point added to stored polar  1
 Point written to save file  ah83159_Re600k.base.pol                         
 Dump file unspecified or not available
 Calculating wake trajectory ...
 Calculating source influence matrix ...

 Solving BL system ...

 Side 1  free  transition at x/c =  0.6814   58
 Side 2  free  transition at x/c =  0.8377   69

   1   rms: 0.7485E-01   max: -.3000E+00   T at   69  2
       a =  0.500      CL =  0.4657
      Cm = -0.0789     CD =  0.01070   =>   CDf =  0.00466    CDp =  0.00604

 Side 1  free  transition at x/c =  0.6765   59
 Side 2  free  transition at x/c =  0.8419   68

   2   rms: 0.3037E-01   max: -.1822E+00   D at   68  2
       a =  0.500      CL =  0.4696
      Cm = -0.0801     CD =  0.01073   =>   CDf =  0.00464    CDp =  0.00609

 Side 1  free  transition at x/c =  0.6769   59
 Side 2  free  transition at x/c =  0.8450   68

   3   rms: 0.3017E-02   max: -.2917E-01   D at   71  2
       a =  0.500      CL =  0.4700
      Cm = -0.0802     CD =  0.01065   =>   CDf =  0.00467    CDp =  0.00598

 Side 1  free  transition at x/c =  0.6769   59
 Side 2  free  transition at x/c =  0.8455   68

   4   rms: 0.1350E-03   max: -.1325E-02   D at   71  2
       a =  0.500      CL =  0.4700
      Cm = -0.0802     CD =  0.01065   =>   CDf =  0.00468    CDp =  0.00597

 Side 1  free  transition at x/c =  0.6769   59
 Side 2  free  transition at x/c =  0.8455   68

   5   rms: 0.8207E-06   max: -.7818E-05   D at   68  2
       a =  0.500      CL =  0.4700
      Cm = -0.0802     CD =  0.01065   =>   CDf =  0.00468    CDp =  0.00597
 plradd ia,ip,cpol            9           0  0.41141224    

 Point added to stored polar  1
 Point written to save file  ah83159_Re600k.base.pol                         
 Dump file unspecified or not available
 Calculating wake trajectory ...
 Calculating source influence matrix ...

 Solving BL system ...

 Side 1  free  transition at x/c =  0.6769   59
 Side 2  free  transition at x/c =  0.8455   68

   1   rms: 0.8536E-01   max: -.6112E+00   T at   68  2   RLX: 0.818
       a =  1.000      CL =  0.5214
      Cm = -0.0824     CD =  0.01076   =>   CDf =  0.00467    CDp =  0.00609

 Side 1  free  transition at x/c =  0.6731   60
 Side 2  free  transition at x/c =  0.8539   68

   2   rms: 0.9458E-01   max: 0.7162E+00   D at   69  2   RLX: 0.726
       a =  1.000      CL =  0.5240
      Cm = -0.0808     CD =  0.01035   =>   CDf =  0.00477    CDp =  0.00558

 Side 1  free  transition at x/c =  0.6728   60
 Side 2  free  transition at x/c =  0.8510   68

   3   rms: 0.2115E-01   max: 0.1989E+00   D at   70  2
       a =  1.000      CL =  0.5251
      Cm = -0.0805     CD =  0.01061   =>   CDf =  0.00474    CDp =  0.00586

 Side 1  free  transition at x/c =  0.6727   60
 Side 2  free  transition at x/c =  0.8497   68

   4   rms: 0.8004E-03   max: -.8477E-02   D at   70  2
       a =  1.000      CL =  0.5252
      Cm = -0.0805     CD =  0.01062   =>   CDf =  0.00473    CDp =  0.00589

 Side 1  free  transition at x/c =  0.6727   60
 Side 2  free  transition at x/c =  0.8498   68

   5   rms: 0.2323E-05   max: 0.2630E-04   D at   71  2
       a =  1.000      CL =  0.5252
      Cm = -0.0805     CD =  0.01062   =>   CDf =  0.00473    CDp =  0.00589
 plradd ia,ip,cpol           10           0  0.39688784    

 Point added to stored polar  1
 Point written to save file  ah83159_Re600k.base.pol                         
 Dump file unspecified or not available
 Calculating wake trajectory ...
 Calculating source influence matrix ...

 Solving BL system ...

 Side 1  free  transition at x/c =  0.6727   60
 Side 2  free  transition at x/c =  0.8498   68

   1   rms: 0.7394E-01   max: -.2017E+00   T at   68  2
       a =  1.500      CL =  0.5802
      Cm = -0.0806     CD =  0.01061   =>   CDf =  0.00473    CDp =  0.00588

 Side 1  free  transition at x/c =  0.6688   59
 Side 2  free  transition at x/c =  0.8524   68

   2   rms: 0.1181E-01   max: -.7970E-01   D at   68  2
       a =  1.500      CL =  0.5806
      Cm = -0.0809     CD =  0.01070   =>   CDf =  0.00477    CDp =  0.00593

 Side 1  free  transition at x/c =  0.6684   59
 Side 2  free  transition at x/c =  0.8532   68

   3   rms: 0.1173E-03   max: -.1162E-02   D at   71  2
       a =  1.500      CL =  0.5806
      Cm = -0.0809     CD =  0.01068   =>   CDf =  0.00478    CDp =  0.00591

 Side 1  free  transition at x/c =  0.6684   59
 Side 2  free  transition at x/c =  0.8532   68

   4   rms: 0.1015E-05   max: 0.5847E-05   D at    6  2
       a =  1.500      CL =  0.5806
      Cm = -0.0809     CD =  0.01068   =>   CDf =  0.00478    CDp =  0.00591
 plradd ia,ip,cpol           11           0  0.38234755    

 Point added to stored polar  1
 Point written to save file  ah83159_Re600k.base.pol                         
 Dump file unspecified or not available
 Calculating wake trajectory ...
 Calculating source influence matrix ...

 Solving BL system ...

 Side 1  free  transition at x/c =  0.6684   59
 Side 2  free  transition at x/c =  0.8532   68

   1   rms: 0.7333E-01   max: -.1989E+00   T at   68  2
       a =  2.000      CL =  0.6339
      Cm = -0.0810     CD =  0.01066   =>   CDf =  0.00474    CDp =  0.00592

 Side 1  free  transition at x/c =  0.6623   60
 Side 2  free  transition at x/c =  0.8571   67

   2   rms: 0.1199E-01   max: -.9575E-01   D at   61  1
       a =  2.000      CL =  0.6362
      Cm = -0.0816     CD =  0.01068   =>   CDf =  0.00474    CDp =  0.00594

 Side 1  free  transition at x/c =  0.6631   60
 Side 2  free  transition at x/c =  0.8575   67

   3   rms: 0.2186E-03   max: 0.2539E-02   D at   61  1
       a =  2.000      CL =  0.6363
      Cm = -0.0816     CD =  0.01067   =>   CDf =  0.00474    CDp =  0.00592

 Side 1  free  transition at x/c =  0.6630   60
 Side 2  free  transition at x/c =  0.8575   67

   4   rms: 0.1934E-05   max: 0.9568E-05   D at   81  1
       a =  2.000      CL =  0.6363
      Cm = -0.0816     CD =  0.01067   =>   CDf =  0.00474    CDp =  0.00592
 plradd ia,ip,cpol           12           0  0.35325795    

 Point added to stored polar  1
 Point written to save file  ah83159_Re600k.base.pol                         
 Dump file unspecified or not available
 Calculating wake trajectory ...
 Calculating source influence matrix ...

 Solving BL system ...

 Side 1  free  transition at x/c =  0.6630   60
 Side 2  free  transition at x/c =  0.8575   67

   1   rms: 0.7620E-01   max: -.2559E+00   T at   67  2
[...]
       a = 12.250      CL =  1.1989
      Cm = -0.0256     CD =  0.03699   =>   CDf =  0.00645    CDp =  0.03054

 Side 1  free  transition at x/c =  0.0413   23
 Side 2  free  transition at x/c =  0.9141   63

  87   rms: 0.6953E-02   max: -.1638E+00   C at   23  1
       a = 12.250      CL =  1.1989
      Cm = -0.0256     CD =  0.03699   =>   CDf =  0.00645    CDp =  0.03054

 Side 1  free  transition at x/c =  0.0413   23
 Side 2  free  transition at x/c =  0.9141   63

  88   rms: 0.6953E-02   max: -.1638E+00   C at   23  1
       a = 12.250      CL =  1.1989
      Cm = -0.0256     CD =  0.03699   =>   CDf =  0.00645    CDp =  0.03054

 Side 1  free  transition at x/c =  0.0413   23
 Side 2  free  transition at x/c =  0.9141   63

  89   rms: 0.6953E-02   max: -.1638E+00   C at   23  1
       a = 12.250      CL =  1.1989
      Cm = -0.0256     CD =  0.03699   =>   CDf =  0.00645    CDp =  0.03054

 Side 1  free  transition at x/c =  0.0413   23
 Side 2  free  transition at x/c =  0.9141   63

  90   rms: 0.6953E-02   max: -.1638E+00   C at   23  1
       a = 12.250      CL =  1.1989
      Cm = -0.0256     CD =  0.03699   =>   CDf =  0.00645    CDp =  0.03054

 Side 1  free  transition at x/c =  0.0413   23
 Side 2  free  transition at x/c =  0.9141   63

  91   rms: 0.6953E-02   max: -.1638E+00   C at   23  1
       a = 12.250      CL =  1.1989
      Cm = -0.0256     CD =  0.03699   =>   CDf =  0.00645    CDp =  0.03054

 Side 1  free  transition at x/c =  0.0413   23
 Side 2  free  transition at x/c =  0.9141   63

  92   rms: 0.6953E-02   max: -.1638E+00   C at   23  1
       a = 12.250      CL =  1.1989
      Cm = -0.0256     CD =  0.03699   =>   CDf =  0.00645    CDp =  0.03054

 Side 1  free  transition at x/c =  0.0413   23
 Side 2  free  transition at x/c =  0.9141   63

  93   rms: 0.6953E-02   max: -.1638E+00   C at   23  1
       a = 12.250      CL =  1.1989
      Cm = -0.0256     CD =  0.03699   =>   CDf =  0.00645    CDp =  0.03054

 Side 1  free  transition at x/c =  0.0413   23
 Side 2  free  transition at x/c =  0.9141   63

  94   rms: 0.6953E-02   max: -.1638E+00   C at   23  1
       a = 12.250      CL =  1.1989
      Cm = -0.0256     CD =  0.03699   =>   CDf =  0.00645    CDp =  0.03054

 Side 1  free  transition at x/c =  0.0413   23
 Side 2  free  transition at x/c =  0.9141   63

  95   rms: 0.6953E-02   max: -.1638E+00   C at   23  1
       a = 12.250      CL =  1.1989
      Cm = -0.0256     CD =  0.03699   =>   CDf =  0.00645    CDp =  0.03054

 Side 1  free  transition at x/c =  0.0413   23
 Side 2  free  transition at x/c =  0.9141   63

  96   rms: 0.6953E-02   max: -.1638E+00   C at   23  1
       a = 12.250      CL =  1.1989
      Cm = -0.0256     CD =  0.03699   =>   CDf =  0.00645    CDp =  0.03054

 Side 1  free  transition at x/c =  0.0413   23
 Side 2  free  transition at x/c =  0.9141   63

  97   rms: 0.6953E-02   max: -.1638E+00   C at   23  1
       a = 12.250      CL =  1.1989
      Cm = -0.0256     CD =  0.03699   =>   CDf =  0.00645    CDp =  0.03054

 Side 1  free  transition at x/c =  0.0413   23
 Side 2  free  transition at x/c =  0.9141   63

  98   rms: 0.6953E-02   max: -.1638E+00   C at   23  1
       a = 12.250      CL =  1.1989
      Cm = -0.0256     CD =  0.03699   =>   CDf =  0.00645    CDp =  0.03054

 Side 1  free  transition at x/c =  0.0413   23
 Side 2  free  transition at x/c =  0.9141   63

  99   rms: 0.6953E-02   max: -.1638E+00   C at   23  1
       a = 12.250      CL =  1.1989
      Cm = -0.0256     CD =  0.03699   =>   CDf =  0.00645    CDp =  0.03054

 Side 1  free  transition at x/c =  0.0413   23
 Side 2  free  transition at x/c =  0.9141   63

 100   rms: 0.6953E-02   max: -.1638E+00   C at   23  1
       a = 12.250      CL =  1.1989
      Cm = -0.0256     CD =  0.03699   =>   CDf =  0.00645    CDp =  0.03054

 Side 1  free  transition at x/c =  0.0413   23
 Side 2  free  transition at x/c =  0.9141   63

 101   rms: 0.6953E-02   max: -.1638E+00   C at   23  1
       a = 12.250      CL =  1.1989
      Cm = -0.0256     CD =  0.03699   =>   CDf =  0.00645    CDp =  0.03054

 Side 1  free  transition at x/c =  0.0413   23
 Side 2  free  transition at x/c =  0.9141   63

 102   rms: 0.6953E-02   max: -.1638E+00   C at   23  1
       a = 12.250      CL =  1.1989
      Cm = -0.0256     CD =  0.03699   =>   CDf =  0.00645    CDp =  0.03054

 Side 1  free  transition at x/c =  0.0413   23
 Side 2  free  transition at x/c =  0.9141   63

 103   rms: 0.6953E-02   max: -.1638E+00   C at   23  1
       a = 12.250      CL =  1.1989
      Cm = -0.0256     CD =  0.03699   =>   CDf =  0.00645    CDp =  0.03054

 Side 1  free  transition at x/c =  0.0413   23
 Side 2  free  transition at x/c =  0.9141   63

 104   rms: 0.6953E-02   max: -.1638E+00   C at   23  1
       a = 12.250      CL =  1.1989
      Cm = -0.0256     CD =  0.03699   =>   CDf =  0.00645    CDp =  0.03054

 Side 1  free  transition at x/c =  0.0413   23
 Side 2  free  transition at x/c =  0.9141   63

 105   rms: 0.6953E-02   max: -.1638E+00   C at   23  1
       a = 12.250      CL =  1.1989
      Cm = -0.0256     CD =  0.03699   =>   CDf =  0.00645    CDp =  0.03054

 Side 1  free  transition at x/c =  0.0413   23
 Side 2  free  transition at x/c =  0.9141   63

 106   rms: 0.6953E-02   max: -.1638E+00   C at   23  1
       a = 12.250      CL =  1.1989
      Cm = -0.0256     CD =  0.03699   =>   CDf =  0.00645    CDp =  0.03054

 Side 1  free  transition at x/c =  0.0413   23
 Side 2  free  transition at x/c =  0.9141   63

 107   rms: 0.6953E-02   max: -.1638E+00   C at   23  1
       a = 12.250      CL =  1.1989
      Cm = -0.0256     CD =  0.03699   =>   CDf =  0.00645    CDp =  0.03054

 Side 1  free  transition at x/c =  0.0413   23
 Side 2  free  transition at x/c =  0.9141   63

 108   rms: 0.6953E-02   max: -.1638E+00   C at   23  1
       a = 12.250      CL =  1.1989
      Cm = -0.0256     CD =  0.03699   =>   CDf =  0.00645    CDp =  0.03054

 Side 1  free  transition at x/c =  0.0413   23
 Side 2  free  transition at x/c =  0.9141   63

 109   rms: 0.6953E-02   max: -.1638E+00   C at   23  1
       a = 12.250      CL =  1.1989
      Cm = -0.0256     CD =  0.03699   =>   CDf =  0.00645    CDp =  0.03054

 Side 1  free  transition at x/c =  0.0413   23
 Side 2  free  transition at x/c =  0.9141   63

 110   rms: 0.6953E-02   max: -.1638E+00   C at   23  1
       a = 12.250      CL =  1.1989
      Cm = -0.0256     CD =  0.03699   =>   CDf =  0.00645    CDp =  0.03054

 Side 1  free  transition at x/c =  0.0413   23
 Side 2  free  transition at x/c =  0.9141   63

 111   rms: 0.6953E-02   max: -.1638E+00   C at   23  1
       a = 12.250      CL =  1.1989
      Cm = -0.0256     CD =  0.03699   =>   CDf =  0.00645    CDp =  0.03054

 Side 1  free  transition at x/c =  0.0413   23
 Side 2  free  transition at x/c =  0.9141   63

 112   rms: 0.6953E-02   max: -.1638E+00   C at   23  1
       a = 12.250      CL =  1.1989
      Cm = -0.0256     CD =  0.03699   =>   CDf =  0.00645    CDp =  0.03054

 Side 1  free  transition at x/c =  0.0413   23
 Side 2  free  transition at x/c =  0.9141   63

 113   rms: 0.6953E-02   max: -.1638E+00   C at   23  1
       a = 12.250      CL =  1.1989
      Cm = -0.0256     CD =  0.03699   =>   CDf =  0.00645    CDp =  0.03054

 Side 1  free  transition at x/c =  0.0413   23
 Side 2  free  transition at x/c =  0.9141   63

 114   rms: 0.6953E-02   max: -.1638E+00   C at   23  1
       a = 12.250      CL =  1.1989
      Cm = -0.0256     CD =  0.03699   =>   CDf =  0.00645    CDp =  0.03054

 Side 1  free  transition at x/c =  0.0413   23
 Side 2  free  transition at x/c =  0.9141   63

 115   rms: 0.6953E-02   max: -.1638E+00   C at   23  1
       a = 12.250      CL =  1.1989
      Cm = -0.0256     CD =  0.03699   =>   CDf =  0.00645    CDp =  0.03054

 Side 1  free  transition at x/c =  0.0413   23
 Side 2  free  transition at x/c =  0.9141   63

 116   rms: 0.6953E-02   max: -.1638E+00   C at   23  1
       a = 12.250      CL =  1.1989
      Cm = -0.0256     CD =  0.03699   =>   CDf =  0.00645    CDp =  0.03054

 Side 1  free  transition at x/c =  0.0413   23
 Side 2  free  transition at x/c =  0.9141   63

 117   rms: 0.6953E-02   max: -.1638E+00   C at   23  1
       a = 12.250      CL =  1.1989
      Cm = -0.0256     CD =  0.03699   =>   CDf =  0.00645    CDp =  0.03054

 Side 1  free  transition at x/c =  0.0413   23
 Side 2  free  transition at x/c =  0.9141   63

 118   rms: 0.6953E-02   max: -.1638E+00   C at   23  1
       a = 12.250      CL =  1.1989
      Cm = -0.0256     CD =  0.03699   =>   CDf =  0.00645    CDp =  0.03054

 Side 1  free  transition at x/c =  0.0413   23
 Side 2  free  transition at x/c =  0.9141   63

 119   rms: 0.6953E-02   max: -.1638E+00   C at   23  1
       a = 12.250      CL =  1.1989
      Cm = -0.0256     CD =  0.03699   =>   CDf =  0.00645    CDp =  0.03054

 Side 1  free  transition at x/c =  0.0413   23
 Side 2  free  transition at x/c =  0.9141   63

 120   rms: 0.6953E-02   max: -.1638E+00   C at   23  1
       a = 12.250      CL =  1.1989
      Cm = -0.0256     CD =  0.03699   =>   CDf =  0.00645    CDp =  0.03054

 Side 1  free  transition at x/c =  0.0413   23
 Side 2  free  transition at x/c =  0.9141   63

 121   rms: 0.6953E-02   max: -.1638E+00   C at   23  1
       a = 12.250      CL =  1.1989
      Cm = -0.0256     CD =  0.03699   =>   CDf =  0.00645    CDp =  0.03054

 Side 1  free  transition at x/c =  0.0413   23
 Side 2  free  transition at x/c =  0.9141   63

 122   rms: 0.6953E-02   max: -.1638E+00   C at   23  1
       a = 12.250      CL =  1.1989
      Cm = -0.0256     CD =  0.03699   =>   CDf =  0.00645    CDp =  0.03054

 Side 1  free  transition at x/c =  0.0413   23
 Side 2  free  transition at x/c =  0.9141   63

 123   rms: 0.6953E-02   max: -.1638E+00   C at   23  1
       a = 12.250      CL =  1.1989
      Cm = -0.0256     CD =  0.03699   =>   CDf =  0.00645    CDp =  0.03054

 Side 1  free  transition at x/c =  0.0413   23
 Side 2  free  transition at x/c =  0.9141   63

 124   rms: 0.6953E-02   max: -.1638E+00   C at   23  1
       a = 12.250      CL =  1.1989
      Cm = -0.0256     CD =  0.03699   =>   CDf =  0.00645    CDp =  0.03054

 Side 1  free  transition at x/c =  0.0413   23
 Side 2  free  transition at x/c =  0.9141   63

 125   rms: 0.6953E-02   max: -.1638E+00   C at   23  1
       a = 12.250      CL =  1.1989
      Cm = -0.0256     CD =  0.03699   =>   CDf =  0.00645    CDp =  0.03054

 Side 1  free  transition at x/c =  0.0413   23
 Side 2  free  transition at x/c =  0.9141   63

 126   rms: 0.6953E-02   max: -.1638E+00   C at   23  1
       a = 12.250      CL =  1.1989
      Cm = -0.0256     CD =  0.03699   =>   CDf =  0.00645    CDp =  0.03054

 Side 1  free  transition at x/c =  0.0413   23
 Side 2  free  transition at x/c =  0.9141   63

 127   rms: 0.6953E-02   max: -.1638E+00   C at   23  1
       a = 12.250      CL =  1.1989
      Cm = -0.0256     CD =  0.03699   =>   CDf =  0.00645    CDp =  0.03054

 Side 1  free  transition at x/c =  0.0413   23
 Side 2  free  transition at x/c =  0.9141   63

 128   rms: 0.6953E-02   max: -.1638E+00   C at   23  1
       a = 12.250      CL =  1.1989
      Cm = -0.0256     CD =  0.03699   =>   CDf =  0.00645    CDp =  0.03054

 Side 1  free  transition at x/c =  0.0413   23
 Side 2  free  transition at x/c =  0.9141   63

 129   rms: 0.6953E-02   max: -.1638E+00   C at   23  1
       a = 12.250      CL =  1.1989
      Cm = -0.0256     CD =  0.03699   =>   CDf =  0.00645    CDp =  0.03054

 Side 1  free  transition at x/c =  0.0413   23
 Side 2  free  transition at x/c =  0.9141   63

 130   rms: 0.6953E-02   max: -.1638E+00   C at   23  1
       a = 12.250      CL =  1.1989
      Cm = -0.0256     CD =  0.03699   =>   CDf =  0.00645    CDp =  0.03054

 Side 1  free  transition at x/c =  0.0413   23
 Side 2  free  transition at x/c =  0.9141   63

 131   rms: 0.6953E-02   max: -.1638E+00   C at   23  1
       a = 12.250      CL =  1.1989
      Cm = -0.0256     CD =  0.03699   =>   CDf =  0.00645    CDp =  0.03054

 Side 1  free  transition at x/c =  0.0413   23
 Side 2  free  transition at x/c =  0.9141   63

 132   rms: 0.6953E-02   max: -.1638E+00   C at   23  1
       a = 12.250      CL =  1.1989
      Cm = -0.0256     CD =  0.03699   =>   CDf =  0.00645    CDp =  0.03054

 Side 1  free  transition at x/c =  0.0413   23
 Side 2  free  transition at x/c =  0.9141   63

 133   rms: 0.6953E-02   max: -.1638E+00   C at   23  1
       a = 12.250      CL =  1.1989
      Cm = -0.0256     CD =  0.03699   =>   CDf =  0.00645    CDp =  0.03054

 Side 1  free  transition at x/c =  0.0413   23
 Side 2  free  transition at x/c =  0.9141   63

 134   rms: 0.6953E-02   max: -.1638E+00   C at   23  1
       a = 12.250      CL =  1.1989
      Cm = -0.0256     CD =  0.03699   =>   CDf =  0.00645    CDp =  0.03054

 Side 1  free  transition at x/c =  0.0413   23
 Side 2  free  transition at x/c =  0.9141   63

 135   rms: 0.6953E-02   max: -.1638E+00   C at   23  1
       a = 12.250      CL =  1.1989
      Cm = -0.0256     CD =  0.03699   =>   CDf =  0.00645    CDp =  0.03054

 Side 1  free  transition at x/c =  0.0413   23
 Side 2  free  transition at x/c =  0.9141   63

 136   rms: 0.6953E-02   max: -.1638E+00   C at   23  1
       a = 12.250      CL =  1.1989
      Cm = -0.0256     CD =  0.03699   =>   CDf =  0.00645    CDp =  0.03054

 Side 1  free  transition at x/c =  0.0413   23
 Side 2  free  transition at x/c =  0.9141   63

 137   rms: 0.6953E-02   max: -.1638E+00   C at   23  1
       a = 12.250      CL =  1.1989
      Cm = -0.0256     CD =  0.03699   =>   CDf =  0.00645    CDp =  0.03054

 Side 1  free  transition at x/c =  0.0413   23
 Side 2  free  transition at x/c =  0.9141   63

 138   rms: 0.6953E-02   max: -.1638E+00   C at   23  1
       a = 12.250      CL =  1.1989
      Cm = -0.0256     CD =  0.03699   =>   CDf =  0.00645    CDp =  0.03054

 Side 1  free  transition at x/c =  0.0413   23
 Side 2  free  transition at x/c =  0.9141   63

 139   rms: 0.6953E-02   max: -.1638E+00   C at   23  1
       a = 12.250      CL =  1.1989
      Cm = -0.0256     CD =  0.03699   =>   CDf =  0.00645    CDp =  0.03054

 Side 1  free  transition at x/c =  0.0413   23
 Side 2  free  transition at x/c =  0.9141   63

 140   rms: 0.6953E-02   max: -.1638E+00   C at   23  1
       a = 12.250      CL =  1.1989
      Cm = -0.0256     CD =  0.03699   =>   CDf =  0.00645    CDp =  0.03054

 Side 1  free  transition at x/c =  0.0413   23
 Side 2  free  transition at x/c =  0.9141   63

 141   rms: 0.6953E-02   max: -.1638E+00   C at   23  1
       a = 12.250      CL =  1.1989
      Cm = -0.0256     CD =  0.03699   =>   CDf =  0.00645    CDp =  0.03054

 Side 1  free  transition at x/c =  0.0413   23
 Side 2  free  transition at x/c =  0.9141   63

 142   rms: 0.6953E-02   max: -.1638E+00   C at   23  1
       a = 12.250      CL =  1.1989
      Cm = -0.0256     CD =  0.03699   =>   CDf =  0.00645    CDp =  0.03054

 Side 1  free  transition at x/c =  0.0413   23
 Side 2  free  transition at x/c =  0.9141   63

 143   rms: 0.6953E-02   max: -.1638E+00   C at   23  1
       a = 12.250      CL =  1.1989
      Cm = -0.0256     CD =  0.03699   =>   CDf =  0.00645    CDp =  0.03054

 Side 1  free  transition at x/c =  0.0413   23
 Side 2  free  transition at x/c =  0.9141   63

 144   rms: 0.6953E-02   max: -.1638E+00   C at   23  1
       a = 12.250      CL =  1.1989
      Cm = -0.0256     CD =  0.03699   =>   CDf =  0.00645    CDp =  0.03054

 Side 1  free  transition at x/c =  0.0413   23
 Side 2  free  transition at x/c =  0.9141   63

 145   rms: 0.6953E-02   max: -.1638E+00   C at   23  1
       a = 12.250      CL =  1.1989
      Cm = -0.0256     CD =  0.03699   =>   CDf =  0.00645    CDp =  0.03054

 Side 1  free  transition at x/c =  0.0413   23
 Side 2  free  transition at x/c =  0.9141   63

 146   rms: 0.6953E-02   max: -.1638E+00   C at   23  1
       a = 12.250      CL =  1.1989
      Cm = -0.0256     CD =  0.03699   =>   CDf =  0.00645    CDp =  0.03054

 Side 1  free  transition at x/c =  0.0413   23
 Side 2  free  transition at x/c =  0.9141   63

 147   rms: 0.6953E-02   max: -.1638E+00   C at   23  1
       a = 12.250      CL =  1.1989
      Cm = -0.0256     CD =  0.03699   =>   CDf =  0.00645    CDp =  0.03054

 Side 1  free  transition at x/c =  0.0413   23
 Side 2  free  transition at x/c =  0.9141   63

 148   rms: 0.6953E-02   max: -.1638E+00   C at   23  1
       a = 12.250      CL =  1.1989
      Cm = -0.0256     CD =  0.03699   =>   CDf =  0.00645    CDp =  0.03054

 Side 1  free  transition at x/c =  0.0413   23
 Side 2  free  transition at x/c =  0.9141   63

 149   rms: 0.6953E-02   max: -.1638E+00   C at   23  1
       a = 12.250      CL =  1.1989
      Cm = -0.0256     CD =  0.03699   =>   CDf =  0.00645    CDp =  0.03054

 Side 1  free  transition at x/c =  0.0413   23
 Side 2  free  transition at x/c =  0.9141   63

 150   rms: 0.6953E-02   max: -.1638E+00   C at   23  1
       a = 12.250      CL =  1.1989
      Cm = -0.0256     CD =  0.03699   =>   CDf =  0.00645    CDp =  0.03054

 Side 1  free  transition at x/c =  0.0413   23
 Side 2  free  transition at x/c =  0.9141   63

 151   rms: 0.6953E-02   max: -.1638E+00   C at   23  1
       a = 12.250      CL =  1.1989
      Cm = -0.0256     CD =  0.03699   =>   CDf =  0.00645    CDp =  0.03054

 Side 1  free  transition at x/c =  0.0413   23
 Side 2  free  transition at x/c =  0.9141   63

 152   rms: 0.6953E-02   max: -.1638E+00   C at   23  1
       a = 12.250      CL =  1.1989
      Cm = -0.0256     CD =  0.03699   =>   CDf =  0.00645    CDp =  0.03054

 Side 1  free  transition at x/c =  0.0413   23
 Side 2  free  transition at x/c =  0.9141   63

 153   rms: 0.6953E-02   max: -.1638E+00   C at   23  1
       a = 12.250      CL =  1.1989
      Cm = -0.0256     CD =  0.03699   =>   CDf =  0.00645    CDp =  0.03054

 Side 1  free  transition at x/c =  0.0413   23
 Side 2  free  transition at x/c =  0.9141   63

 154   rms: 0.6953E-02   max: -.1638E+00   C at   23  1
       a = 12.250      CL =  1.1989
      Cm = -0.0256     CD =  0.03699   =>   CDf =  0.00645    CDp =  0.03054

 Side 1  free  transition at x/c =  0.0413   23
 Side 2  free  transition at x/c =  0.9141   63

 155   rms: 0.6953E-02   max: -.1638E+00   C at   23  1
       a = 12.250      CL =  1.1989
      Cm = -0.0256     CD =  0.03699   =>   CDf =  0.00645    CDp =  0.03054
 VISCAL:  Convergence failed
 Calculating wake trajectory ...
 Calculating source influence matrix ...

 Solving BL system ...

 Side 1  free  transition at x/c =  0.0413   23
 Side 2  free  transition at x/c =  0.9141   63

   1   rms: 0.3435E-01   max: -.2339E+00   D at   23  1   RLX: 0.624
       a = 12.500      CL =  1.2059
      Cm = -0.0253     CD =  0.03792   =>   CDf =  0.00645    CDp =  0.03147

 Side 1  free  transition at x/c =  0.0356   23
 Side 2  free  transition at x/c =  0.9146   63

   2   rms: 0.1640E-01   max: -.1523E+00   D at   23  1
       a = 12.500      CL =  1.2053
      Cm = -0.0247     CD =  0.03882   =>   CDf =  0.00647    CDp =  0.03235

 Side 1  free  transition at x/c =  0.0325   23
 Side 2  free  transition at x/c =  0.9149   63

   3   rms: 0.1347E-02   max: -.1542E-01   D at   23  1
       a = 12.500      CL =  1.2046
      Cm = -0.0246     CD =  0.03877   =>   CDf =  0.00648    CDp =  0.03229

 Side 1  free  transition at x/c =  0.0323   22
 Side 2  free  transition at x/c =  0.9149   63

   4   rms: 0.1635E-03   max: -.3786E-02   C at   22  1
       a = 12.500      CL =  1.2046
      Cm = -0.0246     CD =  0.03876   =>   CDf =  0.00648    CDp =  0.03228

 Side 1  free  transition at x/c =  0.0323   22
 Side 2  free  transition at x/c =  0.9149   63

   5   rms: 0.1928E-05   max: -.7900E-05   D at   64  1
       a = 12.500      CL =  1.2046

[TIMEOUT]
