  
       XFOIL         Version 6.99
  
 Calculated polar for: AH 88-K-136/16                                  
  
 1 1 Reynolds number fixed          Mach number fixed         
  
 xtrf =   1.000 (top)        1.000 (bottom)  
 Mach =   0.000     Re =     0.500 e 6     Ncrit =   9.000
  
   alpha    CL        CD       CDp       CM     Top_Xtr  Bot_Xtr
  ------ -------- --------- --------- -------- -------- --------
  -3.500  -0.1213   0.01643   0.00967  -0.0425   0.7631   0.0625
  -3.000  -0.0750   0.01589   0.00919  -0.0408   0.7602   0.0865
  -2.500  -0.0279   0.01529   0.00874  -0.0392   0.7584   0.1385
  -2.000   0.0099   0.01412   0.00829  -0.0360   0.7567   0.3369
  -1.000   0.1123   0.01346   0.00959  -0.0335   0.7462   0.9172
  -0.500   0.2513   0.01434   0.01031  -0.0498   0.7457   0.9336
   0.000   0.3609   0.01451   0.01036  -0.0605   0.7446   0.9474
   0.500   0.4459   0.01425   0.01002  -0.0663   0.7434   0.9594
