  
       XFOIL         Version 6.99
  
 Calculated polar for: AH 93-W-174                                     
  
 1 1 Reynolds number fixed          Mach number fixed         
  
 xtrf =   1.000 (top)        1.000 (bottom)  
 Mach =   0.000     Re =     0.600 e 6     Ncrit =   9.000
  
   alpha    CL        CD       CDp       CM     Top_Xtr  Bot_Xtr
  ------ -------- --------- --------- -------- -------- --------
  -4.000  -0.0174   0.01079   0.00365  -0.0867   0.5666   0.1705
  -3.500   0.0381   0.01053   0.00346  -0.0869   0.5616   0.2105
  -3.000   0.0939   0.01016   0.00329  -0.0871   0.5574   0.2635
  -2.500   0.1496   0.00974   0.00312  -0.0874   0.5526   0.3381
  -2.000   0.2054   0.00934   0.00300  -0.0877   0.5483   0.4348
  -1.500   0.2617   0.00917   0.00304  -0.0880   0.5437   0.5264
  -1.000   0.3184   0.00899   0.00308  -0.0882   0.5396   0.5935
  -0.500   0.3755   0.00896   0.00315  -0.0884   0.5352   0.6420
   0.000   0.4328   0.00901   0.00324  -0.0886   0.5311   0.6782
   0.500   0.4902   0.00919   0.00341  -0.0888   0.5266   0.7071
   1.000   0.5470   0.00925   0.00355  -0.0889   0.5226   0.7318
   1.500   0.6039   0.00935   0.00368  -0.0890   0.5183   0.7543
   2.000   0.6607   0.00949   0.00381  -0.0892   0.5141   0.7748
   2.500   0.7171   0.00974   0.00408  -0.0893   0.5100   0.7949
   3.000   0.7727   0.00984   0.00427  -0.0892   0.5057   0.8119
   3.500   0.8283   0.00995   0.00444  -0.0891   0.5013   0.8267
   4.000   0.8837   0.01011   0.00462  -0.0891   0.4970   0.8409
   4.500   0.9383   0.01033   0.00491  -0.0889   0.4927   0.8546
   5.000   0.9922   0.01044   0.00513  -0.0886   0.4880   0.8684
   5.500   1.0459   0.01057   0.00531  -0.0883   0.4833   0.8828
   6.000   1.0992   0.01083   0.00560  -0.0880   0.4783   0.8977
   6.500   1.1488   0.01089   0.00583  -0.0869   0.4730   0.9142
   7.000   1.1965   0.01090   0.00592  -0.0854   0.4663   0.9341
   7.500   1.2450   0.01096   0.00611  -0.0841   0.4590   0.9651
   8.000   1.3077   0.01108   0.00628  -0.0861   0.4502   1.0000
   8.500   1.3609   0.01127   0.00656  -0.0863   0.4391   1.0000
   9.000   1.4112   0.01152   0.00685  -0.0858   0.4259   1.0000
   9.500   1.4587   0.01186   0.00724  -0.0849   0.4117   1.0000
  10.000   1.5006   0.01234   0.00772  -0.0830   0.3904   1.0000
  10.000   1.5006   0.01234   0.00772  -0.0830   0.3904   1.0000
  10.250   1.5192   0.01265   0.00804  -0.0817   0.3786   1.0000
  10.500   1.5340   0.01305   0.00842  -0.0797   0.3651   1.0000
  10.750   1.5432   0.01354   0.00887  -0.0768   0.3500   1.0000
  11.000   1.5483   0.01418   0.00947  -0.0734   0.3325   1.0000
  11.250   1.5479   0.01508   0.01029  -0.0694   0.3130   1.0000
  11.500   1.5405   0.01636   0.01148  -0.0649   0.2921   1.0000
  11.750   1.5307   0.01801   0.01307  -0.0608   0.2720   1.0000
  12.000   1.5172   0.02025   0.01525  -0.0573   0.2527   1.0000
  12.250   1.5016   0.02303   0.01797  -0.0543   0.2346   1.0000
  12.500   1.4875   0.02602   0.02092  -0.0520   0.2178   1.0000
  12.750   1.4730   0.02923   0.02409  -0.0500   0.2019   1.0000
  13.000   1.4592   0.03252   0.02734  -0.0483   0.1877   1.0000
  13.250   1.4461   0.03584   0.03063  -0.0468   0.1743   1.0000
  13.500   1.4327   0.03927   0.03403  -0.0455   0.1608   1.0000
  13.750   1.4218   0.04262   0.03735  -0.0445   0.1482   1.0000
  14.000   1.4126   0.04596   0.04066  -0.0437   0.1357   1.0000
  14.250   1.4050   0.04927   0.04394  -0.0431   0.1239   1.0000
  14.500   1.3986   0.05256   0.04720  -0.0427   0.1128   1.0000
  14.750   1.3922   0.05596   0.05058  -0.0425   0.1024   1.0000
  15.000   1.3866   0.05937   0.05395  -0.0423   0.0922   1.0000
  15.250   1.3820   0.06272   0.05727  -0.0423   0.0831   1.0000
  15.500   1.3791   0.06601   0.06055  -0.0424   0.0749   1.0000
  15.750   1.3774   0.06920   0.06372  -0.0426   0.0670   1.0000
  16.000   1.3749   0.07254   0.06707  -0.0429   0.0606   1.0000
