  
       XFOIL         Version 6.99
  
 Calculated polar for: AH 93-W-215                                     
  
 1 1 Reynolds number fixed          Mach number fixed         
  
 xtrf =   1.000 (top)        1.000 (bottom)  
 Mach =   0.000     Re =     0.150 e 6     Ncrit =   9.000
  
   alpha    CL        CD       CDp       CM     Top_Xtr  Bot_Xtr
  ------ -------- --------- --------- -------- -------- --------
  -4.000  -0.0967   0.02001   0.01270  -0.0750   0.6856   0.5162
  -3.500  -0.0621   0.02051   0.01329  -0.0708   0.6772   0.5548
  -3.000  -0.0144   0.02092   0.01366  -0.0687   0.6710   0.5887
  -2.500   0.0212   0.02163   0.01444  -0.0648   0.6632   0.6162
  -2.000   0.0583   0.02219   0.01502  -0.0611   0.6554   0.6423
  -1.500   0.1127   0.02248   0.01522  -0.0603   0.6495   0.6672
  -1.000   0.1334   0.02348   0.01637  -0.0541   0.6404   0.6882
  -0.500   0.1800   0.02389   0.01679  -0.0520   0.6330   0.7102
   0.000   0.2423   0.02423   0.01707  -0.0522   0.6281   0.7329
   0.500   0.2376   0.02563   0.01870  -0.0421   0.6159   0.7537
   1.000   0.2982   0.02564   0.01863  -0.0422   0.6106   0.7737
   1.500   0.2830   0.02733   0.02050  -0.0309   0.5982   0.7941
   2.000   0.3394   0.02726   0.02038  -0.0305   0.5923   0.8138
   2.500   0.4194   0.02677   0.01977  -0.0336   0.5886   0.8328
   3.000   0.3607   0.02909   0.02237  -0.0157   0.5729   0.8602
   3.500   0.4616   0.02804   0.02122  -0.0219   0.5702   0.8799
   4.000   0.3501   0.03388   0.02743  -0.0014   0.5458   0.9291
   4.500   0.5023   0.03100   0.02443  -0.0137   0.5473   0.9426
   5.500   0.7358   0.03030   0.02367  -0.0352   0.5344   0.9670
