  
       XFOIL         Version 6.99
  
 Calculated polar for: GOE 498 AIRFOIL                                 
  
 1 1 Reynolds number fixed          Mach number fixed         
  
 xtrf =   1.000 (top)        1.000 (bottom)  
 Mach =   0.000     Re =     0.200 e 6     Ncrit =   9.000
  
   alpha    CL        CD       CDp       CM     Top_Xtr  Bot_Xtr
  ------ -------- --------- --------- -------- -------- --------
-4.000   0.2193   0.01481   0.00749  -0.1486   0.8059   0.2122
-3.500   0.2787   0.01451   0.00716  -0.1487   0.7914   0.2466
-3.000   0.3338   0.01435   0.00701  -0.1480   0.7752   0.2739
-2.500   0.3898   0.01425   0.00682  -0.1475   0.7586   0.3022
-1.500   0.5000   0.01409   0.00661  -0.1460   0.7232   0.3625
-1.000   0.5554   0.01412   0.00660  -0.1454   0.7077   0.3927
0.000   0.6632   0.01421   0.00670  -0.1436   0.6762   0.4530
0.500   0.7141   0.01423   0.00679  -0.1422   0.6589   0.4828
1.000   0.7656   0.01429   0.00689  -0.1409   0.6424   0.5168
1.500   0.8173   0.01436   0.00702  -0.1396   0.6268   0.5565
2.000   0.8687   0.01440   0.00713  -0.1382   0.6112   0.6072
2.500   0.9176   0.01435   0.00722  -0.1364   0.5946   0.6654
3.000   0.9613   0.01422   0.00739  -0.1335   0.5777   0.7462
3.500   1.0190   0.01406   0.00752  -0.1334   0.5602   1.0000
4.000   1.0679   0.01445   0.00775  -0.1319   0.5420   1.0000
4.500   1.1150   0.01489   0.00807  -0.1301   0.5238   1.0000
5.000   1.1605   0.01537   0.00845  -0.1281   0.5055   1.0000
5.500   1.2050   0.01589   0.00890  -0.1259   0.4880   1.0000
6.000   1.2478   0.01645   0.00940  -0.1234   0.4707   1.0000
6.500   1.2881   0.01704   0.00994  -0.1206   0.4535   1.0000
7.000   1.3278   0.01768   0.01054  -0.1177   0.4377   1.0000
7.500   1.3641   0.01834   0.01115  -0.1142   0.4223   1.0000
8.000   1.3959   0.01907   0.01184  -0.1100   0.4061   1.0000
8.500   1.4213   0.01988   0.01265  -0.1049   0.3882   1.0000
9.000   1.4434   0.02086   0.01364  -0.0996   0.3695   1.0000
9.500   1.4614   0.02206   0.01487  -0.0940   0.3491   1.0000
10.000   1.4756   0.02356   0.01641  -0.0884   0.3268   1.0000
10.250   1.4819   0.02448   0.01724  -0.0857   0.3157   1.0000
10.500   1.4872   0.02544   0.01826  -0.0831   0.3037   1.0000
10.750   1.4926   0.02651   0.01934  -0.0806   0.2924   1.0000
11.000   1.4961   0.02773   0.02050  -0.0780   0.2813   1.0000
11.250   1.5009   0.02896   0.02178  -0.0758   0.2695   1.0000
11.500   1.5054   0.03030   0.02312  -0.0736   0.2593   1.0000
11.750   1.5089   0.03177   0.02456  -0.0716   0.2497   1.0000
12.000   1.5142   0.03321   0.02604  -0.0698   0.2404   1.0000
12.250   1.5170   0.03487   0.02766  -0.0680   0.2327   1.0000
12.500   1.5228   0.03642   0.02926  -0.0665   0.2247   1.0000
12.750   1.5256   0.03823   0.03103  -0.0650   0.2184   1.0000
13.000   1.5317   0.03987   0.03276  -0.0638   0.2114   1.0000
13.250   1.5339   0.04187   0.03473  -0.0625   0.2052   1.0000
13.500   1.5387   0.04373   0.03666  -0.0614   0.1991   1.0000
13.750   1.5408   0.04587   0.03880  -0.0604   0.1929   1.0000
14.000   1.5432   0.04803   0.04097  -0.0594   0.1871   1.0000
14.250   1.5452   0.05032   0.04333  -0.0586   0.1809   1.0000
14.500   1.5457   0.05274   0.04567  -0.0577   0.1746   1.0000
14.750   1.5465   0.05532   0.04841  -0.0572   0.1684   1.0000
15.000   1.5445   0.05814   0.05118  -0.0565   0.1616   1.0000
15.250   1.5425   0.06116   0.05433  -0.0562   0.1545   1.0000
15.500   1.5376   0.06452   0.05767  -0.0560   0.1469   1.0000
15.750   1.5319   0.06824   0.06155  -0.0561   0.1381   1.0000
16.000   1.5246   0.07219   0.06554  -0.0564   0.1299   1.0000
