
 ===================================================
  XFOIL Version 6.99
  Copyright (C) 2000   Mark Drela, Harold Youngren

  This software comes with ABSOLUTELY NO WARRANTY,
    subject to the GNU General Public License.

  Caveat computor
 ===================================================

 File  xfoil.def  not found

   QUIT    Exit program

  .OPER    Direct operating point(s)
  .MDES    Complex mapping design routine
  .QDES    Surface speed design routine
  .GDES    Geometry design routine

   SAVE f  Write airfoil to labeled coordinate file
   PSAV f  Write airfoil to plain coordinate file
   ISAV f  Write airfoil to ISES coordinate file
   MSAV f  Write airfoil to MSES coordinate file
   REVE    Reverse written-airfoil node ordering

   LOAD f  Read buffer airfoil from coordinate file
   NACA i  Set NACA 4,5-digit airfoil and buffer airfoil
   INTE    Set buffer airfoil by interpolating two airfoils
   NORM    Buffer airfoil normalization toggle
   XYCM rr Change CM reference location, currently  0.25000 0.00000

   BEND    Display structural properties of current airfoil

   PCOP    Set current-airfoil panel nodes directly from buffer airfoil points
   PANE    Set current-airfoil panel nodes ( 160 ) based on curvature
  .PPAR    Show/change paneling

  .PLOP    Plotting options

   WDEF f  Write  current-settings file
   RDEF f  Reread current-settings file
   NAME s  Specify new airfoil name
   NINC    Increment name version number

   Z       Zoom    | (available in all menus)
   U       Unzoom  | 

 XFOIL   c>  
 Labeled airfoil file.  Name:  GOE 460 AIRFOIL                                 

 Number of input coordinate points:  33
 Counterclockwise ordering
 Max thickness =     0.205000  at x =   0.300
 Max camber    =     0.000000  at x =   0.050

  LE  x,y  =   0.00000   0.00000  |   Chord =   1.00000
  TE  x,y  =   1.00000   0.00000  |

 Current airfoil nodes set from buffer airfoil nodes (  33 )

 WARNING: Poor input coordinate distribution
          Excessive panel angle   48.9  at i =  17
          Repaneling with PANE and/or PPAR suggested
           (doing GDES,CADD before repaneling _may_
            improve excessively coarse LE spacing

 XFOIL   c>  
 XFOIL   c>  
 Sharp trailing edge

 Paneling parameters used...
   Number of panel nodes       160
   Panel bunching parameter    1.000
   TE/LE panel density ratio   0.150
   Refined-area/LE panel density ratio    0.200
   Top    side refined area x/c limits  1.000 1.000
   Bottom side refined area x/c limits  1.000 1.000

 XFOIL   c>  
.OPERi   c>  
 Xtr/c     =  1.0000    top    side
 Xtr/c     =  1.0000    bottom side
 Ncrit     =    9.00   ( 0.070 % turb. level )
 Vacc      =  0.0100

 Klag  =  5.6000     Uxwt  =    1.00
 A     =  6.7000     B     =  0.7500       KCt = 0.01485
 CtiniK=  1.8000     CtiniX=  3.3000

..VPAR   c>  
..VPAR   c>  
.OPERi   c>  
 M  =    0.0000
 Re =    500000

.OPERv   c>  
.OPERv   c>  
.OPERv   c>  
 Polar  1 newly created for accumulation
 Airfoil archived with polar: GOE 460 AIRFOIL                                 

Enter  polar save filename  OR  <return> for no file   s>  
 New polar save file available

Enter  polar dump filename  OR  <return> for no file   s>  
 Polar dump file will NOT be written

 Polar accumulation enabled

.OPERva   c>   Calculating unit vorticity distributions ...
 Calculating wake trajectory ...
 Calculating source influence matrix ...

 Solving BL system ...

 Initializing BL ...
    side            1  ...
 MRCHUE: Inverse mode at  52     Hk =   4.591
 MRCHUE: Inverse mode at  53     Hk =   5.388
 MRCHUE: Inverse mode at  54     Hk =   6.161
 MRCHUE: Inverse mode at  55     Hk =   6.914
 MRCHUE: Inverse mode at  56     Hk =   7.650
 MRCHUE: Inverse mode at  57     Hk =   8.376
 MRCHUE: Inverse mode at  58     Hk =   4.990
 MRCHUE: Inverse mode at  59     Hk =   3.056
 MRCHUE: Inverse mode at  74     Hk =   2.500
    side            2  ...
 MRCHUE: Inverse mode at  43     Hk =   4.149
 MRCHUE: Inverse mode at  44     Hk =   5.443
 MRCHUE: Inverse mode at  45     Hk =   6.763
 MRCHUE: Inverse mode at  46     Hk =   8.093
 MRCHUE: Inverse mode at  47     Hk =   7.935
 MRCHUE: Inverse mode at  48     Hk =   2.518
 MRCHUE: Inverse mode at  84     Hk =   2.500
 MRCHUE: Inverse mode at  85     Hk =   2.500
 MRCHUE: Inverse mode at  86     Hk =   2.500
 MRCHUE: Inverse mode at  87     Hk =   2.500
 MRCHUE: Convergence failed at  88  side 2    Res =  0.1072E+02

 MRCHDU: Convergence failed at  88  side 2    Res =  0.1943E+01
 Side 1  free  transition at x/c =  0.7049   58
 Side 2  free  transition at x/c =  0.2493   47

   1   rms: 0.2770E+00   max: -.2203E+01   T at   58  1   RLX: 0.227
       a = -4.000      CL = -0.4920
      Cm =  0.0133     CD =  0.00696   =>   CDf =  0.00761    CDp = -0.00065

 Side 1  free  transition at x/c =  0.7144   58
 Side 2  free  transition at x/c =  0.2568   48

   2   rms: 0.2422E+00   max: -.1397E+01   T at   58  1   RLX: 0.358
       a = -4.000      CL = -0.4227
      Cm = -0.0026     CD =  0.00811   =>   CDf =  0.00751    CDp =  0.00061

 Side 1  free  transition at x/c =  0.7399   59
 Side 2  free  transition at x/c =  0.2761   49

   3   rms: 0.2252E+00   max: -.1880E+01   C at   49  2   RLX: 0.266
       a = -4.000      CL = -0.3767
      Cm = -0.0135     CD =  0.00782   =>   CDf =  0.00726    CDp =  0.00056

 Side 1  free  transition at x/c =  0.7574   61
 Side 2  free  transition at x/c =  0.2953   49

   4   rms: 0.2497E+00   max: -.3706E+01   C at   49  2   RLX: 0.135
       a = -4.000      CL = -0.3627
      Cm = -0.0165     CD =  0.00799   =>   CDf =  0.00689    CDp =  0.00110

 Side 1  free  transition at x/c =  0.7644   62
 Side 2  free  transition at x/c =  0.3040   49

   5   rms: 0.1381E+00   max: -.1086E+01   T at   49  2   RLX: 0.461
       a = -4.000      CL = -0.3375
      Cm = -0.0219     CD =  0.00873   =>   CDf =  0.00681    CDp =  0.00191

 Side 1  free  transition at x/c =  0.7870   63
 Side 2  free  transition at x/c =  0.4071   55

   6   rms: 0.1161E+00   max: -.2044E+01   C at   55  2   RLX: 0.245
       a = -4.000      CL = -0.3443
      Cm = -0.0221     CD =  0.00875   =>   CDf =  0.00605    CDp =  0.00270

 Side 1  free  transition at x/c =  0.7927   63
 Side 2  free  transition at x/c =  0.4154   56

   7   rms: 0.7202E-01   max: 0.8084E+00   D at   56  2   RLX: 0.827
       a = -4.000      CL = -0.3214
      Cm = -0.0273     CD =  0.00906   =>   CDf =  0.00598    CDp =  0.00308

 Side 1  free  transition at x/c =  0.8081   64
 Side 2  free  transition at x/c =  0.4380   57

   8   rms: 0.2132E-01   max: -.2008E+00   C at   57  2
       a = -4.000      CL = -0.3013
      Cm = -0.0314     CD =  0.00940   =>   CDf =  0.00576    CDp =  0.00364

 Side 1  free  transition at x/c =  0.8132   64
 Side 2  free  transition at x/c =  0.4440   57

   9   rms: 0.3248E-02   max: -.3664E-01   D at   57  2
       a = -4.000      CL = -0.3014
      Cm = -0.0314     CD =  0.00944   =>   CDf =  0.00565    CDp =  0.00379

 Side 1  free  transition at x/c =  0.8137   64
 Side 2  free  transition at x/c =  0.4439   57

  10   rms: 0.1044E-03   max: 0.8676E-03   C at   57  2
       a = -4.000      CL = -0.3015
      Cm = -0.0314     CD =  0.00944   =>   CDf =  0.00564    CDp =  0.00380

 Side 1  free  transition at x/c =  0.8136   64
 Side 2  free  transition at x/c =  0.4438   57

  11   rms: 0.1301E-05   max: 0.1093E-04   C at   57  2
       a = -4.000      CL = -0.3015
      Cm = -0.0314     CD =  0.00944   =>   CDf =  0.00564    CDp =  0.00380
 plradd ia,ip,cpol            1           0  7.72844926E-02

 Point added to stored polar  1
 Point written to save file  goe460_Re500k.base.pol                          
 Dump file unspecified or not available
 Calculating wake trajectory ...
 Calculating source influence matrix ...

 Solving BL system ...

 Side 1  free  transition at x/c =  0.8136   64
 Side 2  free  transition at x/c =  0.4438   57

   1   rms: 0.6629E-01   max: -.2956E+00   C at   57  2
       a = -3.500      CL = -0.2690
      Cm = -0.0264     CD =  0.00931   =>   CDf =  0.00571    CDp =  0.00361

 Side 1  free  transition at x/c =  0.7891   64
 Side 2  free  transition at x/c =  0.4605   57

   2   rms: 0.1498E-01   max: -.2084E+00   D at   64  1
       a = -3.500      CL = -0.2671
      Cm = -0.0268     CD =  0.00929   =>   CDf =  0.00573    CDp =  0.00356

 Side 1  free  transition at x/c =  0.7912   64
 Side 2  free  transition at x/c =  0.4640   57

   3   rms: 0.1988E-02   max: 0.2811E-01   C at   64  1
       a = -3.500      CL = -0.2678
      Cm = -0.0266     CD =  0.00931   =>   CDf =  0.00566    CDp =  0.00365

 Side 1  free  transition at x/c =  0.7902   64
 Side 2  free  transition at x/c =  0.4640   57

   4   rms: 0.3411E-04   max: -.4419E-03   D at   66  1
       a = -3.500      CL = -0.2678
      Cm = -0.0266     CD =  0.00931   =>   CDf =  0.00567    CDp =  0.00364
 plradd ia,ip,cpol            2           0  7.72844926E-02

 Point added to stored polar  1
 Point written to save file  goe460_Re500k.base.pol                          
 Dump file unspecified or not available
 Calculating wake trajectory ...
 Calculating source influence matrix ...

 Solving BL system ...

 Side 1  free  transition at x/c =  0.7902   64
 Side 2  free  transition at x/c =  0.4640   57

   1   rms: 0.6695E-01   max: -.2646E+00   C at   57  2
       a = -3.000      CL = -0.2321
      Cm = -0.0223     CD =  0.00924   =>   CDf =  0.00573    CDp =  0.00351

 Side 1  free  transition at x/c =  0.7638   64
 Side 2  free  transition at x/c =  0.4811   57

   2   rms: 0.1911E-01   max: -.3217E+00   D at   64  1
       a = -3.000      CL = -0.2326
      Cm = -0.0222     CD =  0.00918   =>   CDf =  0.00575    CDp =  0.00343

 Side 1  free  transition at x/c =  0.7674   64
 Side 2  free  transition at x/c =  0.4841   57

   3   rms: 0.4816E-02   max: 0.7600E-01   C at   64  1
       a = -3.000      CL = -0.2330
      Cm = -0.0221     CD =  0.00921   =>   CDf =  0.00569    CDp =  0.00352

 Side 1  free  transition at x/c =  0.7651   64
 Side 2  free  transition at x/c =  0.4842   57

   4   rms: 0.2035E-03   max: -.2867E-02   D at   65  1
       a = -3.000      CL = -0.2330
      Cm = -0.0221     CD =  0.00921   =>   CDf =  0.00571    CDp =  0.00350

 Side 1  free  transition at x/c =  0.7651   64
 Side 2  free  transition at x/c =  0.4842   57

   5   rms: 0.3572E-05   max: 0.3783E-04   D at    4  1
       a = -3.000      CL = -0.2330
      Cm = -0.0221     CD =  0.00921   =>   CDf =  0.00571    CDp =  0.00350
 plradd ia,ip,cpol            3           0  0.15495406    

 Point added to stored polar  1
 Point written to save file  goe460_Re500k.base.pol                          
 Dump file unspecified or not available
 Calculating wake trajectory ...
 Calculating source influence matrix ...

 Solving BL system ...

 Side 1  free  transition at x/c =  0.7651   64
 Side 2  free  transition at x/c =  0.4842   57

   1   rms: 0.7345E-01   max: -.3472E+00   D at   65  1
       a = -2.500      CL = -0.1904
      Cm = -0.0192     CD =  0.00917   =>   CDf =  0.00571    CDp =  0.00346

 Side 1  free  transition at x/c =  0.7421   62
 Side 2  free  transition at x/c =  0.5022   58

   2   rms: 0.1878E-01   max: -.2901E+00   D at   63  1
       a = -2.500      CL = -0.1954
      Cm = -0.0181     CD =  0.00907   =>   CDf =  0.00573    CDp =  0.00334

 Side 1  free  transition at x/c =  0.7411   62
 Side 2  free  transition at x/c =  0.5040   58

   3   rms: 0.2148E-02   max: 0.3216E-01   C at   62  1
       a = -2.500      CL = -0.1956
      Cm = -0.0181     CD =  0.00911   =>   CDf =  0.00574    CDp =  0.00337

 Side 1  free  transition at x/c =  0.7392   62
 Side 2  free  transition at x/c =  0.5040   58

   4   rms: 0.6299E-04   max: -.1124E-02   C at   62  1
       a = -2.500      CL = -0.1956
      Cm = -0.0181     CD =  0.00911   =>   CDf =  0.00574    CDp =  0.00337
 plradd ia,ip,cpol            4           0  0.15495406    

 Point added to stored polar  1
 Point written to save file  goe460_Re500k.base.pol                          
 Dump file unspecified or not available
 Calculating wake trajectory ...
 Calculating source influence matrix ...

 Solving BL system ...

 Side 1  free  transition at x/c =  0.7393   62
 Side 2  free  transition at x/c =  0.5040   58

   1   rms: 0.6599E-01   max: -.1843E+00   C at   58  2
       a = -2.000      CL = -0.1581
      Cm = -0.0142     CD =  0.00904   =>   CDf =  0.00579    CDp =  0.00325

 Side 1  free  transition at x/c =  0.7048   62
 Side 2  free  transition at x/c =  0.5247   58

   2   rms: 0.1879E-01   max: -.3192E+00   D at   62  1
       a = -2.000      CL = -0.1591
      Cm = -0.0139     CD =  0.00901   =>   CDf =  0.00583    CDp =  0.00319

 Side 1  free  transition at x/c =  0.7147   62
 Side 2  free  transition at x/c =  0.5249   58

   3   rms: 0.7845E-02   max: 0.1434E+00   C at   62  1
       a = -2.000      CL = -0.1585
      Cm = -0.0140     CD =  0.00903   =>   CDf =  0.00574    CDp =  0.00329

 Side 1  free  transition at x/c =  0.7101   62
 Side 2  free  transition at x/c =  0.5248   58

   4   rms: 0.2937E-03   max: -.4096E-02   D at   64  1
       a = -2.000      CL = -0.1584
      Cm = -0.0141     CD =  0.00904   =>   CDf =  0.00578    CDp =  0.00326

 Side 1  free  transition at x/c =  0.7101   62
 Side 2  free  transition at x/c =  0.5248   58

   5   rms: 0.2701E-05   max: -.1569E-04   D at   77  1
       a = -2.000      CL = -0.1584
      Cm = -0.0141     CD =  0.00904   =>   CDf =  0.00578    CDp =  0.00326
 plradd ia,ip,cpol            5           0  0.15495406    

 Point added to stored polar  1
 Point written to save file  goe460_Re500k.base.pol                          
 Dump file unspecified or not available
 Calculating wake trajectory ...
 Calculating source influence matrix ...

 Solving BL system ...

 Side 1  free  transition at x/c =  0.7101   62
 Side 2  free  transition at x/c =  0.5248   58

   1   rms: 0.7111E-01   max: 0.4412E+00   C at   62  1
       a = -1.500      CL = -0.1189
      Cm = -0.0104     CD =  0.00908   =>   CDf =  0.00581    CDp =  0.00327

 Side 1  free  transition at x/c =  0.6792   61
 Side 2  free  transition at x/c =  0.5450   58

   2   rms: 0.1493E-01   max: 0.2033E+00   D at   62  1
       a = -1.500      CL = -0.1201
      Cm = -0.0102     CD =  0.00903   =>   CDf =  0.00593    CDp =  0.00310

 Side 1  free  transition at x/c =  0.6811   61
 Side 2  free  transition at x/c =  0.5475   58

   3   rms: 0.1605E-02   max: 0.2408E-01   C at   61  1
       a = -1.500      CL = -0.1209
      Cm = -0.0101     CD =  0.00902   =>   CDf =  0.00585    CDp =  0.00318

 Side 1  free  transition at x/c =  0.6803   61
 Side 2  free  transition at x/c =  0.5469   58

   4   rms: 0.1234E-04   max: -.1913E-03   C at   58  2
       a = -1.500      CL = -0.1209
      Cm = -0.0101     CD =  0.00902   =>   CDf =  0.00585    CDp =  0.00317
 plradd ia,ip,cpol            6           0  0.15495406    

 Point added to stored polar  1
 Point written to save file  goe460_Re500k.base.pol                          
 Dump file unspecified or not available
 Calculating wake trajectory ...
 Calculating source influence matrix ...

 Solving BL system ...

 Side 1  free  transition at x/c =  0.6803   61
 Side 2  free  transition at x/c =  0.5469   58

   1   rms: 0.6793E-01   max: 0.3357E+00   C at   61  1
       a = -1.000      CL = -0.0795
      Cm = -0.0069     CD =  0.00909   =>   CDf =  0.00585    CDp =  0.00324

 Side 1  free  transition at x/c =  0.6527   60
 Side 2  free  transition at x/c =  0.5666   59

   2   rms: 0.1268E-01   max: -.1577E+00   C at   59  2
       a = -1.000      CL = -0.0811
      Cm = -0.0066     CD =  0.00902   =>   CDf =  0.00599    CDp =  0.00304

 Side 1  free  transition at x/c =  0.6550   60
 Side 2  free  transition at x/c =  0.5671   59

   3   rms: 0.4619E-02   max: -.8739E-01   C at   59  2
       a = -1.000      CL = -0.0811
      Cm = -0.0066     CD =  0.00903   =>   CDf =  0.00592    CDp =  0.00310

 Side 1  free  transition at x/c =  0.6545   60
 Side 2  free  transition at x/c =  0.5668   59

   4   rms: 0.4909E-02   max: -.9252E-01   C at   59  2
       a = -1.000      CL = -0.0811
      Cm = -0.0066     CD =  0.00903   =>   CDf =  0.00593    CDp =  0.00310

 Side 1  free  transition at x/c =  0.6545   60
 Side 2  free  transition at x/c =  0.5668   59

   5   rms: 0.4867E-02   max: -.9192E-01   C at   59  2
       a = -1.000      CL = -0.0811
      Cm = -0.0066     CD =  0.00903   =>   CDf =  0.00593    CDp =  0.00310

 Side 1  free  transition at x/c =  0.6545   60
 Side 2  free  transition at x/c =  0.5668   59

   6   rms: 0.4872E-02   max: -.9199E-01   C at   59  2
       a = -1.000      CL = -0.0811
      Cm = -0.0066     CD =  0.00903   =>   CDf =  0.00593    CDp =  0.00310

 Side 1  free  transition at x/c =  0.6545   60
 Side 2  free  transition at x/c =  0.5668   59

   7   rms: 0.4871E-02   max: -.9198E-01   C at   59  2
       a = -1.000      CL = -0.0811
      Cm = -0.0066     CD =  0.00903   =>   CDf =  0.00593    CDp =  0.00310

 Side 1  free  transition at x/c =  0.6545   60
 Side 2  free  transition at x/c =  0.5668   59

   8   rms: 0.4871E-02   max: -.9198E-01   C at   59  2
       a = -1.000      CL = -0.0811
      Cm = -0.0066     CD =  0.00903   =>   CDf =  0.00593    CDp =  0.00310

 Side 1  free  transition at x/c =  0.6545   60
 Side 2  free  transition at x/c =  0.5668   59

   9   rms: 0.4871E-02   max: -.9198E-01   C at   59  2
       a = -1.000      CL = -0.0811
      Cm = -0.0066     CD =  0.00903   =>   CDf =  0.00593    CDp =  0.00310

 Side 1  free  transition at x/c =  0.6545   60
 Side 2  free  transition at x/c =  0.5668   59

  10   rms: 0.4871E-02   max: -.9198E-01   C at   59  2
       a = -1.000      CL = -0.0811
      Cm = -0.0066     CD =  0.00903   =>   CDf =  0.00593    CDp =  0.00310

 Side 1  free  transition at x/c =  0.6545   60
 Side 2  free  transition at x/c =  0.5668   59

  11   rms: 0.4871E-02   max: -.9198E-01   C at   59  2
       a = -1.000      CL = -0.0811
      Cm = -0.0066     CD =  0.00903   =>   CDf =  0.00593    CDp =  0.00310

 Side 1  free  transition at x/c =  0.6545   60
 Side 2  free  transition at x/c =  0.5668   59

  12   rms: 0.4871E-02   max: -.9198E-01   C at   59  2
       a = -1.000      CL = -0.0811
      Cm = -0.0066     CD =  0.00903   =>   CDf =  0.00593    CDp =  0.00310

 Side 1  free  transition at x/c =  0.6545   60
 Side 2  free  transition at x/c =  0.5668   59

  13   rms: 0.4871E-02   max: -.9198E-01   C at   59  2
       a = -1.000      CL = -0.0811
      Cm = -0.0066     CD =  0.00903   =>   CDf =  0.00593    CDp =  0.00310

 Side 1  free  transition at x/c =  0.6545   60
 Side 2  free  transition at x/c =  0.5668   59

  14   rms: 0.4871E-02   max: -.9199E-01   C at   59  2
       a = -1.000      CL = -0.0811
      Cm = -0.0066     CD =  0.00903   =>   CDf =  0.00593    CDp =  0.00310

 Side 1  free  transition at x/c =  0.6545   60
 Side 2  free  transition at x/c =  0.5668   59

  15   rms: 0.4871E-02   max: -.9198E-01   C at   59  2
       a = -1.000      CL = -0.0811
      Cm = -0.0066     CD =  0.00903   =>   CDf =  0.00593    CDp =  0.00310

 Side 1  free  transition at x/c =  0.6545   60
 Side 2  free  transition at x/c =  0.5668   59

  16   rms: 0.4871E-02   max: -.9198E-01   C at   59  2
       a = -1.000      CL = -0.0811
      Cm = -0.0066     CD =  0.00903   =>   CDf =  0.00593    CDp =  0.00310

 Side 1  free  transition at x/c =  0.6545   60
 Side 2  free  transition at x/c =  0.5668   59

  17   rms: 0.4872E-02   max: -.9199E-01   C at   59  2
       a = -1.000      CL = -0.0811
      Cm = -0.0066     CD =  0.00903   =>   CDf =  0.00593    CDp =  0.00310

 Side 1  free  transition at x/c =  0.6545   60
 Side 2  free  transition at x/c =  0.5668   59

  18   rms: 0.4871E-02   max: -.9198E-01   C at   59  2
       a = -1.000      CL = -0.0811
      Cm = -0.0066     CD =  0.00903   =>   CDf =  0.00593    CDp =  0.00310

 Side 1  free  transition at x/c =  0.6545   60
 Side 2  free  transition at x/c =  0.5668   59

  19   rms: 0.4871E-02   max: -.9199E-01   C at   59  2
       a = -1.000      CL = -0.0811
      Cm = -0.0066     CD =  0.00903   =>   CDf =  0.00593    CDp =  0.00310

 Side 1  free  transition at x/c =  0.6545   60
 Side 2  free  transition at x/c =  0.5668   59

  20   rms: 0.4871E-02   max: -.9199E-01   C at   59  2
       a = -1.000      CL = -0.0811
      Cm = -0.0066     CD =  0.00903   =>   CDf =  0.00593    CDp =  0.00310

 Side 1  free  transition at x/c =  0.6545   60
 Side 2  free  transition at x/c =  0.5668   59

  21   rms: 0.4871E-02   max: -.9198E-01   C at   59  2
       a = -1.000      CL = -0.0811
      Cm = -0.0066     CD =  0.00903   =>   CDf =  0.00593    CDp =  0.00310

 Side 1  free  transition at x/c =  0.6545   60
 Side 2  free  transition at x/c =  0.5668   59

  22   rms: 0.4871E-02   max: -.9198E-01   C at   59  2
       a = -1.000      CL = -0.0811
      Cm = -0.0066     CD =  0.00903   =>   CDf =  0.00593    CDp =  0.00310

 Side 1  free  transition at x/c =  0.6545   60
 Side 2  free  transition at x/c =  0.5668   59

  23   rms: 0.4871E-02   max: -.9198E-01   C at   59  2
       a = -1.000      CL = -0.0811
      Cm = -0.0066     CD =  0.00903   =>   CDf =  0.00593    CDp =  0.00310

 Side 1  free  transition at x/c =  0.6545   60
 Side 2  free  transition at x/c =  0.5668   59

  24   rms: 0.4871E-02   max: -.9198E-01   C at   59  2
       a = -1.000      CL = -0.0811
      Cm = -0.0066     CD =  0.00903   =>   CDf =  0.00593    CDp =  0.00310

 Side 1  free  transition at x/c =  0.6545   60
 Side 2  free  transition at x/c =  0.5668   59

  25   rms: 0.4871E-02   max: -.9198E-01   C at   59  2
       a = -1.000      CL = -0.0811
      Cm = -0.0066     CD =  0.00903   =>   CDf =  0.00593    CDp =  0.00310

 Side 1  free  transition at x/c =  0.6545   60
 Side 2  free  transition at x/c =  0.5668   59

  26   rms: 0.4871E-02   max: -.9198E-01   C at   59  2
       a = -1.000      CL = -0.0811
      Cm = -0.0066     CD =  0.00903   =>   CDf =  0.00593    CDp =  0.00310

 Side 1  free  transition at x/c =  0.6545   60
 Side 2  free  transition at x/c =  0.5668   59

  27   rms: 0.4871E-02   max: -.9199E-01   C at   59  2
       a = -1.000      CL = -0.0811
      Cm = -0.0066     CD =  0.00903   =>   CDf =  0.00593    CDp =  0.00310

 Side 1  free  transition at x/c =  0.6545   60
 Side 2  free  transition at x/c =  0.5668   59

  28   rms: 0.4871E-02   max: -.9198E-01   C at   59  2
       a = -1.000      CL = -0.0811
      Cm = -0.0066     CD =  0.00903   =>   CDf =  0.00593    CDp =  0.00310

 Side 1  free  transition at x/c =  0.6545   60
 Side 2  free  transition at x/c =  0.5668   59

  29   rms: 0.4871E-02   max: -.9198E-01   C at   59  2
       a = -1.000      CL = -0.0811
      Cm = -0.0066     CD =  0.00903   =>   CDf =  0.00593    CDp =  0.00310

 Side 1  free  transition at x/c =  0.6545   60
 Side 2  free  transition at x/c =  0.5668   59

  30   rms: 0.4871E-02   max: -.9198E-01   C at   59  2
       a = -1.000      CL = -0.0811
      Cm = -0.0066     CD =  0.00903   =>   CDf =  0.00593    CDp =  0.00310

 Side 1  free  transition at x/c =  0.6545   60
 Side 2  free  transition at x/c =  0.5668   59

  31   rms: 0.4871E-02   max: -.9199E-01   C at   59  2
       a = -1.000      CL = -0.0811
      Cm = -0.0066     CD =  0.00903   =>   CDf =  0.00593    CDp =  0.00310

 Side 1  free  transition at x/c =  0.6545   60
 Side 2  free  transition at x/c =  0.5668   59

  32   rms: 0.4871E-02   max: -.9199E-01   C at   59  2
       a = -1.000      CL = -0.0811
      Cm = -0.0066     CD =  0.00903   =>   CDf =  0.00593    CDp =  0.00310

 Side 1  free  transition at x/c =  0.6545   60
 Side 2  free  transition at x/c =  0.5668   59

  33   rms: 0.4871E-02   max: -.9198E-01   C at   59  2
       a = -1.000      CL = -0.0811
      Cm = -0.0066     CD =  0.00903   =>   CDf =  0.00593    CDp =  0.00310

 Side 1  free  transition at x/c =  0.6545   60
 Side 2  free  transition at x/c =  0.5668   59

  34   rms: 0.4871E-02   max: -.9199E-01   C at   59  2
       a = -1.000      CL = -0.0811
      Cm = -0.0066     CD =  0.00903   =>   CDf =  0.00593    CDp =  0.00310

 Side 1  free  transition at x/c =  0.6545   60
 Side 2  free  transition at x/c =  0.5668   59

  35   rms: 0.4871E-02   max: -.9198E-01   C at   59  2
       a = -1.000      CL = -0.0811
      Cm = -0.0066     CD =  0.00903   =>   CDf =  0.00593    CDp =  0.00310

 Side 1  free  transition at x/c =  0.6545   60
 Side 2  free  transition at x/c =  0.5668   59

  36   rms: 0.4871E-02   max: -.9198E-01   C at   59  2
       a = -1.000      CL = -0.0811
      Cm = -0.0066     CD =  0.00903   =>   CDf =  0.00593    CDp =  0.00310

 Side 1  free  transition at x/c =  0.6545   60
 Side 2  free  transition at x/c =  0.5668   59

  37   rms: 0.4871E-02   max: -.9198E-01   C at   59  2
       a = -1.000      CL = -0.0811
      Cm = -0.0066     CD =  0.00903   =>   CDf =  0.00593    CDp =  0.00310

 Side 1  free  transition at x/c =  0.6545   60
 Side 2  free  transition at x/c =  0.5668   59

  38   rms: 0.4871E-02   max: -.9198E-01   C at   59  2
       a = -1.000      CL = -0.0811
      Cm = -0.0066     CD =  0.00903   =>   CDf =  0.00593    CDp =  0.00310

 Side 1  free  transition at x/c =  0.6545   60
 Side 2  free  transition at x/c =  0.5668   59

  39   rms: 0.4871E-02   max: -.9198E-01   C at   59  2
       a = -1.000      CL = -0.0811
      Cm = -0.0066     CD =  0.00903   =>   CDf =  0.00593    CDp =  0.00310

 Side 1  free  transition at x/c =  0.6545   60
 Side 2  free  transition at x/c =  0.5668   59

  40   rms: 0.4871E-02   max: -.9199E-01   C at   59  2
       a = -1.000      CL = -0.0811
      Cm = -0.0066     CD =  0.00903   =>   CDf =  0.00593    CDp =  0.00310

 Side 1  free  transition at x/c =  0.6545   60
 Side 2  free  transition at x/c =  0.5668   59

  41   rms: 0.4871E-02   max: -.9198E-01   C at   59  2
       a = -1.000      CL = -0.0811
      Cm = -0.0066     CD =  0.00903   =>   CDf =  0.00593    CDp =  0.00310

 Side 1  free  transition at x/c =  0.6545   60
 Side 2  free  transition at x/c =  0.5668   59

  42   rms: 0.4871E-02   max: -.9198E-01   C at   59  2
       a = -1.000      CL = -0.0811
      Cm = -0.0066     CD =  0.00903   =>   CDf =  0.00593    CDp =  0.00310

 Side 1  free  transition at x/c =  0.6545   60
 Side 2  free  transition at x/c =  0.5668   59

  43   rms: 0.4871E-02   max: -.9199E-01   C at   59  2
       a = -1.000      CL = -0.0811
      Cm = -0.0066     CD =  0.00903   =>   CDf =  0.00593    CDp =  0.00310

 Side 1  free  transition at x/c =  0.6545   60
 Side 2  free  transition at x/c =  0.5668   59

  44   rms: 0.4871E-02   max: -.9198E-01   C at   59  2
       a = -1.000      CL = -0.0811
      Cm = -0.0066     CD =  0.00903   =>   CDf =  0.00593    CDp =  0.00310

 Side 1  free  transition at x/c =  0.6545   60
 Side 2  free  transition at x/c =  0.5668   59

  45   rms: 0.4872E-02   max: -.9199E-01   C at   59  2
       a = -1.000      CL = -0.0811
      Cm = -0.0066     CD =  0.00903   =>   CDf =  0.00593    CDp =  0.00310

 Side 1  free  transition at x/c =  0.6545   60
 Side 2  free  transition at x/c =  0.5668   59

  46   rms: 0.4871E-02   max: -.9198E-01   C at   59  2
       a = -1.000      CL = -0.0811
      Cm = -0.0066     CD =  0.00903   =>   CDf =  0.00593    CDp =  0.00310

 Side 1  free  transition at x/c =  0.6545   60
 Side 2  free  transition at x/c =  0.5668   59

  47   rms: 0.4871E-02   max: -.9198E-01   C at   59  2
       a = -1.000      CL = -0.0811
      Cm = -0.0066     CD =  0.00903   =>   CDf =  0.00593    CDp =  0.00310

 Side 1  free  transition at x/c =  0.6545   60
 Side 2  free  transition at x/c =  0.5668   59

  48   rms: 0.4871E-02   max: -.9198E-01   C at   59  2
       a = -1.000      CL = -0.0811
      Cm = -0.0066     CD =  0.00903   =>   CDf =  0.00593    CDp =  0.00310

 Side 1  free  transition at x/c =  0.6545   60
 Side 2  free  transition at x/c =  0.5668   59

  49   rms: 0.4871E-02   max: -.9198E-01   C at   59  2
       a = -1.000      CL = -0.0811
      Cm = -0.0066     CD =  0.00903   =>   CDf =  0.00593    CDp =  0.00310

 Side 1  free  transition at x/c =  0.6545   60
 Side 2  free  transition at x/c =  0.5668   59

  50   rms: 0.4871E-02   max: -.9198E-01   C at   59  2
       a = -1.000      CL = -0.0811
      Cm = -0.0066     CD =  0.00903   =>   CDf =  0.00593    CDp =  0.00310

 Side 1  free  transition at x/c =  0.6545   60
 Side 2  free  transition at x/c =  0.5668   59

  51   rms: 0.4871E-02   max: -.9198E-01   C at   59  2
       a = -1.000      CL = -0.0811
      Cm = -0.0066     CD =  0.00903   =>   CDf =  0.00593    CDp =  0.00310

 Side 1  free  transition at x/c =  0.6545   60
 Side 2  free  transition at x/c =  0.5668   59

  52   rms: 0.4871E-02   max: -.9198E-01   C at   59  2
       a = -1.000      CL = -0.0811
      Cm = -0.0066     CD =  0.00903   =>   CDf =  0.00593    CDp =  0.00310

 Side 1  free  transition at x/c =  0.6545   60
 Side 2  free  transition at x/c =  0.5668   59

  53   rms: 0.4871E-02   max: -.9199E-01   C at   59  2
       a = -1.000      CL = -0.0811
      Cm = -0.0066     CD =  0.00903   =>   CDf =  0.00593    CDp =  0.00310

 Side 1  free  transition at x/c =  0.6545   60
 Side 2  free  transition at x/c =  0.5668   59

  54   rms: 0.4871E-02   max: -.9198E-01   C at   59  2
       a = -1.000      CL = -0.0811
      Cm = -0.0066     CD =  0.00903   =>   CDf =  0.00593    CDp =  0.00310

 Side 1  free  transition at x/c =  0.6545   60
 Side 2  free  transition at x/c =  0.5668   59

  55   rms: 0.4871E-02   max: -.9198E-01   C at   59  2
       a = -1.000      CL = -0.0811
      Cm = -0.0066     CD =  0.00903   =>   CDf =  0.00593    CDp =  0.00310

 Side 1  free  transition at x/c =  0.6545   60
 Side 2  free  transition at x/c =  0.5668   59

  56   rms: 0.4871E-02   max: -.9198E-01   C at   59  2
       a = -1.000      CL = -0.0811
      Cm = -0.0066     CD =  0.00903   =>   CDf =  0.00593    CDp =  0.00310

 Side 1  free  transition at x/c =  0.6545   60
 Side 2  free  transition at x/c =  0.5668   59

  57   rms: 0.4871E-02   max: -.9198E-01   C at   59  2
       a = -1.000      CL = -0.0811
      Cm = -0.0066     CD =  0.00903   =>   CDf =  0.00593    CDp =  0.00310

 Side 1  free  transition at x/c =  0.6545   60
 Side 2  free  transition at x/c =  0.5668   59

  58   rms: 0.4871E-02   max: -.9199E-01   C at   59  2
       a = -1.000      CL = -0.0811
      Cm = -0.0066     CD =  0.00903   =>   CDf =  0.00593    CDp =  0.00310

 Side 1  free  transition at x/c =  0.6545   60
 Side 2  free  transition at x/c =  0.5668   59

  59   rms: 0.4871E-02   max: -.9198E-01   C at   59  2
       a = -1.000      CL = -0.0811
      Cm = -0.0066     CD =  0.00903   =>   CDf =  0.00593    CDp =  0.00310

 Side 1  free  transition at x/c =  0.6545   60
 Side 2  free  transition at x/c =  0.5668   59

  60   rms: 0.4871E-02   max: -.9198E-01   C at   59  2
       a = -1.000      CL = -0.0811
      Cm = -0.0066     CD =  0.00903   =>   CDf =  0.00593    CDp =  0.00310

 Side 1  free  transition at x/c =  0.6545   60
 Side 2  free  transition at x/c =  0.5668   59

  61   rms: 0.4871E-02   max: -.9198E-01   C at   59  2
       a = -1.000      CL = -0.0811
      Cm = -0.0066     CD =  0.00903   =>   CDf =  0.00593    CDp =  0.00310

 Side 1  free  transition at x/c =  0.6545   60
 Side 2  free  transition at x/c =  0.5668   59

  62   rms: 0.4871E-02   max: -.9198E-01   C at   59  2
       a = -1.000      CL = -0.0811
      Cm = -0.0066     CD =  0.00903   =>   CDf =  0.00593    CDp =  0.00310

 Side 1  free  transition at x/c =  0.6545   60
 Side 2  free  transition at x/c =  0.5668   59

  63   rms: 0.4871E-02   max: -.9198E-01   C at   59  2
       a = -1.000      CL = -0.0811
      Cm = -0.0066     CD =  0.00903   =>   CDf =  0.00593    CDp =  0.00310

 Side 1  free  transition at x/c =  0.6545   60
 Side 2  free  transition at x/c =  0.5668   59

  64   rms: 0.4871E-02   max: -.9198E-01   C at   59  2
       a = -1.000      CL = -0.0811
      Cm = -0.0066     CD =  0.00903   =>   CDf =  0.00593    CDp =  0.00310

 Side 1  free  transition at x/c =  0.6545   60
 Side 2  free  transition at x/c =  0.5668   59

  65   rms: 0.4871E-02   max: -.9198E-01   C at   59  2
       a = -1.000      CL = -0.0811
      Cm = -0.0066     CD =  0.00903   =>   CDf =  0.00593    CDp =  0.00310

 Side 1  free  transition at x/c =  0.6545   60
 Side 2  free  transition at x/c =  0.5668   59

  66   rms: 0.4871E-02   max: -.9198E-01   C at   59  2
       a = -1.000      CL = -0.0811
      Cm = -0.0066     CD =  0.00903   =>   CDf =  0.00593    CDp =  0.00310

 Side 1  free  transition at x/c =  0.6545   60
 Side 2  free  transition at x/c =  0.5668   59

  67   rms: 0.4871E-02   max: -.9198E-01   C at   59  2
       a = -1.000      CL = -0.0811
      Cm = -0.0066     CD =  0.00903   =>   CDf =  0.00593    CDp =  0.00310

 Side 1  free  transition at x/c =  0.6545   60
 Side 2  free  transition at x/c =  0.5668   59

  68   rms: 0.4871E-02   max: -.9198E-01   C at   59  2
       a = -1.000      CL = -0.0811
      Cm = -0.0066     CD =  0.00903   =>   CDf =  0.00593    CDp =  0.00310

 Side 1  free  transition at x/c =  0.6545   60
 Side 2  free  transition at x/c =  0.5668   59

  69   rms: 0.4871E-02   max: -.9198E-01   C at   59  2
       a = -1.000      CL = -0.0811
      Cm = -0.0066     CD =  0.00903   =>   CDf =  0.00593    CDp =  0.00310

 Side 1  free  transition at x/c =  0.6545   60
 Side 2  free  transition at x/c =  0.5668   59

  70   rms: 0.4871E-02   max: -.9198E-01   C at   59  2
       a = -1.000      CL = -0.0811
      Cm = -0.0066     CD =  0.00903   =>   CDf =  0.00593    CDp =  0.00310

 Side 1  free  transition at x/c =  0.6545   60
 Side 2  free  transition at x/c =  0.5668   59

  71   rms: 0.4871E-02   max: -.9198E-01   C at   59  2
       a = -1.000      CL = -0.0811
      Cm = -0.0066     CD =  0.00903   =>   CDf =  0.00593    CDp =  0.00310

 Side 1  free  transition at x/c =  0.6545   60
 Side 2  free  transition at x/c =  0.5668   59

  72   rms: 0.4871E-02   max: -.9198E-01   C at   59  2
       a = -1.000      CL = -0.0811
      Cm = -0.0066     CD =  0.00903   =>   CDf =  0.00593    CDp =  0.00310

 Side 1  free  transition at x/c =  0.6545   60
 Side 2  free  transition at x/c =  0.5668   59

  73   rms: 0.4871E-02   max: -.9198E-01   C at   59  2
       a = -1.000      CL = -0.0811
      Cm = -0.0066     CD =  0.00903   =>   CDf =  0.00593    CDp =  0.00310

 Side 1  free  transition at x/c =  0.6545   60
 Side 2  free  transition at x/c =  0.5668   59

  74   rms: 0.4871E-02   max: -.9198E-01   C at   59  2
       a = -1.000      CL = -0.0811
      Cm = -0.0066     CD =  0.00903   =>   CDf =  0.00593    CDp =  0.00310

 Side 1  free  transition at x/c =  0.6545   60
 Side 2  free  transition at x/c =  0.5668   59

  75   rms: 0.4871E-02   max: -.9199E-01   C at   59  2
       a = -1.000      CL = -0.0811
      Cm = -0.0066     CD =  0.00903   =>   CDf =  0.00593    CDp =  0.00310

 Side 1  free  transition at x/c =  0.6545   60
 Side 2  free  transition at x/c =  0.5668   59

  76   rms: 0.4871E-02   max: -.9199E-01   C at   59  2
       a = -1.000      CL = -0.0811
      Cm = -0.0066     CD =  0.00903   =>   CDf =  0.00593    CDp =  0.00310

 Side 1  free  transition at x/c =  0.6545   60
 Side 2  free  transition at x/c =  0.5668   59

  77   rms: 0.4871E-02   max: -.9198E-01   C at   59  2
       a = -1.000      CL = -0.0811
      Cm = -0.0066     CD =  0.00903   =>   CDf =  0.00593    CDp =  0.00310

 Side 1  free  transition at x/c =  0.6545   60
 Side 2  free  transition at x/c =  0.5668   59

  78   rms: 0.4871E-02   max: -.9198E-01   C at   59  2
       a = -1.000      CL = -0.0811
      Cm = -0.0066     CD =  0.00903   =>   CDf =  0.00593    CDp =  0.00310

 Side 1  free  transition at x/c =  0.6545   60
 Side 2  free  transition at x/c =  0.5668   59

  79   rms: 0.4871E-02   max: -.9198E-01   C at   59  2
       a = -1.000      CL = -0.0811
      Cm = -0.0066     CD =  0.00903   =>   CDf =  0.00593    CDp =  0.00310

 Side 1  free  transition at x/c =  0.6545   60
 Side 2  free  transition at x/c =  0.5668   59

  80   rms: 0.4871E-02   max: -.9198E-01   C at   59  2
       a = -1.000      CL = -0.0811
      Cm = -0.0066     CD =  0.00903   =>   CDf =  0.00593    CDp =  0.00310

 Side 1  free  transition at x/c =  0.6545   60
 Side 2  free  transition at x/c =  0.5668   59

  81   rms: 0.4871E-02   max: -.9198E-01   C at   59  2
       a = -1.000      CL = -0.0811
      Cm = -0.0066     CD =  0.00903   =>   CDf =  0.00593    CDp =  0.00310

 Side 1  free  transition at x/c =  0.6545   60
 Side 2  free  transition at x/c =  0.5668   59

  82   rms: 0.4871E-02   max: -.9198E-01   C at   59  2
       a = -1.000      CL = -0.0811
      Cm = -0.0066     CD =  0.00903   =>   CDf =  0.00593    CDp =  0.00310

 Side 1  free  transition at x/c =  0.6545   60
 Side 2  free  transition at x/c =  0.5668   59

  83   rms: 0.4871E-02   max: -.9198E-01   C at   59  2
       a = -1.000      CL = -0.0811
      Cm = -0.0066     CD =  0.00903   =>   CDf =  0.00593    CDp =  0.00310

 Side 1  free  transition at x/c =  0.6545   60
 Side 2  free  transition at x/c =  0.5668   59

  84   rms: 0.4871E-02   max: -.9198E-01   C at   59  2
       a = -1.000      CL = -0.0811
      Cm = -0.0066     CD =  0.00903   =>   CDf =  0.00593    CDp =  0.00310

 Side 1  free  transition at x/c =  0.6545   60
 Side 2  free  transition at x/c =  0.5668   59

  85   rms: 0.4871E-02   max: -.9199E-01   C at   59  2
       a = -1.000      CL = -0.0811
      Cm = -0.0066     CD =  0.00903   =>   CDf =  0.00593    CDp =  0.00310

 Side 1  free  transition at x/c =  0.6545   60
 Side 2  free  transition at x/c =  0.5668   59

  86   rms: 0.4871E-02   max: -.9198E-01   C at   59  2
       a = -1.000      CL = -0.0811
      Cm = -0.0066     CD =  0.00903   =>   CDf =  0.00593    CDp =  0.00310

 Side 1  free  transition at x/c =  0.6545   60
 Side 2  free  transition at x/c =  0.5668   59

  87   rms: 0.4871E-02   max: -.9198E-01   C at   59  2
       a = -1.000      CL = -0.0811
      Cm = -0.0066     CD =  0.00903   =>   CDf =  0.00593    CDp =  0.00310

 Side 1  free  transition at x/c =  0.6545   60
 Side 2  free  transition at x/c =  0.5668   59

  88   rms: 0.4871E-02   max: -.9198E-01   C at   59  2
       a = -1.000      CL = -0.0811
      Cm = -0.0066     CD =  0.00903   =>   CDf =  0.00593    CDp =  0.00310

 Side 1  free  transition at x/c =  0.6545   60
 Side 2  free  transition at x/c =  0.5668   59

  89   rms: 0.4871E-02   max: -.9198E-01   C at   59  2
       a = -1.000      CL = -0.0811
      Cm = -0.0066     CD =  0.00903   =>   CDf =  0.00593    CDp =  0.00310

 Side 1  free  transition at x/c =  0.6545   60
 Side 2  free  transition at x/c =  0.5668   59

  90   rms: 0.4871E-02   max: -.9198E-01   C at   59  2
       a = -1.000      CL = -0.0811
      Cm = -0.0066     CD =  0.00903   =>   CDf =  0.00593    CDp =  0.00310

 Side 1  free  transition at x/c =  0.6545   60
 Side 2  free  transition at x/c =  0.5668   59

  91   rms: 0.4871E-02   max: -.9198E-01   C at   59  2
       a = -1.000      CL = -0.0811
      Cm = -0.0066     CD =  0.00903   =>   CDf =  0.00593    CDp =  0.00310

 Side 1  free  transition at x/c =  0.6545   60
 Side 2  free  transition at x/c =  0.5668   59

  92   rms: 0.4871E-02   max: -.9198E-01   C at   59  2
       a = -1.000      CL = -0.0811
      Cm = -0.0066     CD =  0.00903   =>   CDf =  0.00593    CDp =  0.00310

 Side 1  free  transition at x/c =  0.6545   60
 Side 2  free  transition at x/c =  0.5668   59

  93   rms: 0.4871E-02   max: -.9198E-01   C at   59  2
       a = -1.000      CL = -0.0811
      Cm = -0.0066     CD =  0.00903   =>   CDf =  0.00593    CDp =  0.00310

 Side 1  free  transition at x/c =  0.6545   60
 Side 2  free  transition at x/c =  0.5668   59

  94   rms: 0.4871E-02   max: -.9198E-01   C at   59  2
       a = -1.000      CL = -0.0811
      Cm = -0.0066     CD =  0.00903   =>   CDf =  0.00593    CDp =  0.00310

 Side 1  free  transition at x/c =  0.6545   60
 Side 2  free  transition at x/c =  0.5668   59

  95   rms: 0.4871E-02   max: -.9198E-01   C at   59  2
       a = -1.000      CL = -0.0811
      Cm = -0.0066     CD =  0.00903   =>   CDf =  0.00593    CDp =  0.00310

 Side 1  free  transition at x/c =  0.6545   60
 Side 2  free  transition at x/c =  0.5668   59

  96   rms: 0.4871E-02   max: -.9198E-01   C at   59  2
       a = -1.000      CL = -0.0811
      Cm = -0.0066     CD =  0.00903   =>   CDf =  0.00593    CDp =  0.00310

 Side 1  free  transition at x/c =  0.6545   60
 Side 2  free  transition at x/c =  0.5668   59

  97   rms: 0.4871E-02   max: -.9198E-01   C at   59  2
       a = -1.000      CL = -0.0811
      Cm = -0.0066     CD =  0.00903   =>   CDf =  0.00593    CDp =  0.00310

 Side 1  free  transition at x/c =  0.6545   60
 Side 2  free  transition at x/c =  0.5668   59

  98   rms: 0.4871E-02   max: -.9198E-01   C at   59  2
       a = -1.000      CL = -0.0811
      Cm = -0.0066     CD =  0.00903   =>   CDf =  0.00593    CDp =  0.00310

 Side 1  free  transition at x/c =  0.6545   60
 Side 2  free  transition at x/c =  0.5668   59

  99   rms: 0.4871E-02   max: -.9198E-01   C at   59  2
       a = -1.000      CL = -0.0811
      Cm = -0.0066     CD =  0.00903   =>   CDf =  0.00593    CDp =  0.00310

 Side 1  free  transition at x/c =  0.6545   60
 Side 2  free  transition at x/c =  0.5668   59

 100   rms: 0.4871E-02   max: -.9198E-01   C at   59  2
       a = -1.000      CL = -0.0811
      Cm = -0.0066     CD =  0.00903   =>   CDf =  0.00593    CDp =  0.00310

 Side 1  free  transition at x/c =  0.6545   60
 Side 2  free  transition at x/c =  0.5668   59

 101   rms: 0.4871E-02   max: -.9198E-01   C at   59  2
       a = -1.000      CL = -0.0811
      Cm = -0.0066     CD =  0.00903   =>   CDf =  0.00593    CDp =  0.00310

 Side 1  free  transition at x/c =  0.6545   60
 Side 2  free  transition at x/c =  0.5668   59

 102   rms: 0.4871E-02   max: -.9198E-01   C at   59  2
       a = -1.000      CL = -0.0811
      Cm = -0.0066     CD =  0.00903   =>   CDf =  0.00593    CDp =  0.00310

 Side 1  free  transition at x/c =  0.6545   60
 Side 2  free  transition at x/c =  0.5668   59

 103   rms: 0.4871E-02   max: -.9198E-01   C at   59  2
       a = -1.000      CL = -0.0811
      Cm = -0.0066     CD =  0.00903   =>   CDf =  0.00593    CDp =  0.00310

 Side 1  free  transition at x/c =  0.6545   60
 Side 2  free  transition at x/c =  0.5668   59

 104   rms: 0.4871E-02   max: -.9198E-01   C at   59  2
       a = -1.000      CL = -0.0811
      Cm = -0.0066     CD =  0.00903   =>   CDf =  0.00593    CDp =  0.00310

 Side 1  free  transition at x/c =  0.6545   60
 Side 2  free  transition at x/c =  0.5668   59

 105   rms: 0.4871E-02   max: -.9198E-01   C at   59  2
       a = -1.000      CL = -0.0811
      Cm = -0.0066     CD =  0.00903   =>   CDf =  0.00593    CDp =  0.00310

 Side 1  free  transition at x/c =  0.6545   60
 Side 2  free  transition at x/c =  0.5668   59

 106   rms: 0.4871E-02   max: -.9198E-01   C at   59  2
       a = -1.000      CL = -0.0811
      Cm = -0.0066     CD =  0.00903   =>   CDf =  0.00593    CDp =  0.00310

 Side 1  free  transition at x/c =  0.6545   60
 Side 2  free  transition at x/c =  0.5668   59

 107   rms: 0.4871E-02   max: -.9198E-01   C at   59  2
       a = -1.000      CL = -0.0811
      Cm = -0.0066     CD =  0.00903   =>   CDf =  0.00593    CDp =  0.00310

 Side 1  free  transition at x/c =  0.6545   60
 Side 2  free  transition at x/c =  0.5668   59

 108   rms: 0.4871E-02   max: -.9198E-01   C at   59  2
       a = -1.000      CL = -0.0811
      Cm = -0.0066     CD =  0.00903   =>   CDf =  0.00593    CDp =  0.00310

 Side 1  free  transition at x/c =  0.6545   60
 Side 2  free  transition at x/c =  0.5668   59

 109   rms: 0.4871E-02   max: -.9198E-01   C at   59  2
       a = -1.000      CL = -0.0811
      Cm = -0.0066     CD =  0.00903   =>   CDf =  0.00593    CDp =  0.00310

 Side 1  free  transition at x/c =  0.6545   60
 Side 2  free  transition at x/c =  0.5668   59

 110   rms: 0.4871E-02   max: -.9198E-01   C at   59  2
       a = -1.000      CL = -0.0811
      Cm = -0.0066     CD =  0.00903   =>   CDf =  0.00593    CDp =  0.00310

 Side 1  free  transition at x/c =  0.6545   60
 Side 2  free  transition at x/c =  0.5668   59

 111   rms: 0.4871E-02   max: -.9198E-01   C at   59  2
       a = -1.000      CL = -0.0811
      Cm = -0.0066     CD =  0.00903   =>   CDf =  0.00593    CDp =  0.00310

 Side 1  free  transition at x/c =  0.6545   60
 Side 2  free  transition at x/c =  0.5668   59

 112   rms: 0.4871E-02   max: -.9198E-01   C at   59  2
       a = -1.000      CL = -0.0811
      Cm = -0.0066     CD =  0.00903   =>   CDf =  0.00593    CDp =  0.00310

 Side 1  free  transition at x/c =  0.6545   60
 Side 2  free  transition at x/c =  0.5668   59

 113   rms: 0.4871E-02   max: -.9198E-01   C at   59  2
       a = -1.000      CL = -0.0811
      Cm = -0.0066     CD =  0.00903   =>   CDf =  0.00593    CDp =  0.00310

 Side 1  free  transition at x/c =  0.6545   60
 Side 2  free  transition at x/c =  0.5668   59

 114   rms: 0.4871E-02   max: -.9198E-01   C at   59  2
       a = -1.000      CL = -0.0811
      Cm = -0.0066     CD =  0.00903   =>   CDf =  0.00593    CDp =  0.00310

 Side 1  free  transition at x/c =  0.6545   60
 Side 2  free  transition at x/c =  0.5668   59

 115   rms: 0.4871E-02   max: -.9198E-01   C at   59  2
       a = -1.000      CL = -0.0811
      Cm = -0.0066     CD =  0.00903   =>   CDf =  0.00593    CDp =  0.00310

 Side 1  free  transition at x/c =  0.6545   60
 Side 2  free  transition at x/c =  0.5668   59

 116   rms: 0.4871E-02   max: -.9199E-01   C at   59  2
       a = -1.000      CL = -0.0811
      Cm = -0.0066     CD =  0.00903   =>   CDf =  0.00593    CDp =  0.00310

 Side 1  free  transition at x/c =  0.6545   60
 Side 2  free  transition at x/c =  0.5668   59

 117   rms: 0.4871E-02   max: -.9199E-01   C at   59  2
       a = -1.000      CL = -0.0811
      Cm = -0.0066     CD =  0.00903   =>   CDf =  0.00593    CDp =  0.00310

 Side 1  free  transition at x/c =  0.6545   60
 Side 2  free  transition at x/c =  0.5668   59

 118   rms: 0.4871E-02   max: -.9198E-01   C at   59  2
       a = -1.000      CL = -0.0811
      Cm = -0.0066     CD =  0.00903   =>   CDf =  0.00593    CDp =  0.00310

 Side 1  free  transition at x/c =  0.6545   60
 Side 2  free  transition at x/c =  0.5668   59

 119   rms: 0.4871E-02   max: -.9198E-01   C at   59  2
       a = -1.000      CL = -0.0811
      Cm = -0.0066     CD =  0.00903   =>   CDf =  0.00593    CDp =  0.00310

 Side 1  free  transition at x/c =  0.6545   60
 Side 2  free  transition at x/c =  0.5668   59

 120   rms: 0.4871E-02   max: -.9198E-01   C at   59  2
       a = -1.000      CL = -0.0811
      Cm = -0.0066     CD =  0.00903   =>   CDf =  0.00593    CDp =  0.00310

 Side 1  free  transition at x/c =  0.6545   60
 Side 2  free  transition at x/c =  0.5668   59

 121   rms: 0.4871E-02   max: -.9198E-01   C at   59  2
       a = -1.000      CL = -0.0811
      Cm = -0.0066     CD =  0.00903   =>   CDf =  0.00593    CDp =  0.00310

 Side 1  free  transition at x/c =  0.6545   60
 Side 2  free  transition at x/c =  0.5668   59

 122   rms: 0.4871E-02   max: -.9198E-01   C at   59  2
       a = -1.000      CL = -0.0811
      Cm = -0.0066     CD =  0.00903   =>   CDf =  0.00593    CDp =  0.00310

 Side 1  free  transition at x/c =  0.6545   60
 Side 2  free  transition at x/c =  0.5668   59

 123   rms: 0.4871E-02   max: -.9198E-01   C at   59  2
       a = -1.000      CL = -0.0811
      Cm = -0.0066     CD =  0.00903   =>   CDf =  0.00593    CDp =  0.00310

 Side 1  free  transition at x/c =  0.6545   60
 Side 2  free  transition at x/c =  0.5668   59

 124   rms: 0.4871E-02   max: -.9198E-01   C at   59  2
       a = -1.000      CL = -0.0811
      Cm = -0.0066     CD =  0.00903   =>   CDf =  0.00593    CDp =  0.00310

 Side 1  free  transition at x/c =  0.6545   60
 Side 2  free  transition at x/c =  0.5668   59

 125   rms: 0.4871E-02   max: -.9198E-01   C at   59  2
       a = -1.000      CL = -0.0811
      Cm = -0.0066     CD =  0.00903   =>   CDf =  0.00593    CDp =  0.00310

 Side 1  free  transition at x/c =  0.6545   60
 Side 2  free  transition at x/c =  0.5668   59

 126   rms: 0.4871E-02   max: -.9198E-01   C at   59  2
       a = -1.000      CL = -0.0811
      Cm = -0.0066     CD =  0.00903   =>   CDf =  0.00593    CDp =  0.00310

 Side 1  free  transition at x/c =  0.6545   60
 Side 2  free  transition at x/c =  0.5668   59

 127   rms: 0.4871E-02   max: -.9199E-01   C at   59  2
       a = -1.000      CL = -0.0811
      Cm = -0.0066     CD =  0.00903   =>   CDf =  0.00593    CDp =  0.00310

 Side 1  free  transition at x/c =  0.6545   60
 Side 2  free  transition at x/c =  0.5668   59

 128   rms: 0.4871E-02   max: -.9198E-01   C at   59  2
       a = -1.000      CL = -0.0811
      Cm = -0.0066     CD =  0.00903   =>   CDf =  0.00593    CDp =  0.00310

 Side 1  free  transition at x/c =  0.6545   60
 Side 2  free  transition at x/c =  0.5668   59

 129   rms: 0.4871E-02   max: -.9198E-01   C at   59  2
       a = -1.000      CL = -0.0811
      Cm = -0.0066     CD =  0.00903   =>   CDf =  0.00593    CDp =  0.00310

 Side 1  free  transition at x/c =  0.6545   60
 Side 2  free  transition at x/c =  0.5668   59

 130   rms: 0.4871E-02   max: -.9198E-01   C at   59  2
       a = -1.000      CL = -0.0811
      Cm = -0.0066     CD =  0.00903   =>   CDf =  0.00593    CDp =  0.00310

 Side 1  free  transition at x/c =  0.6545   60
 Side 2  free  transition at x/c =  0.5668   59

 131   rms: 0.4871E-02   max: -.9198E-01   C at   59  2
       a = -1.000      CL = -0.0811
      Cm = -0.0066     CD =  0.00903   =>   CDf =  0.00593    CDp =  0.00310

 Side 1  free  transition at x/c =  0.6545   60
 Side 2  free  transition at x/c =  0.5668   59

 132   rms: 0.4871E-02   max: -.9198E-01   C at   59  2
       a = -1.000      CL = -0.0811
      Cm = -0.0066     CD =  0.00903   =>   CDf =  0.00593    CDp =  0.00310

 Side 1  free  transition at x/c =  0.6545   60
 Side 2  free  transition at x/c =  0.5668   59

 133   rms: 0.4871E-02   max: -.9198E-01   C at   59  2
       a = -1.000      CL = -0.0811
      Cm = -0.0066     CD =  0.00903   =>   CDf =  0.00593    CDp =  0.00310

 Side 1  free  transition at x/c =  0.6545   60
 Side 2  free  transition at x/c =  0.5668   59

 134   rms: 0.4871E-02   max: -.9198E-01   C at   59  2
       a = -1.000      CL = -0.0811
      Cm = -0.0066     CD =  0.00903   =>   CDf =  0.00593    CDp =  0.00310

 Side 1  free  transition at x/c =  0.6545   60
 Side 2  free  transition at x/c =  0.5668   59

 135   rms: 0.4871E-02   max: -.9198E-01   C at   59  2
       a = -1.000      CL = -0.0811
      Cm = -0.0066     CD =  0.00903   =>   CDf =  0.00593    CDp =  0.00310

 Side 1  free  transition at x/c =  0.6545   60
 Side 2  free  transition at x/c =  0.5668   59

 136   rms: 0.4871E-02   max: -.9199E-01   C at   59  2
       a = -1.000      CL = -0.0811
      Cm = -0.0066     CD =  0.00903   =>   CDf =  0.00593    CDp =  0.00310

 Side 1  free  transition at x/c =  0.6545   60
 Side 2  free  transition at x/c =  0.5668   59

 137   rms: 0.4871E-02   max: -.9198E-01   C at   59  2
       a = -1.000      CL = -0.0811
      Cm = -0.0066     CD =  0.00903   =>   CDf =  0.00593    CDp =  0.00310

 Side 1  free  transition at x/c =  0.6545   60
 Side 2  free  transition at x/c =  0.5668   59

 138   rms: 0.4871E-02   max: -.9198E-01   C at   59  2
       a = -1.000      CL = -0.0811
      Cm = -0.0066     CD =  0.00903   =>   CDf =  0.00593    CDp =  0.00310

 Side 1  free  transition at x/c =  0.6545   60
 Side 2  free  transition at x/c =  0.5668   59

 139   rms: 0.4871E-02   max: -.9198E-01   C at   59  2
       a = -1.000      CL = -0.0811
      Cm = -0.0066     CD =  0.00903   =>   CDf =  0.00593    CDp =  0.00310

 Side 1  free  transition at x/c =  0.6545   60
 Side 2  free  transition at x/c =  0.5668   59

 140   rms: 0.4871E-02   max: -.9199E-01   C at   59  2
       a = -1.000      CL = -0.0811
      Cm = -0.0066     CD =  0.00903   =>   CDf =  0.00593    CDp =  0.00310

 Side 1  free  transition at x/c =  0.6545   60
 Side 2  free  transition at x/c =  0.5668   59

 141   rms: 0.4871E-02   max: -.9199E-01   C at   59  2
       a = -1.000      CL = -0.0811
      Cm = -0.0066     CD =  0.00903   =>   CDf =  0.00593    CDp =  0.00310

 Side 1  free  transition at x/c =  0.6545   60
 Side 2  free  transition at x/c =  0.5668   59

 142   rms: 0.4871E-02   max: -.9198E-01   C at   59  2
       a = -1.000      CL = -0.0811
      Cm = -0.0066     CD =  0.00903   =>   CDf =  0.00593    CDp =  0.00310

 Side 1  free  transition at x/c =  0.6545   60
 Side 2  free  transition at x/c =  0.5668   59

 143   rms: 0.4871E-02   max: -.9198E-01   C at   59  2
       a = -1.000      CL = -0.0811
      Cm = -0.0066     CD =  0.00903   =>   CDf =  0.00593    CDp =  0.00310

 Side 1  free  transition at x/c =  0.6545   60
 Side 2  free  transition at x/c =  0.5668   59

 144   rms: 0.4871E-02   max: -.9198E-01   C at   59  2
       a = -1.000      CL = -0.0811
      Cm = -0.0066     CD =  0.00903   =>   CDf =  0.00593    CDp =  0.00310

 Side 1  free  transition at x/c =  0.6545   60
 Side 2  free  transition at x/c =  0.5668   59

 145   rms: 0.4871E-02   max: -.9198E-01   C at   59  2
       a = -1.000      CL = -0.0811
      Cm = -0.0066     CD =  0.00903   =>   CDf =  0.00593    CDp =  0.00310

 Side 1  free  transition at x/c =  0.6545   60
 Side 2  free  transition at x/c =  0.5668   59

 146   rms: 0.4871E-02   max: -.9199E-01   C at   59  2
       a = -1.000      CL = -0.0811
      Cm = -0.0066     CD =  0.00903   =>   CDf =  0.00593    CDp =  0.00310

 Side 1  free  transition at x/c =  0.6545   60
 Side 2  free  transition at x/c =  0.5668   59

 147   rms: 0.4871E-02   max: -.9199E-01   C at   59  2
       a = -1.000      CL = -0.0811
      Cm = -0.0066     CD =  0.00903   =>   CDf =  0.00593    CDp =  0.00310

 Side 1  free  transition at x/c =  0.6545   60
 Side 2  free  transition at x/c =  0.5668   59

 148   rms: 0.4871E-02   max: -.9198E-01   C at   59  2
       a = -1.000      CL = -0.0811
      Cm = -0.0066     CD =  0.00903   =>   CDf =  0.00593    CDp =  0.00310

 Side 1  free  transition at x/c =  0.6545   60
 Side 2  free  transition at x/c =  0.5668   59

 149   rms: 0.4871E-02   max: -.9198E-01   C at   59  2
       a = -1.000      CL = -0.0811
      Cm = -0.0066     CD =  0.00903   =>   CDf =  0.00593    CDp =  0.00310

 Side 1  free  transition at x/c =  0.6545   60
 Side 2  free  transition at x/c =  0.5668   59

 150   rms: 0.4871E-02   max: -.9198E-01   C at   59  2
       a = -1.000      CL = -0.0811
      Cm = -0.0066     CD =  0.00903   =>   CDf =  0.00593    CDp =  0.00310

 Side 1  free  transition at x/c =  0.6545   60
 Side 2  free  transition at x/c =  0.5668   59

 151   rms: 0.4871E-02   max: -.9198E-01   C at   59  2
       a = -1.000      CL = -0.0811
      Cm = -0.0066     CD =  0.00903   =>   CDf =  0.00593    CDp =  0.00310

 Side 1  free  transition at x/c =  0.6545   60
 Side 2  free  transition at x/c =  0.5668   59

 152   rms: 0.4871E-02   max: -.9198E-01   C at   59  2
       a = -1.000      CL = -0.0811
      Cm = -0.0066     CD =  0.00903   =>   CDf =  0.00593    CDp =  0.00310

 Side 1  free  transition at x/c =  0.6545   60
 Side 2  free  transition at x/c =  0.5668   59

 153   rms: 0.4871E-02   max: -.9198E-01   C at   59  2
       a = -1.000      CL = -0.0811
      Cm = -0.0066     CD =  0.00903   =>   CDf =  0.00593    CDp =  0.00310

 Side 1  free  transition at x/c =  0.6545   60
 Side 2  free  transition at x/c =  0.5668   59

 154   rms: 0.4871E-02   max: -.9198E-01   C at   59  2
       a = -1.000      CL = -0.0811
      Cm = -0.0066     CD =  0.00903   =>   CDf =  0.00593    CDp =  0.00310

 Side 1  free  transition at x/c =  0.6545   60
 Side 2  free  transition at x/c =  0.5668   59

 155   rms: 0.4871E-02   max: -.9198E-01   C at   59  2
       a = -1.000      CL = -0.0811
      Cm = -0.0066     CD =  0.00903   =>   CDf =  0.00593    CDp =  0.00310
 VISCAL:  Convergence failed
 Calculating wake trajectory ...
 Calculating source influence matrix ...

 Solving BL system ...

 Side 1  free  transition at x/c =  0.6545   60
 Side 2  free  transition at x/c =  0.5668   59

   1   rms: 0.6994E-01   max: 0.4210E+00   C at   60  1
       a = -0.500      CL = -0.0396
      Cm = -0.0034     CD =  0.00921   =>   CDf =  0.00594    CDp =  0.00326

 Side 1  free  transition at x/c =  0.6274   60
 Side 2  free  transition at x/c =  0.5867   59

   2   rms: 0.1293E-01   max: -.1801E+00   C at   59  2
       a = -0.500      CL = -0.0406
      Cm = -0.0033     CD =  0.00905   =>   CDf =  0.00606    CDp =  0.00298

 Side 1  free  transition at x/c =  0.6296   60
 Side 2  free  transition at x/c =  0.5867   59

   3   rms: 0.5229E-02   max: -.9926E-01   C at   59  2
       a = -0.500      CL = -0.0408
      Cm = -0.0032     CD =  0.00905   =>   CDf =  0.00599    CDp =  0.00306

 Side 1  free  transition at x/c =  0.6296   60
 Side 2  free  transition at x/c =  0.5871   59

   4   rms: 0.2468E-03   max: 0.3331E-02   C at   59  2
       a = -0.500      CL = -0.0410
      Cm = -0.0032     CD =  0.00905   =>   CDf =  0.00596    CDp =  0.00309

 Side 1  free  transition at x/c =  0.6296   60
 Side 2  free  transition at x/c =  0.5870   59

   5   rms: 0.1071E-05   max: -.1152E-04   C at   59  2
       a = -0.500      CL = -0.0410
      Cm = -0.0032     CD =  0.00905   =>   CDf =  0.00596    CDp =  0.00309
 plradd ia,ip,cpol            7           0  0.15495406    

 Point added to stored polar  1
 Point written to save file  goe460_Re500k.base.pol                          
 Dump file unspecified or not available
 Calculating wake trajectory ...
 Calculating source influence matrix ...

 Solving BL system ...

 Side 1  free  transition at x/c =  0.6296   60
 Side 2  free  transition at x/c =  0.5870   59

   1   rms: 0.7179E-01   max: 0.3852E+00   C at   60  1
       a =  0.000      CL =  0.0016
      Cm = -0.0003     CD =  0.00927   =>   CDf =  0.00597    CDp =  0.00330

 Side 1  free  transition at x/c =  0.6070   60
 Side 2  free  transition at x/c =  0.6076   60

   2   rms: 0.1249E-01   max: 0.2116E+00   D at   60  1
       a =  0.000      CL =  0.0002
      Cm = -0.0000     CD =  0.00908   =>   CDf =  0.00604    CDp =  0.00304

 Side 1  free  transition at x/c =  0.6074   60
 Side 2  free  transition at x/c =  0.6071   60

   3   rms: 0.1465E-02   max: 0.1525E-01   C at   60  1
       a =  0.000      CL = -0.0000
      Cm =  0.0000     CD =  0.00908   =>   CDf =  0.00599    CDp =  0.00309

 Side 1  free  transition at x/c =  0.6068   59
 Side 2  free  transition at x/c =  0.6069   59

   4   rms: 0.1623E-03   max: -.2446E-02   C at   59  1
       a =  0.000      CL = -0.0000
      Cm =  0.0000     CD =  0.00907   =>   CDf =  0.00600    CDp =  0.00307

 Side 1  free  transition at x/c =  0.6068   59
 Side 2  free  transition at x/c =  0.6069   59

   5   rms: 0.1019E-05   max: -.5453E-05   C at   59  1
       a =  0.000      CL = -0.0000
      Cm =  0.0000     CD =  0.00907   =>   CDf =  0.00600    CDp =  0.00307
 plradd ia,ip,cpol            8           0  0.15495406    

 Point added to stored polar  1
 Point written to save file  goe460_Re500k.base.pol                          
 Dump file unspecified or not available
 Calculating wake trajectory ...
 Calculating source influence matrix ...

 Solving BL system ...

 Side 1  free  transition at x/c =  0.6068   59
 Side 2  free  transition at x/c =  0.6069   59

   1   rms: 0.6609E-01   max: -.1964E+00   T at   59  2
       a =  0.500      CL =  0.0440
      Cm =  0.0026     CD =  0.00908   =>   CDf =  0.00600    CDp =  0.00308

 Side 1  free  transition at x/c =  0.5846   59
 Side 2  free  transition at x/c =  0.6289   60

   2   rms: 0.9667E-02   max: -.9887E-01   D at   59  2
       a =  0.500      CL =  0.0412
      Cm =  0.0032     CD =  0.00904   =>   CDf =  0.00604    CDp =  0.00300

 Side 1  free  transition at x/c =  0.5871   59
 Side 2  free  transition at x/c =  0.6299   60

   3   rms: 0.1088E-02   max: 0.1599E-01   C at   60  2
       a =  0.500      CL =  0.0411
      Cm =  0.0032     CD =  0.00905   =>   CDf =  0.00596    CDp =  0.00309

 Side 1  free  transition at x/c =  0.5870   59
 Side 2  free  transition at x/c =  0.6294   60

   4   rms: 0.9763E-05   max: -.2023E-03   D at   61  2
       a =  0.500      CL =  0.0411
      Cm =  0.0032     CD =  0.00905   =>   CDf =  0.00597    CDp =  0.00308
 plradd ia,ip,cpol            9           0  0.15495422    

 Point added to stored polar  1
 Point written to save file  goe460_Re500k.base.pol                          
 Dump file unspecified or not available
 Calculating wake trajectory ...
 Calculating source influence matrix ...

 Solving BL system ...

 Side 1  free  transition at x/c =  0.5870   59
 Side 2  free  transition at x/c =  0.6294   60

   1   rms: 0.7179E-01   max: -.3757E+00   C at   60  2
       a =  1.000      CL =  0.0837
      Cm =  0.0061     CD =  0.00884   =>   CDf =  0.00596    CDp =  0.00288

 Side 1  free  transition at x/c =  0.5642   59
 Side 2  free  transition at x/c =  0.6459   59

   2   rms: 0.1585E-01   max: -.2000E+00   D at   59  2
       a =  1.000      CL =  0.0818
      Cm =  0.0064     CD =  0.00911   =>   CDf =  0.00612    CDp =  0.00300

 Side 1  free  transition at x/c =  0.5670   59
 Side 2  free  transition at x/c =  0.6575   60

   3   rms: 0.7897E-02   max: 0.1072E+00   C at   60  2
       a =  1.000      CL =  0.0812
      Cm =  0.0066     CD =  0.00903   =>   CDf =  0.00591    CDp =  0.00312

 Side 1  free  transition at x/c =  0.5669   59
 Side 2  free  transition at x/c =  0.6548   60

   4   rms: 0.4820E-02   max: -.9074E-01   C at   59  1
       a =  1.000      CL =  0.0811
      Cm =  0.0066     CD =  0.00903   =>   CDf =  0.00593    CDp =  0.00310

 Side 1  free  transition at x/c =  0.5669   59
 Side 2  free  transition at x/c =  0.6545   60

   5   rms: 0.4784E-02   max: -.9049E-01   C at   59  1
       a =  1.000      CL =  0.0811
      Cm =  0.0066     CD =  0.00903   =>   CDf =  0.00593    CDp =  0.00310

 Side 1  free  transition at x/c =  0.5669   59
 Side 2  free  transition at x/c =  0.6545   60

   6   rms: 0.4785E-02   max: -.9052E-01   C at   59  1
       a =  1.000      CL =  0.0811
      Cm =  0.0066     CD =  0.00903   =>   CDf =  0.00593    CDp =  0.00310

 Side 1  free  transition at x/c =  0.5669   59
 Side 2  free  transition at x/c =  0.6545   60

   7   rms: 0.4785E-02   max: -.9052E-01   C at   59  1
       a =  1.000      CL =  0.0811
      Cm =  0.0066     CD =  0.00903   =>   CDf =  0.00593    CDp =  0.00310

 Side 1  free  transition at x/c =  0.5669   59
 Side 2  free  transition at x/c =  0.6545   60

   8   rms: 0.4785E-02   max: -.9052E-01   C at   59  1
       a =  1.000      CL =  0.0811
      Cm =  0.0066     CD =  0.00903   =>   CDf =  0.00593    CDp =  0.00310

 Side 1  free  transition at x/c =  0.5669   59
 Side 2  free  transition at x/c =  0.6545   60

   9   rms: 0.4785E-02   max: -.9052E-01   C at   59  1
       a =  1.000      CL =  0.0811
      Cm =  0.0066     CD =  0.00903   =>   CDf =  0.00593    CDp =  0.00310

 Side 1  free  transition at x/c =  0.5669   59
 Side 2  free  transition at x/c =  0.6545   60

  10   rms: 0.4785E-02   max: -.9052E-01   C at   59  1
       a =  1.000      CL =  0.0811
      Cm =  0.0066     CD =  0.00903   =>   CDf =  0.00593    CDp =  0.00310

 Side 1  free  transition at x/c =  0.5669   59
 Side 2  free  transition at x/c =  0.6545   60

  11   rms: 0.4785E-02   max: -.9052E-01   C at   59  1
       a =  1.000      CL =  0.0811
      Cm =  0.0066     CD =  0.00903   =>   CDf =  0.00593    CDp =  0.00310

 Side 1  free  transition at x/c =  0.5669   59
 Side 2  free  transition at x/c =  0.6545   60

  12   rms: 0.4785E-02   max: -.9052E-01   C at   59  1
       a =  1.000      CL =  0.0811
      Cm =  0.0066     CD =  0.00903   =>   CDf =  0.00593    CDp =  0.00310

 Side 1  free  transition at x/c =  0.5669   59
 Side 2  free  transition at x/c =  0.6545   60

  13   rms: 0.4785E-02   max: -.9052E-01   C at   59  1
       a =  1.000      CL =  0.0811
      Cm =  0.0066     CD =  0.00903   =>   CDf =  0.00593    CDp =  0.00310

 Side 1  free  transition at x/c =  0.5669   59
 Side 2  free  transition at x/c =  0.6545   60

  14   rms: 0.4785E-02   max: -.9052E-01   C at   59  1
       a =  1.000      CL =  0.0811
      Cm =  0.0066     CD =  0.00903   =>   CDf =  0.00593    CDp =  0.00310

 Side 1  free  transition at x/c =  0.5669   59
 Side 2  free  transition at x/c =  0.6545   60

  15   rms: 0.4785E-02   max: -.9052E-01   C at   59  1
       a =  1.000      CL =  0.0811
      Cm =  0.0066     CD =  0.00903   =>   CDf =  0.00593    CDp =  0.00310

 Side 1  free  transition at x/c =  0.5669   59
 Side 2  free  transition at x/c =  0.6545   60

  16   rms: 0.4785E-02   max: -.9052E-01   C at   59  1
       a =  1.000      CL =  0.0811
      Cm =  0.0066     CD =  0.00903   =>   CDf =  0.00593    CDp =  0.00310

 Side 1  free  transition at x/c =  0.5669   59
 Side 2  free  transition at x/c =  0.6545   60

  17   rms: 0.4785E-02   max: -.9052E-01   C at   59  1
       a =  1.000      CL =  0.0811
      Cm =  0.0066     CD =  0.00903   =>   CDf =  0.00593    CDp =  0.00310

 Side 1  free  transition at x/c =  0.5669   59
 Side 2  free  transition at x/c =  0.6545   60

  18   rms: 0.4785E-02   max: -.9052E-01   C at   59  1
       a =  1.000      CL =  0.0811
      Cm =  0.0066     CD =  0.00903   =>   CDf =  0.00593    CDp =  0.00310

 Side 1  free  transition at x/c =  0.5669   59
 Side 2  free  transition at x/c =  0.6545   60

  19   rms: 0.4785E-02   max: -.9052E-01   C at   59  1
       a =  1.000      CL =  0.0811
      Cm =  0.0066     CD =  0.00903   =>   CDf =  0.00593    CDp =  0.00310

 Side 1  free  transition at x/c =  0.5669   59
 Side 2  free  transition at x/c =  0.6545   60

  20   rms: 0.4785E-02   max: -.9052E-01   C at   59  1
       a =  1.000      CL =  0.0811
      Cm =  0.0066     CD =  0.00903   =>   CDf =  0.00593    CDp =  0.00310

 Side 1  free  transition at x/c =  0.5669   59
 Side 2  free  transition at x/c =  0.6545   60

  21   rms: 0.4785E-02   max: -.9052E-01   C at   59  1
       a =  1.000      CL =  0.0811
      Cm =  0.0066     CD =  0.00903   =>   CDf =  0.00593    CDp =  0.00310

 Side 1  free  transition at x/c =  0.5669   59
 Side 2  free  transition at x/c =  0.6545   60

  22   rms: 0.4785E-02   max: -.9052E-01   C at   59  1
       a =  1.000      CL =  0.0811
      Cm =  0.0066     CD =  0.00903   =>   CDf =  0.00593    CDp =  0.00310

 Side 1  free  transition at x/c =  0.5669   59
 Side 2  free  transition at x/c =  0.6545   60

  23   rms: 0.4785E-02   max: -.9052E-01   C at   59  1
       a =  1.000      CL =  0.0811
      Cm =  0.0066     CD =  0.00903   =>   CDf =  0.00593    CDp =  0.00310

 Side 1  free  transition at x/c =  0.5669   59
 Side 2  free  transition at x/c =  0.6545   60

  24   rms: 0.4785E-02   max: -.9052E-01   C at   59  1
       a =  1.000      CL =  0.0811
      Cm =  0.0066     CD =  0.00903   =>   CDf =  0.00593    CDp =  0.00310

 Side 1  free  transition at x/c =  0.5669   59
 Side 2  free  transition at x/c =  0.6545   60

  25   rms: 0.4785E-02   max: -.9052E-01   C at   59  1
       a =  1.000      CL =  0.0811
      Cm =  0.0066     CD =  0.00903   =>   CDf =  0.00593    CDp =  0.00310

 Side 1  free  transition at x/c =  0.5669   59
 Side 2  free  transition at x/c =  0.6545   60

  26   rms: 0.4785E-02   max: -.9052E-01   C at   59  1
       a =  1.000      CL =  0.0811
      Cm =  0.0066     CD =  0.00903   =>   CDf =  0.00593    CDp =  0.00310

 Side 1  free  transition at x/c =  0.5669   59
 Side 2  free  transition at x/c =  0.6545   60

  27   rms: 0.4785E-02   max: -.9052E-01   C at   59  1
       a =  1.000      CL =  0.0811
      Cm =  0.0066     CD =  0.00903   =>   CDf =  0.00593    CDp =  0.00310

 Side 1  free  transition at x/c =  0.5669   59
 Side 2  free  transition at x/c =  0.6545   60

  28   rms: 0.4785E-02   max: -.9052E-01   C at   59  1
       a =  1.000      CL =  0.0811
      Cm =  0.0066     CD =  0.00903   =>   CDf =  0.00593    CDp =  0.00310

 Side 1  free  transition at x/c =  0.5669   59
 Side 2  free  transition at x/c =  0.6545   60

  29   rms: 0.4785E-02   max: -.9052E-01   C at   59  1
       a =  1.000      CL =  0.0811
      Cm =  0.0066     CD =  0.00903   =>   CDf =  0.00593    CDp =  0.00310

 Side 1  free  transition at x/c =  0.5669   59
 Side 2  free  transition at x/c =  0.6545   60

  30   rms: 0.4785E-02   max: -.9052E-01   C at   59  1
       a =  1.000      CL =  0.0811
      Cm =  0.0066     CD =  0.00903   =>   CDf =  0.00593    CDp =  0.00310

 Side 1  free  transition at x/c =  0.5669   59
 Side 2  free  transition at x/c =  0.6545   60

  31   rms: 0.4785E-02   max: -.9052E-01   C at   59  1
       a =  1.000      CL =  0.0811
      Cm =  0.0066     CD =  0.00903   =>   CDf =  0.00593    CDp =  0.00310

 Side 1  free  transition at x/c =  0.5669   59
 Side 2  free  transition at x/c =  0.6545   60

  32   rms: 0.4785E-02   max: -.9052E-01   C at   59  1
       a =  1.000      CL =  0.0811
      Cm =  0.0066     CD =  0.00903   =>   CDf =  0.00593    CDp =  0.00310

 Side 1  free  transition at x/c =  0.5669   59
 Side 2  free  transition at x/c =  0.6545   60

  33   rms: 0.4785E-02   max: -.9052E-01   C at   59  1
       a =  1.000      CL =  0.0811
      Cm =  0.0066     CD =  0.00903   =>   CDf =  0.00593    CDp =  0.00310

 Side 1  free  transition at x/c =  0.5669   59
 Side 2  free  transition at x/c =  0.6545   60

  34   rms: 0.4785E-02   max: -.9052E-01   C at   59  1
       a =  1.000      CL =  0.0811
      Cm =  0.0066     CD =  0.00903   =>   CDf =  0.00593    CDp =  0.00310

 Side 1  free  transition at x/c =  0.5669   59
 Side 2  free  transition at x/c =  0.6545   60

  35   rms: 0.4785E-02   max: -.9052E-01   C at   59  1
       a =  1.000      CL =  0.0811
      Cm =  0.0066     CD =  0.00903   =>   CDf =  0.00593    CDp =  0.00310

 Side 1  free  transition at x/c =  0.5669   59
 Side 2  free  transition at x/c =  0.6545   60

  36   rms: 0.4785E-02   max: -.9052E-01   C at   59  1
       a =  1.000      CL =  0.0811
      Cm =  0.0066     CD =  0.00903   =>   CDf =  0.00593    CDp =  0.00310

 Side 1  free  transition at x/c =  0.5669   59
 Side 2  free  transition at x/c =  0.6545   60

  37   rms: 0.4785E-02   max: -.9052E-01   C at   59  1
       a =  1.000      CL =  0.0811
      Cm =  0.0066     CD =  0.00903   =>   CDf =  0.00593    CDp =  0.00310

 Side 1  free  transition at x/c =  0.5669   59
 Side 2  free  transition at x/c =  0.6545   60

  38   rms: 0.4785E-02   max: -.9052E-01   C at   59  1
       a =  1.000      CL =  0.0811
      Cm =  0.0066     CD =  0.00903   =>   CDf =  0.00593    CDp =  0.00310

 Side 1  free  transition at x/c =  0.5669   59
 Side 2  free  transition at x/c =  0.6545   60

  39   rms: 0.4785E-02   max: -.9052E-01   C at   59  1
       a =  1.000      CL =  0.0811
      Cm =  0.0066     CD =  0.00903   =>   CDf =  0.00593    CDp =  0.00310

 Side 1  free  transition at x/c =  0.5669   59
 Side 2  free  transition at x/c =  0.6545   60

  40   rms: 0.4785E-02   max: -.9052E-01   C at   59  1
       a =  1.000      CL =  0.0811
      Cm =  0.0066     CD =  0.00903   =>   CDf =  0.00593    CDp =  0.00310

 Side 1  free  transition at x/c =  0.5669   59
 Side 2  free  transition at x/c =  0.6545   60

  41   rms: 0.4785E-02   max: -.9052E-01   C at   59  1
       a =  1.000      CL =  0.0811
      Cm =  0.0066     CD =  0.00903   =>   CDf =  0.00593    CDp =  0.00310

 Side 1  free  transition at x/c =  0.5669   59
 Side 2  free  transition at x/c =  0.6545   60

  42   rms: 0.4785E-02   max: -.9052E-01   C at   59  1
       a =  1.000      CL =  0.0811
      Cm =  0.0066     CD =  0.00903   =>   CDf =  0.00593    CDp =  0.00310

 Side 1  free  transition at x/c =  0.5669   59
 Side 2  free  transition at x/c =  0.6545   60

  43   rms: 0.4785E-02   max: -.9052E-01   C at   59  1
       a =  1.000      CL =  0.0811
      Cm =  0.0066     CD =  0.00903   =>   CDf =  0.00593    CDp =  0.00310

 Side 1  free  transition at x/c =  0.5669   59
 Side 2  free  transition at x/c =  0.6545   60

  44   rms: 0.4785E-02   max: -.9052E-01   C at   59  1
       a =  1.000      CL =  0.0811
      Cm =  0.0066     CD =  0.00903   =>   CDf =  0.00593    CDp =  0.00310

 Side 1  free  transition at x/c =  0.5669   59
 Side 2  free  transition at x/c =  0.6545   60

  45   rms: 0.4785E-02   max: -.9052E-01   C at   59  1
       a =  1.000      CL =  0.0811
      Cm =  0.0066     CD =  0.00903   =>   CDf =  0.00593    CDp =  0.00310

 Side 1  free  transition at x/c =  0.5669   59
 Side 2  free  transition at x/c =  0.6545   60

  46   rms: 0.4785E-02   max: -.9052E-01   C at   59  1
       a =  1.000      CL =  0.0811
      Cm =  0.0066     CD =  0.00903   =>   CDf =  0.00593    CDp =  0.00310

 Side 1  free  transition at x/c =  0.5669   59
 Side 2  free  transition at x/c =  0.6545   60

  47   rms: 0.4785E-02   max: -.9052E-01   C at   59  1
       a =  1.000      CL =  0.0811
      Cm =  0.0066     CD =  0.00903   =>   CDf =  0.00593    CDp =  0.00310

 Side 1  free  transition at x/c =  0.5669   59
 Side 2  free  transition at x/c =  0.6545   60

  48   rms: 0.4786E-02   max: -.9053E-01   C at   59  1
       a =  1.000      CL =  0.0811
      Cm =  0.0066     CD =  0.00903   =>   CDf =  0.00593    CDp =  0.00310

 Side 1  free  transition at x/c =  0.5669   59
 Side 2  free  transition at x/c =  0.6545   60

  49   rms: 0.4785E-02   max: -.9052E-01   C at   59  1
       a =  1.000      CL =  0.0811
      Cm =  0.0066     CD =  0.00903   =>   CDf =  0.00593    CDp =  0.00310

 Side 1  free  transition at x/c =  0.5669   59
 Side 2  free  transition at x/c =  0.6545   60

  50   rms: 0.4785E-02   max: -.9052E-01   C at   59  1
       a =  1.000      CL =  0.0811
      Cm =  0.0066     CD =  0.00903   =>   CDf =  0.00593    CDp =  0.00310

 Side 1  free  transition at x/c =  0.5669   59
 Side 2  free  transition at x/c =  0.6545   60

  51   rms: 0.4785E-02   max: -.9052E-01   C at   59  1
       a =  1.000      CL =  0.0811
      Cm =  0.0066     CD =  0.00903   =>   CDf =  0.00593    CDp =  0.00310

 Side 1  free  transition at x/c =  0.5669   59
 Side 2  free  transition at x/c =  0.6545   60

  52   rms: 0.4785E-02   max: -.9052E-01   C at   59  1
       a =  1.000      CL =  0.0811
      Cm =  0.0066     CD =  0.00903   =>   CDf =  0.00593    CDp =  0.00310

 Side 1  free  transition at x/c =  0.5669   59
 Side 2  free  transition at x/c =  0.6545   60

  53   rms: 0.4785E-02   max: -.9052E-01   C at   59  1
       a =  1.000      CL =  0.0811
      Cm =  0.0066     CD =  0.00903   =>   CDf =  0.00593    CDp =  0.00310

 Side 1  free  transition at x/c =  0.5669   59
 Side 2  free  transition at x/c =  0.6545   60

  54   rms: 0.4785E-02   max: -.9052E-01   C at   59  1
       a =  1.000      CL =  0.0811
      Cm =  0.0066     CD =  0.00903   =>   CDf =  0.00593    CDp =  0.00310

 Side 1  free  transition at x/c =  0.5669   59
 Side 2  free  transition at x/c =  0.6545   60

  55   rms: 0.4785E-02   max: -.9052E-01   C at   59  1
       a =  1.000      CL =  0.0811
      Cm =  0.0066     CD =  0.00903   =>   CDf =  0.00593    CDp =  0.00310

 Side 1  free  transition at x/c =  0.5669   59
 Side 2  free  transition at x/c =  0.6545   60

  56   rms: 0.4785E-02   max: -.9052E-01   C at   59  1
       a =  1.000      CL =  0.0811
      Cm =  0.0066     CD =  0.00903   =>   CDf =  0.00593    CDp =  0.00310

 Side 1  free  transition at x/c =  0.5669   59
 Side 2  free  transition at x/c =  0.6545   60

  57   rms: 0.4785E-02   max: -.9052E-01   C at   59  1
       a =  1.000      CL =  0.0811
      Cm =  0.0066     CD =  0.00903   =>   CDf =  0.00593    CDp =  0.00310

 Side 1  free  transition at x/c =  0.5669   59
 Side 2  free  transition at x/c =  0.6545   60

  58   rms: 0.4785E-02   max: -.9052E-01   C at   59  1
       a =  1.000      CL =  0.0811
      Cm =  0.0066     CD =  0.00903   =>   CDf =  0.00593    CDp =  0.00310

 Side 1  free  transition at x/c =  0.5669   59
 Side 2  free  transition at x/c =  0.6545   60

  59   rms: 0.4785E-02   max: -.9052E-01   C at   59  1
       a =  1.000      CL =  0.0811
      Cm =  0.0066     CD =  0.00903   =>   CDf =  0.00593    CDp =  0.00310

 Side 1  free  transition at x/c =  0.5669   59
 Side 2  free  transition at x/c =  0.6545   60

  60   rms: 0.4785E-02   max: -.9052E-01   C at   59  1
       a =  1.000      CL =  0.0811
      Cm =  0.0066     CD =  0.00903   =>   CDf =  0.00593    CDp =  0.00310

 Side 1  free  transition at x/c =  0.5669   59
 Side 2  free  transition at x/c =  0.6545   60

  61   rms: 0.4785E-02   max: -.9052E-01   C at   59  1
       a =  1.000      CL =  0.0811
      Cm =  0.0066     CD =  0.00903   =>   CDf =  0.00593    CDp =  0.00310

 Side 1  free  transition at x/c =  0.5669   59
 Side 2  free  transition at x/c =  0.6545   60

  62   rms: 0.4785E-02   max: -.9052E-01   C at   59  1
       a =  1.000      CL =  0.0811
      Cm =  0.0066     CD =  0.00903   =>   CDf =  0.00593    CDp =  0.00310

 Side 1  free  transition at x/c =  0.5669   59
 Side 2  free  transition at x/c =  0.6545   60

  63   rms: 0.4785E-02   max: -.9052E-01   C at   59  1
       a =  1.000      CL =  0.0811
      Cm =  0.0066     CD =  0.00903   =>   CDf =  0.00593    CDp =  0.00310

 Side 1  free  transition at x/c =  0.5669   59
 Side 2  free  transition at x/c =  0.6545   60

  64   rms: 0.4785E-02   max: -.9052E-01   C at   59  1
       a =  1.000      CL =  0.0811
      Cm =  0.0066     CD =  0.00903   =>   CDf =  0.00593    CDp =  0.00310

 Side 1  free  transition at x/c =  0.5669   59
 Side 2  free  transition at x/c =  0.6545   60

  65   rms: 0.4785E-02   max: -.9052E-01   C at   59  1
       a =  1.000      CL =  0.0811
      Cm =  0.0066     CD =  0.00903   =>   CDf =  0.00593    CDp =  0.00310

 Side 1  free  transition at x/c =  0.5669   59
 Side 2  free  transition at x/c =  0.6545   60

  66   rms: 0.4785E-02   max: -.9052E-01   C at   59  1
       a =  1.000      CL =  0.0811
      Cm =  0.0066     CD =  0.00903   =>   CDf =  0.00593    CDp =  0.00310

 Side 1  free  transition at x/c =  0.5669   59
 Side 2  free  transition at x/c =  0.6545   60

  67   rms: 0.4785E-02   max: -.9052E-01   C at   59  1
       a =  1.000      CL =  0.0811
      Cm =  0.0066     CD =  0.00903   =>   CDf =  0.00593    CDp =  0.00310

 Side 1  free  transition at x/c =  0.5669   59
 Side 2  free  transition at x/c =  0.6545   60

  68   rms: 0.4785E-02   max: -.9052E-01   C at   59  1
       a =  1.000      CL =  0.0811
      Cm =  0.0066     CD =  0.00903   =>   CDf =  0.00593    CDp =  0.00310

 Side 1  free  transition at x/c =  0.5669   59
 Side 2  free  transition at x/c =  0.6545   60

  69   rms: 0.4785E-02   max: -.9052E-01   C at   59  1
       a =  1.000      CL =  0.0811
      Cm =  0.0066     CD =  0.00903   =>   CDf =  0.00593    CDp =  0.00310

 Side 1  free  transition at x/c =  0.5669   59
 Side 2  free  transition at x/c =  0.6545   60

[...]

 Side 1  free  transition at x/c =  0.1339   51
 Side 2 forced transition at x/c =  1.0000   63

   1   rms: 0.3290E-01   max: -.1355E+00   D at   60  2   RLX: 0.979
       a = 12.750      CL =  1.1110
      Cm =  0.0385     CD =  0.02437   =>   CDf =  0.00604    CDp =  0.01833

 Side 1  free  transition at x/c =  0.1305   51
 Side 2 forced transition at x/c =  1.0000   63

   2   rms: 0.3145E-02   max: 0.2720E-01   D at   86  1
       a = 12.750      CL =  1.1098
      Cm =  0.0386     CD =  0.02447   =>   CDf =  0.00606    CDp =  0.01841

 Side 1  free  transition at x/c =  0.1303   51
 Side 2 forced transition at x/c =  1.0000   63

   3   rms: 0.1177E-03   max: 0.1022E-02   D at   86  1
       a = 12.750      CL =  1.1098
      Cm =  0.0386     CD =  0.02447   =>   CDf =  0.00605    CDp =  0.01842

 Side 1  free  transition at x/c =  0.1303   51
 Side 2 forced transition at x/c =  1.0000   63

   4   rms: 0.2390E-05   max: 0.1246E-04   D at   60  2
       a = 12.750      CL =  1.1098
      Cm =  0.0386     CD =  0.02447   =>   CDf =  0.00605    CDp =  0.01842
 plradd ia,ip,cpol           39           0  1.47482390E-02

 Point added to stored polar  1
 Point written to save file  goe460_Re500k.base.pol                          
 Dump file unspecified or not available
 Calculating wake trajectory ...
 Calculating source influence matrix ...

 Solving BL system ...

 Side 1  free  transition at x/c =  0.1303   51
 Side 2 forced transition at x/c =  1.0000   63

   1   rms: 0.3427E-01   max: -.1311E+00   D at   60  2   RLX: 0.914
       a = 13.000      CL =  1.1064
      Cm =  0.0418     CD =  0.02550   =>   CDf =  0.00605    CDp =  0.01945

 Side 1  free  transition at x/c =  0.1274   50
 Side 2 forced transition at x/c =  1.0000   63

   2   rms: 0.9808E-02   max: -.1010E+00   C at   50  1
       a = 13.000      CL =  1.1130
      Cm =  0.0414     CD =  0.02524   =>   CDf =  0.00603    CDp =  0.01921

 Side 1  free  transition at x/c =  0.1273   50
 Side 2 forced transition at x/c =  1.0000   63

   3   rms: 0.5226E-03   max: 0.8697E-02   C at   50  1
       a = 13.000      CL =  1.1128
      Cm =  0.0414     CD =  0.02527   =>   CDf =  0.00601    CDp =  0.01926

 Side 1  free  transition at x/c =  0.1272   50
 Side 2 forced transition at x/c =  1.0000   63

   4   rms: 0.1958E-04   max: 0.9115E-04   D at   85  1
       a = 13.000      CL =  1.1128
      Cm =  0.0414     CD =  0.02527   =>   CDf =  0.00601    CDp =  0.01926
 plradd ia,ip,cpol           40           0  1.47482390E-02

 Point added to stored polar  1
 Point written to save file  goe460_Re500k.base.pol                          
 Dump file unspecified or not available
 Calculating wake trajectory ...
 Calculating source influence matrix ...

 Solving BL system ...

 Side 1  free  transition at x/c =  0.1272   50
 Side 2 forced transition at x/c =  1.0000   63

   1   rms: 0.2963E-01   max: -.1074E+00   D at   60  2   RLX: 0.880
       a = 13.250      CL =  1.1161
      Cm =  0.0437     CD =  0.02605   =>   CDf =  0.00602    CDp =  0.02003

 Side 1  free  transition at x/c =  0.1245   50
 Side 2 forced transition at x/c =  1.0000   63

   2   rms: 0.4122E-02   max: 0.2426E-01   D at   85  1
       a = 13.250      CL =  1.1154
      Cm =  0.0440     CD =  0.02621   =>   CDf =  0.00600    CDp =  0.02021

 Side 1  free  transition at x/c =  0.1243   50
 Side 2 forced transition at x/c =  1.0000   63

   3   rms: 0.8151E-04   max: 0.6711E-03   D at   72  2
       a = 13.250      CL =  1.1154
      Cm =  0.0440     CD =  0.02620   =>   CDf =  0.00599    CDp =  0.02021
 plradd ia,ip,cpol           41           0  1.01714125E-02

 Point added to stored polar  1
 Point written to save file  goe460_Re500k.base.pol                          
 Dump file unspecified or not available
 Calculating wake trajectory ...
 Calculating source influence matrix ...

 Solving BL system ...

 Side 1  free  transition at x/c =  0.1243   50
 Side 2 forced transition at x/c =  1.0000   63

   1   rms: 0.3189E-01   max: -.1018E+00   D at   61  2   RLX: 0.837
       a = 13.500      CL =  1.1177
      Cm =  0.0462     CD =  0.02707   =>   CDf =  0.00599    CDp =  0.02109

 Side 1  free  transition at x/c =  0.1216   50
 Side 2 forced transition at x/c =  1.0000   63

   2   rms: 0.6358E-02   max: 0.4028E-01   D at   84  1
       a = 13.500      CL =  1.1161
      Cm =  0.0467     CD =  0.02735   =>   CDf =  0.00599    CDp =  0.02136

 Side 1  free  transition at x/c =  0.1212   50
 Side 2 forced transition at x/c =  1.0000   63

   3   rms: 0.2640E-03   max: 0.2264E-02   D at   72  2
       a = 13.500      CL =  1.1160
      Cm =  0.0467     CD =  0.02734   =>   CDf =  0.00598    CDp =  0.02136

 Side 1  free  transition at x/c =  0.1212   50
 Side 2 forced transition at x/c =  1.0000   63

   4   rms: 0.4523E-05   max: 0.4664E-04   D at   72  2
       a = 13.500      CL =  1.1160
      Cm =  0.0467     CD =  0.02734   =>   CDf =  0.00598    CDp =  0.02136
 plradd ia,ip,cpol           42           0  1.23446099E-02

 Point added to stored polar  1
 Point written to save file  goe460_Re500k.base.pol                          
 Dump file unspecified or not available
 Calculating wake trajectory ...
 Calculating source influence matrix ...

 Solving BL system ...

 Side 1  free  transition at x/c =  0.1212   50
 Side 2 forced transition at x/c =  1.0000   63

   1   rms: 0.3806E-01   max: 0.2174E+00   D at    3  1   RLX: 0.792
       a = 13.750      CL =  1.1159
      Cm =  0.0487     CD =  0.02840   =>   CDf =  0.00598    CDp =  0.02242

 Side 1  free  transition at x/c =  0.1187   50
 Side 2 forced transition at x/c =  1.0000   63

   2   rms: 0.9139E-02   max: 0.4524E-01   D at   83  1
       a = 13.750      CL =  1.1142
      Cm =  0.0492     CD =  0.02877   =>   CDf =  0.00599    CDp =  0.02278

 Side 1  free  transition at x/c =  0.1178   50
 Side 2 forced transition at x/c =  1.0000   63

   3   rms: 0.6468E-03   max: 0.4750E-02   D at   83  1
       a = 13.750      CL =  1.1138
      Cm =  0.0492     CD =  0.02876   =>   CDf =  0.00599    CDp =  0.02277

 Side 1  free  transition at x/c =  0.1178   50
 Side 2 forced transition at x/c =  1.0000   63

   4   rms: 0.1213E-04   max: 0.8402E-04   D at   72  2
       a = 13.750      CL =  1.1138
      Cm =  0.0492     CD =  0.02876   =>   CDf =  0.00599    CDp =  0.02277
 plradd ia,ip,cpol           43           0  1.23446099E-02

 Point added to stored polar  1
 Point written to save file  goe460_Re500k.base.pol                          
 Dump file unspecified or not available
 Calculating wake trajectory ...
 Calculating source influence matrix ...

 Solving BL system ...

 Side 1  free  transition at x/c =  0.1178   50
 Side 2 forced transition at x/c =  1.0000   63

   1   rms: 0.3587E-01   max: 0.1340E+00   D at   81  1   RLX: 0.750
       a = 14.000      CL =  1.1118
      Cm =  0.0511     CD =  0.02998   =>   CDf =  0.00599    CDp =  0.02399

 Side 1  free  transition at x/c =  0.1156   49
 Side 2 forced transition at x/c =  1.0000   63

   2   rms: 0.1432E-01   max: -.1327E+00   D at   49  1
       a = 14.000      CL =  1.1214
      Cm =  0.0509     CD =  0.02969   =>   CDf =  0.00578    CDp =  0.02390

 Side 1  free  transition at x/c =  0.1151   50
 Side 2 forced transition at x/c =  1.0000   62

   3   rms: 0.6512E-03   max: -.5847E-02   D at    3  1
       a = 14.000      CL =  1.1215
      Cm =  0.0509     CD =  0.02969   =>   CDf =  0.00592    CDp =  0.02377

 Side 1  free  transition at x/c =  0.1150   50
 Side 2 forced transition at x/c =  1.0000   62

   4   rms: 0.2508E-03   max: -.3036E-02   D at    4  1
       a = 14.000      CL =  1.1215
      Cm =  0.0509     CD =  0.02969   =>   CDf =  0.00592    CDp =  0.02377

 Side 1  free  transition at x/c =  0.1150   50
 Side 2 forced transition at x/c =  1.0000   62

   5   rms: 0.6909E-06   max: 0.3493E-05   D at   50  1
       a = 14.000      CL =  1.1215
      Cm =  0.0509     CD =  0.02969   =>   CDf =  0.00592    CDp =  0.02377
 plradd ia,ip,cpol           44           0  8.23579822E-03

 Point added to stored polar  1
 Point written to save file  goe460_Re500k.base.pol                          
 Dump file unspecified or not available
 Calculating wake trajectory ...
 Calculating source influence matrix ...

 Solving BL system ...

 Side 1  free  transition at x/c =  0.1150   50
 Side 2 forced transition at x/c =  1.0000   62

   1   rms: 0.2967E-01   max: 0.9846E-01   T at   50  1   RLX: 0.735
       a = 14.250      CL =  1.1269
      Cm =  0.0521     CD =  0.03049   =>   CDf =  0.00592    CDp =  0.02457

 Side 1  free  transition at x/c =  0.1124   50
 Side 2 forced transition at x/c =  1.0000   62

   2   rms: 0.8894E-02   max: 0.4120E-01   D at   83  1
       a = 14.250      CL =  1.1262
      Cm =  0.0526     CD =  0.03094   =>   CDf =  0.00590    CDp =  0.02504

 Side 1  free  transition at x/c =  0.1116   50
 Side 2 forced transition at x/c =  1.0000   62

   3   rms: 0.3901E-03   max: 0.2447E-02   D at   82  1
       a = 14.250      CL =  1.1260
      Cm =  0.0526     CD =  0.03092   =>   CDf =  0.00588    CDp =  0.02504

 Side 1  free  transition at x/c =  0.1116   50
 Side 2 forced transition at x/c =  1.0000   62

   4   rms: 0.3880E-05   max: 0.3130E-04   D at   60  2
       a = 14.250      CL =  1.1260
      Cm =  0.0526     CD =  0.03092   =>   CDf =  0.00588    CDp =  0.02504
 plradd ia,ip,cpol           45           0  6.53341180E-03

 Point added to stored polar  1
 Point written to save file  goe460_Re500k.base.pol                          
 Dump file unspecified or not available
 Calculating wake trajectory ...
 Calculating source influence matrix ...

 Solving BL system ...

 Side 1  free  transition at x/c =  0.1116   50
 Side 2 forced transition at x/c =  1.0000   62

   1   rms: 0.3238E-01   max: -.1260E+00   D at    5  1   RLX: 0.704
       a = 14.500      CL =  1.1285
      Cm =  0.0538     CD =  0.03194   =>   CDf =  0.00589    CDp =  0.02605

 Side 1  free  transition at x/c =  0.1090   50
 Side 2 forced transition at x/c =  1.0000   62

   2   rms: 0.1146E-01   max: 0.6134E-01   D at   82  1
       a = 14.500      CL =  1.1262
      Cm =  0.0544     CD =  0.03258   =>   CDf =  0.00589    CDp =  0.02669

 Side 1  free  transition at x/c =  0.1081   50
 Side 2 forced transition at x/c =  1.0000   62

   3   rms: 0.6383E-03   max: 0.4147E-02   D at   81  1
       a = 14.500      CL =  1.1258
      Cm =  0.0544     CD =  0.03255   =>   CDf =  0.00588    CDp =  0.02667

 Side 1  free  transition at x/c =  0.1081   50
 Side 2 forced transition at x/c =  1.0000   62

   4   rms: 0.1372E-04   max: 0.1596E-03   D at   72  2
       a = 14.500      CL =  1.1258
      Cm =  0.0544     CD =  0.03255   =>   CDf =  0.00588    CDp =  0.02667
 plradd ia,ip,cpol           46           0  8.23579822E-03

 Point added to stored polar  1
 Point written to save file  goe460_Re500k.base.pol                          
 Dump file unspecified or not available
 Calculating wake trajectory ...
 Calculating source influence matrix ...

 Solving BL system ...

 Side 1  free  transition at x/c =  0.1081   50
 Side 2 forced transition at x/c =  1.0000   62

   1   rms: 0.3512E-01   max: 0.1332E+00   D at   80  1   RLX: 0.670
       a = 14.750      CL =  1.1252
      Cm =  0.0555     CD =  0.03383   =>   CDf =  0.00589    CDp =  0.02794

 Side 1  free  transition at x/c =  0.1060   50
 Side 2 forced transition at x/c =  1.0000   62

   2   rms: 0.1440E-01   max: 0.7353E-01   D at   81  1
       a = 14.750      CL =  1.1215
      Cm =  0.0562     CD =  0.03465   =>   CDf =  0.00589    CDp =  0.02876

 Side 1  free  transition at x/c =  0.1048   49
 Side 2 forced transition at x/c =  1.0000   62

   3   rms: 0.9176E-02   max: -.8360E-01   D at   49  1
       a = 14.750      CL =  1.1273
      Cm =  0.0559     CD =  0.03412   =>   CDf =  0.00586    CDp =  0.02826

 Side 1  free  transition at x/c =  0.1050   49
 Side 2 forced transition at x/c =  1.0000   62

   4   rms: 0.8026E-03   max: -.3858E-02   D at   81  1
       a = 14.750      CL =  1.1279
      Cm =  0.0559     CD =  0.03411   =>   CDf =  0.00585    CDp =  0.02826

 Side 1  free  transition at x/c =  0.1049   49
 Side 2 forced transition at x/c =  1.0000   62

   5   rms: 0.1957E-04   max: -.1470E-03   D at   72  2
       a = 14.750      CL =  1.1279
      Cm =  0.0559     CD =  0.03412   =>   CDf =  0.00585    CDp =  0.02827
 plradd ia,ip,cpol           47           0  5.05263777E-03

 Point added to stored polar  1
 Point written to save file  goe460_Re500k.base.pol                          
 Dump file unspecified or not available
 Calculating wake trajectory ...
 Calculating source influence matrix ...

 Solving BL system ...

 Side 1  free  transition at x/c =  0.1049   49
 Side 2 forced transition at x/c =  1.0000   62

   1   rms: 0.3017E-01   max: -.1734E+00   C at   49  1   RLX: 0.656
       a = 15.000      CL =  1.1357
      Cm =  0.0564     CD =  0.03478   =>   CDf =  0.00585    CDp =  0.02893

 Side 1  free  transition at x/c =  0.1021   49
 Side 2 forced transition at x/c =  1.0000   62

   2   rms: 0.1070E-01   max: -.5270E-01   D at   49  1
       a = 15.000      CL =  1.1363
      Cm =  0.0569     CD =  0.03536   =>   CDf =  0.00581    CDp =  0.02955

 Side 1  free  transition at x/c =  0.1006   49
 Side 2 forced transition at x/c =  1.0000   62

   3   rms: 0.1193E-02   max: 0.9739E-02   D at   80  1
       a = 15.000      CL =  1.1355
      Cm =  0.0569     CD =  0.03538   =>   CDf =  0.00579    CDp =  0.02958

 Side 1  free  transition at x/c =  0.1007   49
 Side 2 forced transition at x/c =  1.0000   62

   4   rms: 0.2664E-04   max: 0.1821E-03   D at   72  2
       a = 15.000      CL =  1.1355
      Cm =  0.0569     CD =  0.03537   =>   CDf =  0.00579    CDp =  0.02958
 plradd ia,ip,cpol           48           0  6.53341180E-03

 Point added to stored polar  1
 Point written to save file  goe460_Re500k.base.pol                          
 Dump file unspecified or not available
 Calculating wake trajectory ...
 Calculating source influence matrix ...

 Solving BL system ...

 Side 1  free  transition at x/c =  0.1007   49
 Side 2 forced transition at x/c =  1.0000   62

   1   rms: 0.3234E-01   max: -.1399E+00   D at   49  1   RLX: 0.630
       a = 15.250      CL =  1.1380
      Cm =  0.0576     CD =  0.03646   =>   CDf =  0.00579    CDp =  0.03067

 Side 1  free  transition at x/c =  0.0980   49
 Side 2 forced transition at x/c =  1.0000   62

   2   rms: 0.1350E-01   max: -.6623E-01   D at   49  1
       a = 15.250      CL =  1.1363
      Cm =  0.0580     CD =  0.03731   =>   CDf =  0.00579    CDp =  0.03151

 Side 1  free  transition at x/c =  0.0967   49
 Side 2 forced transition at x/c =  1.0000   62

   3   rms: 0.1537E-02   max: 0.1361E-01   D at   79  1
       a = 15.250      CL =  1.1352
      Cm =  0.0580     CD =  0.03732   =>   CDf =  0.00579    CDp =  0.03153

 Side 1  free  transition at x/c =  0.0968   49
 Side 2 forced transition at x/c =  1.0000   62

   4   rms: 0.5201E-04   max: 0.3606E-03   D at   79  1
       a = 15.250      CL =  1.1352
      Cm =  0.0581     CD =  0.03731   =>   CDf =  0.00579    CDp =  0.03152
 plradd ia,ip,cpol           49           0  6.53341180E-03

 Point added to stored polar  1
 Point written to save file  goe460_Re500k.base.pol                          
 Dump file unspecified or not available
 Calculating wake trajectory ...
 Calculating source influence matrix ...

 Solving BL system ...

 Side 1  free  transition at x/c =  0.0968   49
 Side 2 forced transition at x/c =  1.0000   62

   1   rms: 0.3701E-01   max: -.1706E+00   D at   49  1   RLX: 0.601
       a = 15.500      CL =  1.1335
      Cm =  0.0587     CD =  0.03880   =>   CDf =  0.00560    CDp =  0.03320

 Side 1  free  transition at x/c =  0.0949   49
 Side 2 forced transition at x/c =  1.0000   61

   2   rms: 0.1479E-01   max: -.1516E+00   C at   49  1
       a = 15.500      CL =  1.1417
      Cm =  0.0588     CD =  0.03882   =>   CDf =  0.00577    CDp =  0.03305

 Side 1  free  transition at x/c =  0.0927   49
 Side 2 forced transition at x/c =  1.0000   61

   3   rms: 0.1765E-02   max: 0.7488E-02   D at   79  1
       a = 15.500      CL =  1.1401
      Cm =  0.0589     CD =  0.03894   =>   CDf =  0.00574    CDp =  0.03321

 Side 1  free  transition at x/c =  0.0928   49
 Side 2 forced transition at x/c =  1.0000   61

   4   rms: 0.8199E-04   max: 0.4406E-03   D at   79  1
       a = 15.500      CL =  1.1400
      Cm =  0.0589     CD =  0.03894   =>   CDf =  0.00573    CDp =  0.03320
 plradd ia,ip,cpol           50           0  5.05263777E-03

 Point added to stored polar  1
 Point written to save file  goe460_Re500k.base.pol                          
 Dump file unspecified or not available
 Calculating wake trajectory ...
 Calculating source influence matrix ...

 Solving BL system ...

 Side 1  free  transition at x/c =  0.0928   49
 Side 2 forced transition at x/c =  1.0000   61

   1   rms: 0.3268E-01   max: -.1617E+00   D at    3  1   RLX: 0.591
       a = 15.750      CL =  1.1451
      Cm =  0.0593     CD =  0.03984   =>   CDf =  0.00574    CDp =  0.03411

 Side 1  free  transition at x/c =  0.0896   49
 Side 2 forced transition at x/c =  1.0000   61

   2   rms: 0.1490E-01   max: -.6685E-01   D at   49  1
       a = 15.750      CL =  1.1442
      Cm =  0.0596     CD =  0.04082   =>   CDf =  0.00572    CDp =  0.03509

 Side 1  free  transition at x/c =  0.0882   49
 Side 2 forced transition at x/c =  1.0000   61

   3   rms: 0.1079E-02   max: 0.7113E-02   D at   72  2
       a = 15.750      CL =  1.1435
      Cm =  0.0596     CD =  0.04076   =>   CDf =  0.00571    CDp =  0.03504

 Side 1  free  transition at x/c =  0.0883   49
 Side 2 forced transition at x/c =  1.0000   61

   4   rms: 0.1348E-04   max: 0.2061E-03   D at   72  2
       a = 15.750      CL =  1.1435
      Cm =  0.0596     CD =  0.04075   =>   CDf =  0.00571    CDp =  0.03504
 plradd ia,ip,cpol           51           0  5.05263777E-03

 Point added to stored polar  1
 Point written to save file  goe460_Re500k.base.pol                          
 Dump file unspecified or not available
 Calculating wake trajectory ...
 Calculating source influence matrix ...

 Solving BL system ...

 Side 1  free  transition at x/c =  0.0883   49
 Side 2 forced transition at x/c =  1.0000   61

   1   rms: 0.3613E-01   max: -.1739E+00   D at   49  1   RLX: 0.568
       a = 16.000      CL =  1.1447
      Cm =  0.0599     CD =  0.04202   =>   CDf =  0.00571    CDp =  0.03631

 Side 1  free  transition at x/c =  0.0860   49
 Side 2 forced transition at x/c =  1.0000   61

   2   rms: 0.1877E-01   max: 0.9237E-01   D at   78  1
       a = 16.000      CL =  1.1403
      Cm =  0.0602     CD =  0.04340   =>   CDf =  0.00573    CDp =  0.03767

 Side 1  free  transition at x/c =  0.0847   48
 Side 2 forced transition at x/c =  1.0000   61

   3   rms: 0.5836E-02   max: -.5600E-01   C at   48  1
       a = 16.000      CL =  1.1444
      Cm =  0.0602     CD =  0.04281   =>   CDf =  0.00569    CDp =  0.03712

 Side 1  free  transition at x/c =  0.0844   48
 Side 2 forced transition at x/c =  1.0000   61

   4   rms: 0.2341E-03   max: -.1231E-02   D at   72  2
       a = 16.000      CL =  1.1445
      Cm =  0.0602     CD =  0.04285   =>   CDf =  0.00569    CDp =  0.03716

 Side 1  free  transition at x/c =  0.0844   48
 Side 2 forced transition at x/c =  1.0000   61

   5   rms: 0.4485E-05   max: -.4365E-04   D at   72  2
       a = 16.000      CL =  1.1445
      Cm =  0.0602     CD =  0.04285   =>   CDf =  0.00569    CDp =  0.03716
 plradd ia,ip,cpol           52           0  5.05263777E-03

 Point added to stored polar  1
 Point written to save file  goe460_Re500k.base.pol                          
 Dump file unspecified or not available

.OPERva   c>  
 Polar accumulation disabled

.OPERv   c>  
 XFOIL   c>  
 XFOIL   c>  