
 ===================================================
  XFOIL Version 6.99
  Copyright (C) 2000   Mark Drela, Harold Youngren

  This software comes with ABSOLUTELY NO WARRANTY,
    subject to the GNU General Public License.

  Caveat computor
 ===================================================

 File  xfoil.def  not found

   QUIT    Exit program

  .OPER    Direct operating point(s)
  .MDES    Complex mapping design routine
  .QDES    Surface speed design routine
  .GDES    Geometry design routine

   SAVE f  Write airfoil to labeled coordinate file
   PSAV f  Write airfoil to plain coordinate file
   ISAV f  Write airfoil to ISES coordinate file
   MSAV f  Write airfoil to MSES coordinate file
   REVE    Reverse written-airfoil node ordering

   LOAD f  Read buffer airfoil from coordinate file
   NACA i  Set NACA 4,5-digit airfoil and buffer airfoil
   INTE    Set buffer airfoil by interpolating two airfoils
   NORM    Buffer airfoil normalization toggle
   XYCM rr Change CM reference location, currently  0.25000 0.00000

   BEND    Display structural properties of current airfoil

   PCOP    Set current-airfoil panel nodes directly from buffer airfoil points
   PANE    Set current-airfoil panel nodes ( 160 ) based on curvature
  .PPAR    Show/change paneling

  .PLOP    Plotting options

   WDEF f  Write  current-settings file
   RDEF f  Reread current-settings file
   NAME s  Specify new airfoil name
   NINC    Increment name version number

   Z       Zoom    | (available in all menus)
   U       Unzoom  | 

 XFOIL   c>  
 Labeled airfoil file.  Name:  GOE 478 AIRFOIL                                 

 Number of input coordinate points:  33
 Counterclockwise ordering
 Max thickness =     0.133537  at x =   0.301
 Max camber    =     0.042134  at x =   0.396

  LE  x,y  =  -0.00004   0.00141  |   Chord =   1.00004
  TE  x,y  =   1.00000   0.00000  |

 Current airfoil nodes set from buffer airfoil nodes (  33 )

 WARNING: Poor input coordinate distribution
          Excessive panel angle   53.8  at i =  17
          Repaneling with PANE and/or PPAR suggested
           (doing GDES,CADD before repaneling _may_
            improve excessively coarse LE spacing

 XFOIL   c>  
 XFOIL   c>  
 Sharp trailing edge

 Paneling parameters used...
   Number of panel nodes       160
   Panel bunching parameter    1.000
   TE/LE panel density ratio   0.150
   Refined-area/LE panel density ratio    0.200
   Top    side refined area x/c limits  1.000 1.000
   Bottom side refined area x/c limits  1.000 1.000

 XFOIL   c>  
.OPERi   c>  
 Xtr/c     =  1.0000    top    side
 Xtr/c     =  1.0000    bottom side
 Ncrit     =    9.00   ( 0.070 % turb. level )
 Vacc      =  0.0100

 Klag  =  5.6000     Uxwt  =    1.00
 A     =  6.7000     B     =  0.7500       KCt = 0.01485
 CtiniK=  1.8000     CtiniX=  3.3000

..VPAR   c>  
..VPAR   c>  
.OPERi   c>  
 M  =    0.0000
 Re =    600000

.OPERv   c>  
.OPERv   c>  
.OPERv   c>  
 Polar  1 newly created for accumulation
 Airfoil archived with polar: GOE 478 AIRFOIL                                 

Enter  polar save filename  OR  <return> for no file   s>  
 New polar save file available

Enter  polar dump filename  OR  <return> for no file   s>  
 Polar dump file will NOT be written

 Polar accumulation enabled

.OPERva   c>   Calculating unit vorticity distributions ...
 Calculating wake trajectory ...
 Calculating source influence matrix ...

 Solving BL system ...

 Initializing BL ...
    side            1  ...
 MRCHUE: Inverse mode at  54     Hk =   3.800
 MRCHUE: Inverse mode at  55     Hk =   4.617
 MRCHUE: Inverse mode at  56     Hk =   5.442
 MRCHUE: Inverse mode at  57     Hk =   6.281
 MRCHUE: Inverse mode at  58     Hk =   7.129
 MRCHUE: Inverse mode at  59     Hk =   7.976
 MRCHUE: Inverse mode at  60     Hk =   7.948
 MRCHUE: Inverse mode at  61     Hk =   4.314
 MRCHUE: Inverse mode at  62     Hk =   2.500
 MRCHUE: Inverse mode at  76     Hk =   2.500
    side            2  ...
 MRCHUE: Inverse mode at  23     Hk =   3.900
 MRCHUE: Inverse mode at  24     Hk =   4.931
 MRCHUE: Inverse mode at  25     Hk =   5.921
 MRCHUE: Inverse mode at  26     Hk =   6.898
 MRCHUE: Inverse mode at  27     Hk =   7.887
 MRCHUE: Inverse mode at  28     Hk =   8.907
 MRCHUE: Inverse mode at  29     Hk =   9.974
 MRCHUE: Inverse mode at  30     Hk =   5.798
 MRCHUE: Inverse mode at  31     Hk =   2.772
 MRCHUE: Inverse mode at  86     Hk =   2.500

 Side 1  free  transition at x/c =  0.7413   60
 Side 2  free  transition at x/c =  0.0462   30

   1   rms: 0.1408E+00   max: -.8128E+00   D at   76  1   RLX: 0.615
       a = -4.000      CL =  0.0940
      Cm = -0.1172     CD =  0.01122   =>   CDf =  0.00692    CDp =  0.00430

 MRCHDU: Convergence failed at  62  side 1    Res =  0.2823E+01
 MRCHDU: Convergence failed at  63  side 1    Res =  0.3630E+01
 MRCHDU: Convergence failed at  64  side 1    Res =  0.2180E+01
 MRCHDU: Convergence failed at  65  side 1    Res =  0.4063E+01
 MRCHDU: Convergence failed at  66  side 1    Res =  0.7142E+01
 MRCHDU: Convergence failed at  67  side 1    Res =  0.1061E+02
 MRCHDU: Convergence failed at  68  side 1    Res =  0.1413E+02
 MRCHDU: Convergence failed at  69  side 1    Res =  0.1674E+02
 MRCHDU: Convergence failed at  70  side 1    Res =  0.1681E+02
 MRCHDU: Convergence failed at  71  side 1    Res =  0.1564E+02
 MRCHDU: Convergence failed at  72  side 1    Res =  0.1417E+02
 MRCHDU: Convergence failed at  73  side 1    Res =  0.1333E+02
 MRCHDU: Convergence failed at  74  side 1    Res =  0.1234E+02
 MRCHDU: Convergence failed at  75  side 1    Res =  0.1102E+02
 MRCHDU: Convergence failed at  76  side 1    Res =  0.9787E+01
 MRCHDU: Convergence failed at  77  side 1    Res =  0.2412E+04
 Side 1  free  transition at x/c =  0.7568   62
 Side 2  free  transition at x/c =  0.0460   29
 idif Ue xi dudx           1  0.20099050      5.22601604E-03   38.459602    
 Uenew xinew           2  0.10300539      2.67827511E-03

   2   rms: 0.3659E+00   max: 0.2088E+01   D at   77  1   RLX: 0.718
       a = -4.000      CL = -0.0732
      Cm = -0.0878     CD =  0.00992   =>   CDf =  0.00584    CDp =  0.00408

 MRCHDU: Convergence failed at  30  side 2    Res =  0.6509E+01
 MRCHDU: Convergence failed at  31  side 2    Res =  0.9845E+01
 MRCHDU: Convergence failed at  32  side 2    Res =  0.7193E+01
 MRCHDU: Convergence failed at  33  side 2    Res =  0.6262E+01
 MRCHDU: Convergence failed at  34  side 2    Res =  0.6962E+01
 MRCHDU: Convergence failed at  35  side 2    Res =  0.1428E+02
 MRCHDU: Convergence failed at  36  side 2    Res =  0.8167E+02
 MRCHDU: Convergence failed at  37  side 2    Res =  0.3588E+02
 MRCHDU: Convergence failed at  38  side 2    Res =  0.3231E+02
 MRCHDU: Convergence failed at  39  side 2    Res =  0.3144E+02
 MRCHDU: Convergence failed at  40  side 2    Res =  0.2810E+02
 MRCHDU: Convergence failed at  41  side 2    Res =  0.1189E+03
 MRCHDU: Convergence failed at  42  side 2    Res =  0.4588E+02
 MRCHDU: Convergence failed at  43  side 2    Res =  0.5433E+02
 MRCHDU: Convergence failed at  44  side 2    Res =  0.3035E+02
 MRCHDU: Convergence failed at  45  side 2    Res =  0.4372E+02
 MRCHDU: Convergence failed at  46  side 2    Res =  0.2463E+02
 MRCHDU: Convergence failed at  47  side 2    Res =  0.2457E+02
 MRCHDU: Convergence failed at  48  side 2    Res =  0.4314E+02
 MRCHDU: Convergence failed at  49  side 2    Res =  0.6062E+02
 MRCHDU: Convergence failed at  50  side 2    Res =  0.8624E+02
 MRCHDU: Convergence failed at  51  side 2    Res =  0.1160E+03
 MRCHDU: Convergence failed at  52  side 2    Res =  0.2974E+02
 MRCHDU: Convergence failed at  53  side 2    Res =  0.3078E+02
 MRCHDU: Convergence failed at  54  side 2    Res =  0.3167E+02
 MRCHDU: Convergence failed at  55  side 2    Res =  0.3217E+02
 MRCHDU: Convergence failed at  56  side 2    Res =  0.3357E+02
 MRCHDU: Convergence failed at  57  side 2    Res =  0.3379E+02
 MRCHDU: Convergence failed at  58  side 2    Res =  0.3373E+02
 MRCHDU: Convergence failed at  59  side 2    Res =  0.3502E+02
 MRCHDU: Convergence failed at  60  side 2    Res =  0.2869E+02
 MRCHDU: Convergence failed at  61  side 2    Res =  0.2977E+02
 MRCHDU: Convergence failed at  62  side 2    Res =  0.3090E+02
 MRCHDU: Convergence failed at  63  side 2    Res =  0.3208E+02
 MRCHDU: Convergence failed at  64  side 2    Res =  0.3340E+02
 MRCHDU: Convergence failed at  65  side 2    Res =  0.3483E+02
 MRCHDU: Convergence failed at  66  side 2    Res =  0.3634E+02
 MRCHDU: Convergence failed at  67  side 2    Res =  0.3795E+02
 MRCHDU: Convergence failed at  68  side 2    Res =  0.3954E+02
 MRCHDU: Convergence failed at  69  side 2    Res =  0.4114E+02
 MRCHDU: Convergence failed at  70  side 2    Res =  0.3328E+02
 MRCHDU: Convergence failed at  71  side 2    Res =  0.3421E+02
 MRCHDU: Convergence failed at  72  side 2    Res =  0.3514E+02
 MRCHDU: Convergence failed at  73  side 2    Res =  0.3606E+02
 MRCHDU: Convergence failed at  74  side 2    Res =  0.3699E+02
 MRCHDU: Convergence failed at  75  side 2    Res =  0.2715E+02
 MRCHDU: Convergence failed at  76  side 2    Res =  0.2790E+02
 MRCHDU: Convergence failed at  77  side 2    Res =  0.2889E+02
 MRCHDU: Convergence failed at  78  side 2    Res =  0.3016E+02
 MRCHDU: Convergence failed at  79  side 2    Res =  0.3194E+02
 MRCHDU: Convergence failed at  80  side 2    Res =  0.3435E+02
 MRCHDU: Convergence failed at  81  side 2    Res =  0.3417E+02
 MRCHDU: Convergence failed at  82  side 2    Res =  0.3717E+02
 MRCHDU: Convergence failed at  83  side 2    Res =  0.3189E+02
 MRCHDU: Convergence failed at  84  side 2    Res =  0.3560E+02
 MRCHDU: Convergence failed at  85  side 2    Res =  0.4148E+02
 MRCHDU: Convergence failed at  86  side 2    Res =  0.2643E+03
 Side 1  free  transition at x/c =  0.7473   61
 Side 2  free  transition at x/c =  0.0430   29

   3   rms: 0.1406E+01   max: 0.4342E+01   D at   86  2   RLX: 0.345
       a = -4.000      CL = -0.9744
      Cm =  0.2256     CD =  0.00614   =>   CDf =  0.00284    CDp =  0.00330

 MRCHDU: Convergence failed at  75  side 2    Res =  0.1805E+00
 MRCHDU: Convergence failed at  76  side 2    Res =  0.1647E+00
 MRCHDU: Convergence failed at  77  side 2    Res =  0.1501E+00
 MRCHDU: Convergence failed at  78  side 2    Res =  0.1364E+00
 MRCHDU: Convergence failed at  79  side 2    Res =  0.1245E+00
 MRCHDU: Convergence failed at  80  side 2    Res =  0.1208E+00
 MRCHDU: Convergence failed at  81  side 2    Res =  0.1287E+00
 MRCHDU: Convergence failed at  82  side 2    Res =  0.1480E+00
 MRCHDU: Convergence failed at  83  side 2    Res =  0.1581E+00
 MRCHDU: Convergence failed at  84  side 2    Res =  0.1538E+00
 MRCHDU: Convergence failed at  88  side 2    Res =  0.3485E+01
 MRCHDU: Convergence failed at  89  side 2    Res =  0.2710E+01
 MRCHDU: Convergence failed at  90  side 2    Res =  0.1542E+02
 Side 1  free  transition at x/c =  0.7524   62
 Side 2  free  transition at x/c =  0.0435   28

   4   rms: 0.5205E+00   max: -.1977E+01   T at   28  2   RLX: 0.253
       a = -4.000      CL = -0.1348
      Cm = -0.0298     CD =  0.03728   =>   CDf =  0.00314    CDp =  0.03414

 Side 1  free  transition at x/c =  0.7555   62
 Side 2  free  transition at x/c =  0.0500   29

   5   rms: 0.8320E+00   max: 0.3438E+01   D at   85  2   RLX: 0.184
       a = -4.000      CL =  0.0660
      Cm = -0.0763     CD =  0.03941   =>   CDf =  0.00325    CDp =  0.03616

 MRCHDU: Convergence failed at  75  side 1    Res =  0.2175E+00
 Side 1  free  transition at x/c =  0.7585   63
 Side 2  free  transition at x/c =  0.0470   28

   6   rms: 0.4503E+00   max: -.1692E+01   T at   28  2   RLX: 0.295
       a = -4.000      CL =  0.2128
      Cm = -0.1256     CD =  0.02894   =>   CDf =  0.00343    CDp =  0.02552

 MRCHDU: Convergence failed at  84  side 2    Res =  0.2126E-01
 Side 1  free  transition at x/c =  0.7597   63
 Side 2  free  transition at x/c =  0.0504   28

   7   rms: 0.3421E+00   max: 0.2239E+01   T at   28  2   RLX: 0.394
       a = -4.000      CL =  0.2997
      Cm = -0.1531     CD =  0.02818   =>   CDf =  0.00347    CDp =  0.02471

 Side 1  free  transition at x/c =  0.7598   63
 Side 2  free  transition at x/c =  0.0470   28

   8   rms: 0.1494E+01   max: -.6930E+01   D at   84  2   RLX: 0.072
       a = -4.000      CL =  0.3536
      Cm = -0.1749     CD =  0.02290   =>   CDf =  0.00340    CDp =  0.01950

 MRCHDU: Convergence failed at  84  side 2    Res =  0.6285E-01
 Side 1  free  transition at x/c =  0.7598   63
 Side 2  free  transition at x/c =  0.0487   28

   9   rms: 0.5288E+01   max: 0.3003E+02   D at   84  2   RLX: 0.050
       a = -4.000      CL =  0.2382
      Cm = -0.1326     CD =  0.03640   =>   CDf =  0.00345    CDp =  0.03295

 Side 1  free  transition at x/c =  0.7591   63
 Side 2  free  transition at x/c =  0.0458   28

  10   rms: 0.7725E+00   max: -.2537E+01   D at   84  2   RLX: 0.197
       a = -4.000      CL =  0.2877
      Cm = -0.1595     CD =  0.02588   =>   CDf =  0.00330    CDp =  0.02259

 Side 1  free  transition at x/c =  0.7585   63
 Side 2  free  transition at x/c =  0.0474   28

  11   rms: 0.1455E+02   max: -.5005E+02   D at   84  2   RLX: 0.010
       a = -4.000      CL =  0.3752
      Cm = -0.1912     CD =  0.01893   =>   CDf =  0.00342    CDp =  0.01552

 Side 1  free  transition at x/c =  0.7583   63
 Side 2  free  transition at x/c =  0.0496   28

  12   rms: 0.1279E+01   max: 0.5230E+01   T at   28  2   RLX: 0.287
       a = -4.000      CL =  0.1978
      Cm = -0.1365     CD =  0.03221   =>   CDf =  0.00368    CDp =  0.02852

 MRCHDU: Convergence failed at  28  side 2    Res =  0.6420E+01
 Side 1  free  transition at x/c =  0.7576   63
 Side 2  free  transition at x/c =  0.0457   28
 idif Ue xi dudx           1  0.14688788      3.51047516E-03   41.842735    
 Uenew xinew           2  4.57203984E-02  1.09267235E-03

  13   rms: 0.1540E+01   max: -.5034E+01   D at   73  2   RLX: 0.099
       a = -4.000      CL =  0.1706
      Cm = -0.1407     CD =  0.02455   =>   CDf =  0.00344    CDp =  0.02111

 MRCHDU: Convergence failed at  68  side 2    Res =  0.6850E+01
 MRCHDU: Convergence failed at  69  side 2    Res =  0.5745E+01
 MRCHDU: Convergence failed at  70  side 2    Res =  0.5368E+01
 MRCHDU: Convergence failed at  71  side 2    Res =  0.4778E+01
 MRCHDU: Convergence failed at  72  side 2    Res =  0.4097E+01
 MRCHDU: Convergence failed at  73  side 2    Res =  0.3448E+01
 Side 1  free  transition at x/c =  0.7569   62
 Side 2  free  transition at x/c =  0.0451   29
 idif Ue xi dudx           1  0.10878764      2.64453888E-03   41.136715    
 Uenew xinew           2  3.98194930E-03  9.67979431E-05

  14   rms: 0.1410E+01   max: -.4392E+01   D at   50  2   RLX: 0.114
       a = -4.000      CL =  0.0854
      Cm = -0.1253     CD =  0.02691   =>   CDf =  0.00337    CDp =  0.02354

 Side 1  free  transition at x/c =  0.7557   61
 Side 2  free  transition at x/c =  0.0457   30

  15   rms: 0.8638E+00   max: 0.2685E+01   D at    2  2   RLX: 0.189
       a = -4.000      CL =  0.0758
      Cm = -0.1213     CD =  0.01809   =>   CDf =  0.00424    CDp =  0.01385

 Side 1  free  transition at x/c =  0.7558   61
 Side 2  free  transition at x/c =  0.0467   30

  16   rms: 0.6217E+01   max: -.2164E+02   D at   47  2   RLX: 0.023
       a = -4.000      CL =  0.0672
      Cm = -0.1183     CD =  0.01449   =>   CDf =  0.00478    CDp =  0.00971

 Side 1  free  transition at x/c =  0.7558   61
 Side 2  free  transition at x/c =  0.0497   30

  17   rms: 0.5785E+00   max: 0.5121E+01   T at   30  2   RLX: 0.151
       a = -4.000      CL =  0.0679
      Cm = -0.1173     CD =  0.01692   =>   CDf =  0.00508    CDp =  0.01184

 Side 1  free  transition at x/c =  0.7561   61
 Side 2  free  transition at x/c =  0.0466   30

  18   rms: 0.2387E+01   max: -.8175E+01   D at   36  2   RLX: 0.061
       a = -4.000      CL =  0.0404
      Cm = -0.1153     CD =  0.01568   =>   CDf =  0.00462    CDp =  0.01107

 Side 1  free  transition at x/c =  0.7562   61
 Side 2  free  transition at x/c =  0.0485   30

  19   rms: 0.5815E+01   max: 0.2331E+02   D at   39  2   RLX: 0.053
       a = -4.000      CL =  0.0669
      Cm = -0.1201     CD =  0.02386   =>   CDf =  0.00498    CDp =  0.01888

 Side 1  free  transition at x/c =  0.7564   61
 Side 2  free  transition at x/c =  0.0450   30

  20   rms: 0.7943E+00   max: -.2358E+01   D at   51  2   RLX: 0.212
       a = -4.000      CL =  0.0494
      Cm = -0.1138     CD =  0.02058   =>   CDf =  0.00401    CDp =  0.01657

 Side 1  free  transition at x/c =  0.7562   61
 Side 2  free  transition at x/c =  0.0455   30

  21   rms: 0.1339E+01   max: -.5354E+01   D at   37  2   RLX: 0.093
       a = -4.000      CL =  0.0382
      Cm = -0.1104     CD =  0.01666   =>   CDf =  0.00471    CDp =  0.01195

 Side 1  free  transition at x/c =  0.7563   61
 Side 2  free  transition at x/c =  0.0460   30

  22   rms: 0.8031E+00   max: -.3602E+01   D at   37  2   RLX: 0.139
       a = -4.000      CL =  0.0277
      Cm = -0.1087     CD =  0.01526   =>   CDf =  0.00507    CDp =  0.01019

 Side 1  free  transition at x/c =  0.7566   61
 Side 2  free  transition at x/c =  0.0465   30

  23   rms: 0.4981E+00   max: -.2614E+01   D at   39  2   RLX: 0.191
       a = -4.000      CL =  0.0272
      Cm = -0.1076     CD =  0.01430   =>   CDf =  0.00551    CDp =  0.00879

 Side 1  free  transition at x/c =  0.7569   61
 Side 2  free  transition at x/c =  0.0466   30

  24   rms: 0.3261E+00   max: -.1842E+01   D at   39  2   RLX: 0.271
       a = -4.000      CL =  0.0389
      Cm = -0.1078     CD =  0.01335   =>   CDf =  0.00586    CDp =  0.00749

 Side 1  free  transition at x/c =  0.7575   61
 Side 2  free  transition at x/c =  0.0466   30

  25   rms: 0.2920E+00   max: -.1777E+01   D at   41  2   RLX: 0.281
       a = -4.000      CL =  0.0466
      Cm = -0.1078     CD =  0.01239   =>   CDf =  0.00612    CDp =  0.00627

 Side 1  free  transition at x/c =  0.7578   61
 Side 2  free  transition at x/c =  0.0466   30

  26   rms: 0.2184E+00   max: -.1489E+01   D at   41  2   RLX: 0.336
       a = -4.000      CL =  0.0523
      Cm = -0.1079     CD =  0.01179   =>   CDf =  0.00635    CDp =  0.00544

 Side 1  free  transition at x/c =  0.7582   61
 Side 2  free  transition at x/c =  0.0465   30

  27   rms: 0.1611E+00   max: -.1208E+01   D at   40  2   RLX: 0.414
       a = -4.000      CL =  0.0569
      Cm = -0.1077     CD =  0.01129   =>   CDf =  0.00650    CDp =  0.00479

 Side 1  free  transition at x/c =  0.7584   61
 Side 2  free  transition at x/c =  0.0463   30

  28   rms: 0.8853E-01   max: -.8535E+00   D at   40  2   RLX: 0.586
       a = -4.000      CL =  0.0618
      Cm = -0.1075     CD =  0.01119   =>   CDf =  0.00662    CDp =  0.00457

 Side 1  free  transition at x/c =  0.7586   61
 Side 2  free  transition at x/c =  0.0455   30

  29   rms: 0.4085E-01   max: -.3848E+00   D at   40  2
       a = -4.000      CL =  0.0686
      Cm = -0.1079     CD =  0.01155   =>   CDf =  0.00681    CDp =  0.00475

 Side 1  free  transition at x/c =  0.7587   62
 Side 2  free  transition at x/c =  0.0447   28

  30   rms: 0.7312E-02   max: -.6811E-01   D at   30  2
       a = -4.000      CL =  0.0686
      Cm = -0.1079     CD =  0.01160   =>   CDf =  0.00678    CDp =  0.00481

 Side 1  free  transition at x/c =  0.7587   62
 Side 2  free  transition at x/c =  0.0446   28

  31   rms: 0.3449E-03   max: 0.2693E-02   D at   28  2
       a = -4.000      CL =  0.0686
      Cm = -0.1079     CD =  0.01160   =>   CDf =  0.00678    CDp =  0.00482

 Side 1  free  transition at x/c =  0.7587   62
 Side 2  free  transition at x/c =  0.0446   28

  32   rms: 0.3373E-05   max: 0.1234E-04   D at   43  2
       a = -4.000      CL =  0.0686
      Cm = -0.1079     CD =  0.01160   =>   CDf =  0.00678    CDp =  0.00482
 plradd ia,ip,cpol            1           0  1.46532003E-02

 Point added to stored polar  1
 Point written to save file  goe478_Re600k.base.pol                          
 Dump file unspecified or not available
 Calculating wake trajectory ...
 Calculating source influence matrix ...

 Solving BL system ...

 Side 1  free  transition at x/c =  0.7587   62
 Side 2  free  transition at x/c =  0.0446   28

   1   rms: 0.7697E-01   max: -.3439E+00   T at   28  2
       a = -3.500      CL =  0.1210
      Cm = -0.1069     CD =  0.01123   =>   CDf =  0.00678    CDp =  0.00445

 Side 1  free  transition at x/c =  0.7504   62
 Side 2  free  transition at x/c =  0.0468   29

   2   rms: 0.2755E-01   max: 0.4125E+00   D at   29  2
       a = -3.500      CL =  0.1187
      Cm = -0.1065     CD =  0.01090   =>   CDf =  0.00680    CDp =  0.00411

 Side 1  free  transition at x/c =  0.7511   62
 Side 2  free  transition at x/c =  0.0469   29

   3   rms: 0.5866E-02   max: 0.6179E-01   D at   29  2
       a = -3.500      CL =  0.1189
      Cm = -0.1066     CD =  0.01092   =>   CDf =  0.00677    CDp =  0.00416

 Side 1  free  transition at x/c =  0.7511   62
 Side 2  free  transition at x/c =  0.0468   29

   4   rms: 0.3238E-04   max: 0.3552E-03   D at   29  2
       a = -3.500      CL =  0.1189
      Cm = -0.1066     CD =  0.01092   =>   CDf =  0.00677    CDp =  0.00416
 plradd ia,ip,cpol            2           0  1.46532003E-02

 Point added to stored polar  1
 Point written to save file  goe478_Re600k.base.pol                          
 Dump file unspecified or not available
 Calculating wake trajectory ...
 Calculating source influence matrix ...

 Solving BL system ...

 Side 1  free  transition at x/c =  0.7511   62
 Side 2  free  transition at x/c =  0.0468   29

   1   rms: 0.8171E-01   max: -.3786E+00   T at   29  2
       a = -3.000      CL =  0.1708
      Cm = -0.1055     CD =  0.01047   =>   CDf =  0.00684    CDp =  0.00363

 Side 1  free  transition at x/c =  0.7425   62
 Side 2  free  transition at x/c =  0.0491   28

   2   rms: 0.2604E-01   max: -.2281E+00   D at   28  2
       a = -3.000      CL =  0.1718
      Cm = -0.1057     CD =  0.01056   =>   CDf =  0.00683    CDp =  0.00373

 Side 1  free  transition at x/c =  0.7428   62
 Side 2  free  transition at x/c =  0.0495   28

   3   rms: 0.1140E-02   max: 0.9551E-02   D at   28  2
       a = -3.000      CL =  0.1718
      Cm = -0.1057     CD =  0.01056   =>   CDf =  0.00682    CDp =  0.00374

 Side 1  free  transition at x/c =  0.7428   62
 Side 2  free  transition at x/c =  0.0495   28

   4   rms: 0.1781E-05   max: 0.1639E-04   T at   28  2
       a = -3.000      CL =  0.1718
      Cm = -0.1057     CD =  0.01056   =>   CDf =  0.00682    CDp =  0.00374
 plradd ia,ip,cpol            3           0  1.46532003E-02

 Point added to stored polar  1
 Point written to save file  goe478_Re600k.base.pol                          
 Dump file unspecified or not available
 Calculating wake trajectory ...
 Calculating source influence matrix ...

 Solving BL system ...

 Side 1  free  transition at x/c =  0.7428   62
 Side 2  free  transition at x/c =  0.0495   28

   1   rms: 0.8004E-01   max: -.3532E+00   T at   28  2
       a = -2.500      CL =  0.2227
      Cm = -0.1043     CD =  0.01016   =>   CDf =  0.00689    CDp =  0.00327

 Side 1  free  transition at x/c =  0.7337   63
 Side 2  free  transition at x/c =  0.0533   28

   2   rms: 0.1376E-01   max: 0.2814E+00   D at   28  2
       a = -2.500      CL =  0.2224
      Cm = -0.1043     CD =  0.01006   =>   CDf =  0.00681    CDp =  0.00325

 Side 1  free  transition at x/c =  0.7344   63
 Side 2  free  transition at x/c =  0.0534   28

   3   rms: 0.2480E-02   max: 0.3316E-01   D at   28  2
       a = -2.500      CL =  0.2225
      Cm = -0.1043     CD =  0.01007   =>   CDf =  0.00679    CDp =  0.00328

 Side 1  free  transition at x/c =  0.7344   63
 Side 2  free  transition at x/c =  0.0534   28

   4   rms: 0.1744E-04   max: 0.2114E-03   D at   28  2
       a = -2.500      CL =  0.2225
      Cm = -0.1043     CD =  0.01007   =>   CDf =  0.00679    CDp =  0.00328
 plradd ia,ip,cpol            4           0  1.46532003E-02

 Point added to stored polar  1
 Point written to save file  goe478_Re600k.base.pol                          
 Dump file unspecified or not available
 Calculating wake trajectory ...
 Calculating source influence matrix ...

 Solving BL system ...

 Side 1  free  transition at x/c =  0.7344   63
 Side 2  free  transition at x/c =  0.0534   28

   1   rms: 0.8646E-01   max: -.5287E+00   T at   28  2   RLX: 0.946
       a = -2.000      CL =  0.2715
      Cm = -0.1032     CD =  0.00971   =>   CDf =  0.00684    CDp =  0.00288

 Side 1  free  transition at x/c =  0.7253   64
 Side 2  free  transition at x/c =  0.0582   28

   2   rms: 0.5465E-01   max: -.4212E+00   D at   27  2
       a = -2.000      CL =  0.2740
      Cm = -0.1031     CD =  0.00959   =>   CDf =  0.00686    CDp =  0.00273

 Side 1  free  transition at x/c =  0.7254   64
 Side 2  free  transition at x/c =  0.0624   28

   3   rms: 0.1837E-01   max: -.2725E+00   D at   28  2
       a = -2.000      CL =  0.2750
      Cm = -0.1033     CD =  0.00971   =>   CDf =  0.00682    CDp =  0.00289

 Side 1  free  transition at x/c =  0.7254   64
 Side 2  free  transition at x/c =  0.0611   28

   4   rms: 0.9378E-03   max: 0.1479E-01   D at   28  2
       a = -2.000      CL =  0.2752
      Cm = -0.1033     CD =  0.00973   =>   CDf =  0.00682    CDp =  0.00291

 Side 1  free  transition at x/c =  0.7254   64
 Side 2  free  transition at x/c =  0.0610   28

   5   rms: 0.6267E-05   max: 0.7607E-04   C at   28  2
       a = -2.000      CL =  0.2752
      Cm = -0.1033     CD =  0.00973   =>   CDf =  0.00682    CDp =  0.00291
 plradd ia,ip,cpol            5           0  1.46532003E-02

 Point added to stored polar  1
 Point written to save file  goe478_Re600k.base.pol                          
 Dump file unspecified or not available
 Calculating wake trajectory ...
 Calculating source influence matrix ...

 Solving BL system ...

 Side 1  free  transition at x/c =  0.7254   64
 Side 2  free  transition at x/c =  0.0610   28

   1   rms: 0.9745E-01   max: -.6526E+00   T at   28  2   RLX: 0.766
       a = -1.500      CL =  0.3174
      Cm = -0.1030     CD =  0.00959   =>   CDf =  0.00682    CDp =  0.00277

 Side 1  free  transition at x/c =  0.7175   63
 Side 2  free  transition at x/c =  0.0712   29

   2   rms: 0.3963E-01   max: -.4150E+00   T at   29  2
       a = -1.500      CL =  0.3262
      Cm = -0.1019     CD =  0.00938   =>   CDf =  0.00679    CDp =  0.00259

 MRCHDU: Convergence failed at  32  side 2    Res =  0.1103E+01
 MRCHDU: Convergence failed at  33  side 2    Res =  0.1872E+01
 Side 1  free  transition at x/c =  0.7154   63
 Side 2  free  transition at x/c =  0.1062   33

   3   rms: 0.3737E-01   max: 0.4838E+00   D at   29  2
       a = -1.500      CL =  0.3249
      Cm = -0.1018     CD =  0.00922   =>   CDf =  0.00657    CDp =  0.00265

 Side 1  free  transition at x/c =  0.7154   63
 Side 2  free  transition at x/c =  0.1069   33

   4   rms: 0.1569E-01   max: -.2220E+00   D at   33  2
       a = -1.500      CL =  0.3253
      Cm = -0.1018     CD =  0.00927   =>   CDf =  0.00656    CDp =  0.00271

 Side 1  free  transition at x/c =  0.7154   63
 Side 2  free  transition at x/c =  0.0983   32

   5   rms: 0.3808E-02   max: -.7450E-01   C at   32  2
       a = -1.500      CL =  0.3256
      Cm = -0.1019     CD =  0.00931   =>   CDf =  0.00660    CDp =  0.00271

 Side 1  free  transition at x/c =  0.7154   63
 Side 2  free  transition at x/c =  0.0980   32

   6   rms: 0.1038E-03   max: 0.1571E-02   C at   32  2
       a = -1.500      CL =  0.3256
      Cm = -0.1019     CD =  0.00931   =>   CDf =  0.00660    CDp =  0.00271

 Side 1  free  transition at x/c =  0.7154   63
 Side 2  free  transition at x/c =  0.0980   32

   7   rms: 0.8571E-06   max: 0.5119E-05   D at    4  2
       a = -1.500      CL =  0.3256
      Cm = -0.1019     CD =  0.00931   =>   CDf =  0.00660    CDp =  0.00271
 plradd ia,ip,cpol            6           0  1.73164792E-02

 Point added to stored polar  1
 Point written to save file  goe478_Re600k.base.pol                          
 Dump file unspecified or not available
 Calculating wake trajectory ...
 Calculating source influence matrix ...

 Solving BL system ...

 Side 1  free  transition at x/c =  0.7154   63
 Side 2  free  transition at x/c =  0.0980   32

   1   rms: 0.1163E+00   max: 0.9635E+00   C at   32  2   RLX: 0.631
       a = -1.000      CL =  0.3592
      Cm = -0.1012     CD =  0.00927   =>   CDf =  0.00659    CDp =  0.00268

 MRCHDU: Convergence failed at  32  side 2    Res =  0.1082E+01
 MRCHDU: Convergence failed at  33  side 2    Res =  0.1605E+01
 MRCHDU: Convergence failed at  34  side 2    Res =  0.1836E+01
 MRCHDU: Convergence failed at  35  side 2    Res =  0.1925E+01
 MRCHDU: Convergence failed at  36  side 2    Res =  0.1677E+01
 MRCHDU: Convergence failed at  37  side 2    Res =  0.1953E+01
 MRCHDU: Convergence failed at  38  side 2    Res =  0.2683E+01
 MRCHDU: Convergence failed at  39  side 2    Res =  0.3284E+01
 MRCHDU: Convergence failed at  40  side 2    Res =  0.3678E+01
 MRCHDU: Convergence failed at  41  side 2    Res =  0.3954E+01
 MRCHDU: Convergence failed at  42  side 2    Res =  0.4132E+01
 MRCHDU: Convergence failed at  43  side 2    Res =  0.4277E+01
 MRCHDU: Convergence failed at  44  side 2    Res =  0.4600E+01
 MRCHDU: Convergence failed at  45  side 2    Res =  0.4955E+01
 MRCHDU: Convergence failed at  46  side 2    Res =  0.5403E+01
 MRCHDU: Convergence failed at  47  side 2    Res =  0.5921E+01
 MRCHDU: Convergence failed at  48  side 2    Res =  0.6461E+01
 MRCHDU: Convergence failed at  49  side 2    Res =  0.6967E+01
 MRCHDU: Convergence failed at  50  side 2    Res =  0.7476E+01
 MRCHDU: Convergence failed at  51  side 2    Res =  0.8001E+01
 MRCHDU: Convergence failed at  52  side 2    Res =  0.8552E+01
 MRCHDU: Convergence failed at  53  side 2    Res =  0.9112E+01
 MRCHDU: Convergence failed at  54  side 2    Res =  0.9706E+01
 MRCHDU: Convergence failed at  55  side 2    Res =  0.1065E+02
 MRCHDU: Convergence failed at  56  side 2    Res =  0.1141E+02
 MRCHDU: Convergence failed at  57  side 2    Res =  0.1269E+02
 MRCHDU: Convergence failed at  58  side 2    Res =  0.1375E+02
 MRCHDU: Convergence failed at  59  side 2    Res =  0.1516E+02
 MRCHDU: Convergence failed at  60  side 2    Res =  0.1687E+02
 MRCHDU: Convergence failed at  61  side 2    Res =  0.1900E+02
 MRCHDU: Convergence failed at  62  side 2    Res =  0.2286E+02
 MRCHDU: Convergence failed at  63  side 2    Res =  0.2616E+02
 MRCHDU: Convergence failed at  64  side 2    Res =  0.2979E+02
 MRCHDU: Convergence failed at  65  side 2    Res =  0.3353E+02
 MRCHDU: Convergence failed at  66  side 2    Res =  0.3771E+02
 MRCHDU: Convergence failed at  67  side 2    Res =  0.4300E+02
 MRCHDU: Convergence failed at  68  side 2    Res =  0.4973E+02
 MRCHDU: Convergence failed at  69  side 2    Res =  0.5943E+02
 MRCHDU: Convergence failed at  70  side 2    Res =  0.7683E+02
 MRCHDU: Convergence failed at  71  side 2    Res =  0.1151E+03
 MRCHDU: Convergence failed at  72  side 2    Res =  0.2380E+04
 MRCHDU: Convergence failed at  73  side 2    Res =  0.8403E+02
 MRCHDU: Convergence failed at  74  side 2    Res =  0.4324E+02
 MRCHDU: Convergence failed at  75  side 2    Res =  0.2444E+02
 MRCHDU: Convergence failed at  76  side 2    Res =  0.1699E+02
 MRCHDU: Convergence failed at  77  side 2    Res =  0.1290E+02
 MRCHDU: Convergence failed at  78  side 2    Res =  0.1023E+02
 MRCHDU: Convergence failed at  79  side 2    Res =  0.8598E+01
 MRCHDU: Convergence failed at  80  side 2    Res =  0.6658E+01
 MRCHDU: Convergence failed at  81  side 2    Res =  0.2464E+02
 Side 1  free  transition at x/c =  0.7077   64
 Side 2 forced transition at x/c =  1.0000   81

   2   rms: 0.3511E+00   max: -.4574E+00   U at   81  2   RLX: 0.820
       a = -1.000      CL =  0.2491
      Cm = -0.0631     CD =  0.00560   =>   CDf =  0.00691    CDp = -0.00131

 MRCHDU: Convergence failed at  38  side 2    Res =  0.8349E+00
 MRCHDU: Convergence failed at  39  side 2    Res =  0.1218E+01
 MRCHDU: Convergence failed at  40  side 2    Res =  0.2176E+01
 Side 1  free  transition at x/c =  0.7054   63
 Side 2  free  transition at x/c =  0.2346   40

   3   rms: 0.1040E+00   max: -.7155E+00   C at   41  2   RLX: 0.699
       a = -1.000      CL =  0.3322
      Cm = -0.0899     CD =  0.00848   =>   CDf =  0.00661    CDp =  0.00186

 Side 1  free  transition at x/c =  0.7046   63
 Side 2  free  transition at x/c =  0.1654   36

   4   rms: 0.4147E-01   max: -.3798E+00   D at   36  2
       a = -1.000      CL =  0.3769
      Cm = -0.1007     CD =  0.00898   =>   CDf =  0.00654    CDp =  0.00244

 Side 1  free  transition at x/c =  0.7042   63
 Side 2  free  transition at x/c =  0.1336   34

   5   rms: 0.1025E-01   max: -.1561E+00   D at   34  2
       a = -1.000      CL =  0.3780
      Cm = -0.1008     CD =  0.00911   =>   CDf =  0.00653    CDp =  0.00258

 Side 1  free  transition at x/c =  0.7041   63
 Side 2  free  transition at x/c =  0.1305   34

   6   rms: 0.4320E-03   max: 0.5804E-02   D at   35  2
       a = -1.000      CL =  0.3780
      Cm = -0.1008     CD =  0.00911   =>   CDf =  0.00654    CDp =  0.00256

 Side 1  free  transition at x/c =  0.7041   63
 Side 2  free  transition at x/c =  0.1304   34

   7   rms: 0.1015E-05   max: -.1149E-04   D at   36  2
       a = -1.000      CL =  0.3780
      Cm = -0.1008     CD =  0.00911   =>   CDf =  0.00655    CDp =  0.00256
 plradd ia,ip,cpol            7           0  1.73164792E-02

 Point added to stored polar  1
 Point written to save file  goe478_Re600k.base.pol                          
 Dump file unspecified or not available
 Calculating wake trajectory ...
 Calculating source influence matrix ...

 Solving BL system ...

 Side 1  free  transition at x/c =  0.7041   63
 Side 2  free  transition at x/c =  0.1304   34

   1   rms: 0.9871E-01   max: -.8576E+00   C at   34  2   RLX: 0.583
       a = -0.500      CL =  0.4069
      Cm = -0.0999     CD =  0.00891   =>   CDf =  0.00652    CDp =  0.00239

 Side 1  free  transition at x/c =  0.6963   64
 Side 2  free  transition at x/c =  0.1402   34

   2   rms: 0.5516E-01   max: -.5087E+00   C at   34  2   RLX: 0.983
       a = -0.500      CL =  0.4279
      Cm = -0.0994     CD =  0.00880   =>   CDf =  0.00654    CDp =  0.00225

 Side 1  free  transition at x/c =  0.6909   64
 Side 2  free  transition at x/c =  0.1816   36

   3   rms: 0.1899E-01   max: -.3364E+00   C at   36  2
       a = -0.500      CL =  0.4286
      Cm = -0.0994     CD =  0.00883   =>   CDf =  0.00637    CDp =  0.00246

 Side 1  free  transition at x/c =  0.6912   64
 Side 2  free  transition at x/c =  0.1690   36

   4   rms: 0.2633E-02   max: 0.4633E-01   D at   37  2
       a = -0.500      CL =  0.4290
      Cm = -0.0995     CD =  0.00888   =>   CDf =  0.00640    CDp =  0.00249

 Side 1  free  transition at x/c =  0.6912   64
 Side 2  free  transition at x/c =  0.1692   36

   5   rms: 0.1034E-03   max: -.1859E-02   D at   37  2
       a = -0.500      CL =  0.4290
      Cm = -0.0995     CD =  0.00888   =>   CDf =  0.00639    CDp =  0.00249

 Side 1  free  transition at x/c =  0.6912   64
 Side 2  free  transition at x/c =  0.1692   36

   6   rms: 0.6891E-06   max: -.5171E-05   D at   37  2
       a = -0.500      CL =  0.4290
      Cm = -0.0995     CD =  0.00888   =>   CDf =  0.00639    CDp =  0.00249
 plradd ia,ip,cpol            8           0  1.73164792E-02

 Point added to stored polar  1
 Point written to save file  goe478_Re600k.base.pol                          
 Dump file unspecified or not available
 Calculating wake trajectory ...
 Calculating source influence matrix ...

 Solving BL system ...

 Side 1  free  transition at x/c =  0.6912   64
 Side 2  free  transition at x/c =  0.1692   36

   1   rms: 0.1141E+00   max: 0.1056E+01   D at   36  2   RLX: 0.483
       a =  0.000      CL =  0.4537
      Cm = -0.0989     CD =  0.00878   =>   CDf =  0.00639    CDp =  0.00238

 Side 1  free  transition at x/c =  0.6847   63
 Side 2  free  transition at x/c =  0.1828   36

   2   rms: 0.4911E-01   max: 0.3944E+00   C at   36  2
       a =  0.000      CL =  0.4809
      Cm = -0.0982     CD =  0.00884   =>   CDf =  0.00638    CDp =  0.00246

 MRCHDU: Convergence failed at  36  side 2    Res =  0.1108E+02
 MRCHDU: Convergence failed at  37  side 2    Res =  0.9851E+00
 MRCHDU: Convergence failed at  38  side 2    Res =  0.1714E+01
 MRCHDU: Convergence failed at  39  side 2    Res =  0.1720E+01
 MRCHDU: Convergence failed at  40  side 2    Res =  0.1470E+01
 MRCHDU: Convergence failed at  41  side 2    Res =  0.1249E+01
 MRCHDU: Convergence failed at  42  side 2    Res =  0.9797E+00
 MRCHDU: Convergence failed at  43  side 2    Res =  0.1079E+01
 MRCHDU: Convergence failed at  44  side 2    Res =  0.1218E+01
 MRCHDU: Convergence failed at  45  side 2    Res =  0.1362E+01
 MRCHDU: Convergence failed at  46  side 2    Res =  0.1523E+01
 MRCHDU: Convergence failed at  47  side 2    Res =  0.1711E+01
 MRCHDU: Convergence failed at  48  side 2    Res =  0.2125E+01
 MRCHDU: Convergence failed at  49  side 2    Res =  0.2373E+01
 MRCHDU: Convergence failed at  50  side 2    Res =  0.2650E+01
 MRCHDU: Convergence failed at  51  side 2    Res =  0.2960E+01
 MRCHDU: Convergence failed at  52  side 2    Res =  0.3304E+01
 MRCHDU: Convergence failed at  53  side 2    Res =  0.3694E+01
 MRCHDU: Convergence failed at  54  side 2    Res =  0.4118E+01
 MRCHDU: Convergence failed at  55  side 2    Res =  0.4667E+01
 MRCHDU: Convergence failed at  56  side 2    Res =  0.5315E+01
 MRCHDU: Convergence failed at  57  side 2    Res =  0.6171E+01
 MRCHDU: Convergence failed at  58  side 2    Res =  0.7287E+01
 MRCHDU: Convergence failed at  59  side 2    Res =  0.8968E+01
 MRCHDU: Convergence failed at  60  side 2    Res =  0.1094E+02
 MRCHDU: Convergence failed at  61  side 2    Res =  0.1355E+02
 MRCHDU: Convergence failed at  62  side 2    Res =  0.1702E+02
 MRCHDU: Convergence failed at  63  side 2    Res =  0.2148E+02
 MRCHDU: Convergence failed at  64  side 2    Res =  0.2807E+02
 MRCHDU: Convergence failed at  65  side 2    Res =  0.3946E+02
 MRCHDU: Convergence failed at  66  side 2    Res =  0.6320E+02
 MRCHDU: Convergence failed at  67  side 2    Res =  0.1496E+03
 MRCHDU: Convergence failed at  68  side 2    Res =  0.3794E+03
 MRCHDU: Convergence failed at  69  side 2    Res =  0.8349E+02
 MRCHDU: Convergence failed at  70  side 2    Res =  0.3781E+02
 MRCHDU: Convergence failed at  71  side 2    Res =  0.2561E+02
 MRCHDU: Convergence failed at  72  side 2    Res =  0.1850E+02
 MRCHDU: Convergence failed at  73  side 2    Res =  0.1408E+02
 MRCHDU: Convergence failed at  74  side 2    Res =  0.1160E+02
 MRCHDU: Convergence failed at  75  side 2    Res =  0.1012E+02
 MRCHDU: Convergence failed at  76  side 2    Res =  0.9103E+01
 MRCHDU: Convergence failed at  77  side 2    Res =  0.7792E+01
 MRCHDU: Convergence failed at  78  side 2    Res =  0.6607E+01
 MRCHDU: Convergence failed at  79  side 2    Res =  0.5032E+01
 Side 1  free  transition at x/c =  0.6736   64
 Side 2 forced transition at x/c =  1.0000   79

   3   rms: 0.1805E+00   max: 0.1086E+01   D at   79  2
       a =  0.000      CL =  0.4656
      Cm = -0.0955     CD =  0.00608   =>   CDf =  0.00510    CDp =  0.00098

 Side 1  free  transition at x/c =  0.6759   64
 Side 2  free  transition at x/c =  0.2503   39

   4   rms: 0.3482E-01   max: -.4299E+00   D at   39  2
       a =  0.000      CL =  0.4779
      Cm = -0.0978     CD =  0.00857   =>   CDf =  0.00616    CDp =  0.00241

 Side 1  free  transition at x/c =  0.6750   64
 Side 2  free  transition at x/c =  0.2136   37

   5   rms: 0.1032E-01   max: 0.1500E+00   D at   38  2
       a =  0.000      CL =  0.4799
      Cm = -0.0981     CD =  0.00872   =>   CDf =  0.00628    CDp =  0.00244

 Side 1  free  transition at x/c =  0.6749   64
 Side 2  free  transition at x/c =  0.2116   37

   6   rms: 0.3610E-03   max: 0.6635E-02   C at   37  2
       a =  0.000      CL =  0.4799
      Cm = -0.0981     CD =  0.00872   =>   CDf =  0.00628    CDp =  0.00244

 Side 1  free  transition at x/c =  0.6749   64
 Side 2  free  transition at x/c =  0.2114   37

   7   rms: 0.1479E-05   max: -.1415E-04   D at   37  2
       a =  0.000      CL =  0.4799
      Cm = -0.0981     CD =  0.00872   =>   CDf =  0.00628    CDp =  0.00243
 plradd ia,ip,cpol            9           0  0.26981819    

 Point added to stored polar  1
 Point written to save file  goe478_Re600k.base.pol                          
 Dump file unspecified or not available
 Calculating wake trajectory ...
 Calculating source influence matrix ...

 Solving BL system ...

 Side 1  free  transition at x/c =  0.6749   64
 Side 2  free  transition at x/c =  0.2114   37

   1   rms: 0.9118E-01   max: -.6228E+00   C at   37  2   RLX: 0.803
       a =  0.500      CL =  0.5202
      Cm = -0.0969     CD =  0.00861   =>   CDf =  0.00628    CDp =  0.00232

 Side 1  free  transition at x/c =  0.6597   63
 Side 2  free  transition at x/c =  0.2335   38

   2   rms: 0.2454E-01   max: -.1971E+00   T at   38  2
       a =  0.500      CL =  0.5301
      Cm = -0.0965     CD =  0.00858   =>   CDf =  0.00629    CDp =  0.00229

 Side 1  free  transition at x/c =  0.6521   63
 Side 2  free  transition at x/c =  0.2478   39

   3   rms: 0.1088E-01   max: -.2008E+00   C at   39  2
       a =  0.500      CL =  0.5291
      Cm = -0.0964     CD =  0.00853   =>   CDf =  0.00624    CDp =  0.00229

 Side 1  free  transition at x/c =  0.6531   63
 Side 2  free  transition at x/c =  0.2523   39

   4   rms: 0.2780E-03   max: -.3871E-02   D at   39  2
       a =  0.500      CL =  0.5292
      Cm = -0.0964     CD =  0.00854   =>   CDf =  0.00621    CDp =  0.00233

 Side 1  free  transition at x/c =  0.6531   63
 Side 2  free  transition at x/c =  0.2522   39

   5   rms: 0.1310E-05   max: 0.8782E-05   D at   40  2
       a =  0.500      CL =  0.5292
      Cm = -0.0964     CD =  0.00854   =>   CDf =  0.00621    CDp =  0.00233
 plradd ia,ip,cpol           10           0  0.26981819    

 Point added to stored polar  1
 Point written to save file  goe478_Re600k.base.pol                          
 Dump file unspecified or not available
 Calculating wake trajectory ...
 Calculating source influence matrix ...

 Solving BL system ...

 Side 1  free  transition at x/c =  0.6531   63
 Side 2  free  transition at x/c =  0.2522   39

   1   rms: 0.1114E+00   max: -.1622E+01   C at   39  2   RLX: 0.308
       a =  1.000      CL =  0.5438
      Cm = -0.0957     CD =  0.00850   =>   CDf =  0.00615    CDp =  0.00235

 Side 1  free  transition at x/c =  0.6459   63
 Side 2  free  transition at x/c =  0.2642   39

   2   rms: 0.1041E+00   max: -.1658E+01   C at   39  2   RLX: 0.302
       a =  1.000      CL =  0.5542
      Cm = -0.0954     CD =  0.00841   =>   CDf =  0.00619    CDp =  0.00222

 Side 1  free  transition at x/c =  0.6370   63
 Side 2  free  transition at x/c =  0.2762   40

   3   rms: 0.8651E-01   max: -.1288E+01   C at   40  2   RLX: 0.388
       a =  1.000      CL =  0.5620
      Cm = -0.0947     CD =  0.00837   =>   CDf =  0.00617    CDp =  0.00220

 Side 1  free  transition at x/c =  0.6307   62
 Side 2  free  transition at x/c =  0.3045   41

   4   rms: 0.1531E+00   max: -.3456E+01   C at   41  2   RLX: 0.145
       a =  1.000      CL =  0.5639
      Cm = -0.0946     CD =  0.00832   =>   CDf =  0.00608    CDp =  0.00224

 Side 1  free  transition at x/c =  0.6287   62
 Side 2  free  transition at x/c =  0.3149   42

   5   rms: 0.1384E+00   max: -.2923E+01   C at   42  2   RLX: 0.171
       a =  1.000      CL =  0.5655
      Cm = -0.0945     CD =  0.00827   =>   CDf =  0.00605    CDp =  0.00222

 Side 1  free  transition at x/c =  0.6266   62
 Side 2  free  transition at x/c =  0.3316   42

   6   rms: 0.2391E+00   max: -.5237E+01   C at   42  2   RLX: 0.095
       a =  1.000      CL =  0.5662
      Cm = -0.0944     CD =  0.00824   =>   CDf =  0.00599    CDp =  0.00224

 Side 1  free  transition at x/c =  0.6257   62
 Side 2  free  transition at x/c =  0.3415   43

   7   rms: 0.1958E+00   max: -.4411E+01   C at   43  2   RLX: 0.113
       a =  1.000      CL =  0.5668
      Cm = -0.0943     CD =  0.00820   =>   CDf =  0.00596    CDp =  0.00224

 Side 1  free  transition at x/c =  0.6247   62
 Side 2  free  transition at x/c =  0.3567   44

   8   rms: 0.1838E+00   max: -.4121E+01   C at   44  2   RLX: 0.121
       a =  1.000      CL =  0.5672
      Cm = -0.0942     CD =  0.00815   =>   CDf =  0.00592    CDp =  0.00223

 Side 1  free  transition at x/c =  0.6237   62
 Side 2  free  transition at x/c =  0.3730   45

   9   rms: 0.1547E+00   max: -.3403E+01   C at   45  2   RLX: 0.147
       a =  1.000      CL =  0.5676
      Cm = -0.0941     CD =  0.00810   =>   CDf =  0.00588    CDp =  0.00223

 Side 1  free  transition at x/c =  0.6227   62
 Side 2  free  transition at x/c =  0.3918   45

  10   rms: 0.1801E+00   max: -.3838E+01   C at   45  2   RLX: 0.130
       a =  1.000      CL =  0.5679
      Cm = -0.0940     CD =  0.00807   =>   CDf =  0.00582    CDp =  0.00225

 Side 1  free  transition at x/c =  0.6219   62
 Side 2  free  transition at x/c =  0.4064   46

  11   rms: 0.1249E+00   max: -.2724E+01   C at   46  2   RLX: 0.184
       a =  1.000      CL =  0.5683
      Cm = -0.0938     CD =  0.00803   =>   CDf =  0.00579    CDp =  0.00224

 Side 1  free  transition at x/c =  0.6210   62
 Side 2  free  transition at x/c =  0.4266   47

  12   rms: 0.1100E+00   max: -.2387E+01   C at   47  2   RLX: 0.210
       a =  1.000      CL =  0.5684
      Cm = -0.0937     CD =  0.00798   =>   CDf =  0.00573    CDp =  0.00224

 Side 1  free  transition at x/c =  0.6201   62
 Side 2  free  transition at x/c =  0.4436   48

  13   rms: 0.8005E-01   max: -.1743E+01   C at   48  2   RLX: 0.287
       a =  1.000      CL =  0.5685
      Cm = -0.0935     CD =  0.00793   =>   CDf =  0.00569    CDp =  0.00224

 Side 1  free  transition at x/c =  0.6192   62
 Side 2  free  transition at x/c =  0.4606   49

  14   rms: 0.5134E-01   max: -.1120E+01   C at   49  2   RLX: 0.446
       a =  1.000      CL =  0.5687
      Cm = -0.0933     CD =  0.00788   =>   CDf =  0.00564    CDp =  0.00224

 Side 1  free  transition at x/c =  0.6182   62
 Side 2  free  transition at x/c =  0.4781   50

  15   rms: 0.2653E-01   max: -.5760E+00   C at   50  2   RLX: 0.868
       a =  1.000      CL =  0.5687
      Cm = -0.0931     CD =  0.00783   =>   CDf =  0.00559    CDp =  0.00224

 Side 1  free  transition at x/c =  0.6172   62
 Side 2  free  transition at x/c =  0.4939   51

  16   rms: 0.5234E-02   max: -.1140E+00   C at   51  2
       a =  1.000      CL =  0.5687
      Cm = -0.0930     CD =  0.00782   =>   CDf =  0.00555    CDp =  0.00227

 Side 1  free  transition at x/c =  0.6171   62
 Side 2  free  transition at x/c =  0.4977   51

  17   rms: 0.2048E-03   max: -.4439E-02   C at   51  2
       a =  1.000      CL =  0.5687
      Cm = -0.0930     CD =  0.00782   =>   CDf =  0.00554    CDp =  0.00228

 Side 1  free  transition at x/c =  0.6171   62
 Side 2  free  transition at x/c =  0.4979   51

  18   rms: 0.3031E-05   max: -.5755E-04   C at   51  2
       a =  1.000      CL =  0.5687
      Cm = -0.0930     CD =  0.00782   =>   CDf =  0.00554    CDp =  0.00228
 plradd ia,ip,cpol           11           0  0.26981819    

 Point added to stored polar  1
 Point written to save file  goe478_Re600k.base.pol                          
 Dump file unspecified or not available
 Calculating wake trajectory ...
 Calculating source influence matrix ...

 Solving BL system ...

 Side 1  free  transition at x/c =  0.6171   62
 Side 2  free  transition at x/c =  0.4979   51

   1   rms: 0.6524E+00   max: -.1405E+02   C at   51  2   RLX: 0.036
       a =  1.500      CL =  0.5695
      Cm = -0.0928     CD =  0.00778   =>   CDf =  0.00554    CDp =  0.00224

 Side 1  free  transition at x/c =  0.6157   61
 Side 2  free  transition at x/c =  0.5134   52

   2   rms: 0.6393E+00   max: -.1374E+02   C at   52  2   RLX: 0.036
       a =  1.500      CL =  0.5706
      Cm = -0.0927     CD =  0.00773   =>   CDf =  0.00550    CDp =  0.00223

 Side 1  free  transition at x/c =  0.6139   61
 Side 2  free  transition at x/c =  0.5290   52

   3   rms: 0.7284E+00   max: -.1513E+02   C at   52  2   RLX: 0.033
       a =  1.500      CL =  0.5716
      Cm = -0.0925     CD =  0.00770   =>   CDf =  0.00546    CDp =  0.00225

 Side 1  free  transition at x/c =  0.6121   61
 Side 2  free  transition at x/c =  0.5450   53

   4   rms: 0.6473E+00   max: -.1359E+02   C at   53  2   RLX: 0.037
       a =  1.500      CL =  0.5724
      Cm = -0.0923     CD =  0.00766   =>   CDf =  0.00541    CDp =  0.00225

 Side 1  free  transition at x/c =  0.6102   61
 Side 2  free  transition at x/c =  0.5627   54

   5   rms: 0.5783E+00   max: -.1215E+02   C at   54  2   RLX: 0.041
       a =  1.500      CL =  0.5733
      Cm = -0.0921     CD =  0.00761   =>   CDf =  0.00536    CDp =  0.00225

 Side 1  free  transition at x/c =  0.6080   61
 Side 2  free  transition at x/c =  0.5816   55

   6   rms: 0.5066E+00   max: -.1062E+02   C at   55  2   RLX: 0.047
       a =  1.500      CL =  0.5741
      Cm = -0.0918     CD =  0.00757   =>   CDf =  0.00531    CDp =  0.00225

 Side 1  free  transition at x/c =  0.6057   61
 Side 2  free  transition at x/c =  0.6015   56

   7   rms: 0.4386E+00   max: -.9144E+01   C at   56  2   RLX: 0.055
       a =  1.500      CL =  0.5750
      Cm = -0.0914     CD =  0.00752   =>   CDf =  0.00526    CDp =  0.00226

 Side 1  free  transition at x/c =  0.6032   61
 Side 2  free  transition at x/c =  0.6224   57

   8   rms: 0.3741E+00   max: -.7730E+01   C at   57  2   RLX: 0.065
       a =  1.500      CL =  0.5760
      Cm = -0.0911     CD =  0.00748   =>   CDf =  0.00521    CDp =  0.00226

 Side 1  free  transition at x/c =  0.6006   61
 Side 2  free  transition at x/c =  0.6445   58

   9   rms: 0.3075E+00   max: -.6266E+01   C at   58  2   RLX: 0.080
       a =  1.500      CL =  0.5770
      Cm = -0.0906     CD =  0.00743   =>   CDf =  0.00516    CDp =  0.00227

 Side 1  free  transition at x/c =  0.5980   60
 Side 2  free  transition at x/c =  0.6683   59

  10   rms: 0.2477E+00   max: -.4963E+01   C at   59  2   RLX: 0.101
       a =  1.500      CL =  0.5789
      Cm = -0.0902     CD =  0.00738   =>   CDf =  0.00510    CDp =  0.00228

 Side 1  free  transition at x/c =  0.5939   60
 Side 2  free  transition at x/c =  0.6998   61

  11   rms: 0.2323E+00   max: -.4722E+01   C at   61  2   RLX: 0.106
       a =  1.500      CL =  0.5797
      Cm = -0.0895     CD =  0.00729   =>   CDf =  0.00501    CDp =  0.00228

 Side 1  free  transition at x/c =  0.5902   60
 Side 2  free  transition at x/c =  0.7225   62

  12   rms: 0.1931E+00   max: -.3867E+01   C at   62  2   RLX: 0.129
       a =  1.500      CL =  0.5810
      Cm = -0.0889     CD =  0.00725   =>   CDf =  0.00496    CDp =  0.00229

 Side 1  free  transition at x/c =  0.5863   60
 Side 2  free  transition at x/c =  0.7474   64

  13   rms: 0.1721E+00   max: -.3519E+01   C at   64  2   RLX: 0.142
       a =  1.500      CL =  0.5815
      Cm = -0.0882     CD =  0.00718   =>   CDf =  0.00490    CDp =  0.00228

 Side 1  free  transition at x/c =  0.5832   60
 Side 2  free  transition at x/c =  0.7642   64

  14   rms: 0.1692E+00   max: -.3368E+01   C at   64  2   RLX: 0.148
       a =  1.500      CL =  0.5826
      Cm = -0.0878     CD =  0.00718   =>   CDf =  0.00487    CDp =  0.00231

 Side 1  free  transition at x/c =  0.5810   59
 Side 2  free  transition at x/c =  0.7838   65

  15   rms: 0.1610E+00   max: -.3197E+01   C at   65  2   RLX: 0.156
       a =  1.500      CL =  0.5838
      Cm = -0.0874     CD =  0.00712   =>   CDf =  0.00480    CDp =  0.00232

 Side 1  free  transition at x/c =  0.5782   59
 Side 2  free  transition at x/c =  0.8052   66

  16   rms: 0.1485E+00   max: -.2913E+01   C at   66  2   RLX: 0.172
       a =  1.500      CL =  0.5848
      Cm = -0.0870     CD =  0.00708   =>   CDf =  0.00474    CDp =  0.00234

 Side 1  free  transition at x/c =  0.5758   59
 Side 2  free  transition at x/c =  0.8274   68

  17   rms: 0.1285E+00   max: -.2632E+01   C at   68  2   RLX: 0.190
       a =  1.500      CL =  0.5859
      Cm = -0.0866     CD =  0.00703   =>   CDf =  0.00460    CDp =  0.00243

 Side 1  free  transition at x/c =  0.5736   60
 Side 2  free  transition at x/c =  0.8449   67

  18   rms: 0.1192E+00   max: -.2296E+01   C at   67  2   RLX: 0.218
       a =  1.500      CL =  0.5879
      Cm = -0.0866     CD =  0.00703   =>   CDf =  0.00464    CDp =  0.00239

 Side 1  free  transition at x/c =  0.5715   60
 Side 2  free  transition at x/c =  0.8668   69

  19   rms: 0.1214E+00   max: -.2373E+01   C at   69  2   RLX: 0.211
       a =  1.500      CL =  0.5915
      Cm = -0.0869     CD =  0.00701   =>   CDf =  0.00459    CDp =  0.00242

 Side 1  free  transition at x/c =  0.5698   60
 Side 2  free  transition at x/c =  0.8837   70

  20   rms: 0.1070E+00   max: -.1986E+01   C at   70  2   RLX: 0.252
       a =  1.500      CL =  0.5978
      Cm = -0.0879     CD =  0.00703   =>   CDf =  0.00457    CDp =  0.00246

 Side 1  free  transition at x/c =  0.5679   60
 Side 2  free  transition at x/c =  0.9001   70

  21   rms: 0.4532E-01   max: -.8037E+00   C at   70  2   RLX: 0.622
       a =  1.500      CL =  0.6051
      Cm = -0.0888     CD =  0.00708   =>   CDf =  0.00455    CDp =  0.00253

 Side 1  free  transition at x/c =  0.5654   59
 Side 2  free  transition at x/c =  0.9309   72

  22   rms: 0.1829E-01   max: 0.1051E+00   D at   71  2
       a =  1.500      CL =  0.6199
      Cm = -0.0915     CD =  0.00712   =>   CDf =  0.00453    CDp =  0.00260

 Side 1  free  transition at x/c =  0.5621   59
 Side 2  free  transition at x/c =  0.9414   73

  23   rms: 0.5209E-02   max: 0.8342E-01   C at   73  2
       a =  1.500      CL =  0.6202
      Cm = -0.0916     CD =  0.00713   =>   CDf =  0.00454    CDp =  0.00259

 Side 1  free  transition at x/c =  0.5622   59
 Side 2  free  transition at x/c =  0.9394   73

  24   rms: 0.1079E-02   max: -.8827E-02   D at   77  2
       a =  1.500      CL =  0.6193
      Cm = -0.0914     CD =  0.00713   =>   CDf =  0.00454    CDp =  0.00259

 Side 1  free  transition at x/c =  0.5623   59
 Side 2  free  transition at x/c =  0.9393   73

  25   rms: 0.5035E-05   max: -.4435E-04   D at   77  2
       a =  1.500      CL =  0.6193
      Cm = -0.0914     CD =  0.00713   =>   CDf =  0.00454    CDp =  0.00259
 plradd ia,ip,cpol           12           0  0.25362375    

 Point added to stored polar  1
 Point written to save file  goe478_Re600k.base.pol                          
 Dump file unspecified or not available
 Calculating wake trajectory ...
 Calculating source influence matrix ...

 Solving BL system ...

 Side 1  free  transition at x/c =  0.5623   59
 Side 2  free  transition at x/c =  0.9393   73

   1   rms: 0.3702E+00   max: 0.2959E+01   D at   76  2   RLX: 0.261
       a =  2.000      CL =  0.6928
      Cm = -0.1040     CD =  0.00739   =>   CDf =  0.00454    CDp =  0.00285

 Side 1  free  transition at x/c =  0.5451   58
 Side 2  free  transition at x/c =  0.9494   73

   2   rms: 0.1243E+00   max: -.1079E+01   D at   76  2   RLX: 0.464
       a =  2.000      CL =  0.6442
      Cm = -0.0898     CD =  0.00774   =>   CDf =  0.00470    CDp =  0.00304

 MRCHDU: Convergence failed at  75  side 2    Res =  0.1482E+01
 MRCHDU: Convergence failed at  76  side 2    Res =  0.7050E+01
 MRCHDU: Convergence failed at  77  side 2    Res =  0.2165E+01
 Side 1  free  transition at x/c =  0.5414   58
 Side 2 forced transition at x/c =  1.0000   77

   3   rms: 0.9761E-01   max: 0.1292E+01   C at   77  2
       a =  2.000      CL =  0.6985
      Cm = -0.0963     CD =  0.00749   =>   CDf =  0.00467    CDp =  0.00282

 Side 1  free  transition at x/c =  0.5274   58
 Side 2 forced transition at x/c =  1.0000   76

   4   rms: 0.9802E-01   max: 0.1331E+01   C at   76  2
       a =  2.000      CL =  0.7612
      Cm = -0.1099     CD =  0.00773   =>   CDf =  0.00485    CDp =  0.00288

 Side 1  free  transition at x/c =  0.5216   58
 Side 2  free  transition at x/c =  0.9846   75

   5   rms: 0.3970E-01   max: -.3464E+00   D at   76  2
       a =  2.000      CL =  0.7218
      Cm = -0.1012     CD =  0.00771   =>   CDf =  0.00491    CDp =  0.00280

 Side 1  free  transition at x/c =  0.5260   58
 Side 2  free  transition at x/c =  0.9866   75

   6   rms: 0.1831E-02   max: -.3177E-01   C at   58  1
       a =  2.000      CL =  0.7215
      Cm = -0.1011     CD =  0.00776   =>   CDf =  0.00484    CDp =  0.00292

 Side 1  free  transition at x/c =  0.5267   58
 Side 2  free  transition at x/c =  0.9862   75

   7   rms: 0.1603E-04   max: -.1857E-03   D at   59  1
       a =  2.000      CL =  0.7215
      Cm = -0.1011     CD =  0.00776   =>   CDf =  0.00483    CDp =  0.00293
 plradd ia,ip,cpol           13           0  0.13176268    

 Point added to stored polar  1
 Point written to save file  goe478_Re600k.base.pol                          
 Dump file unspecified or not available
 Calculating wake trajectory ...
 Calculating source influence matrix ...

 Solving BL system ...

 Side 1  free  transition at x/c =  0.5267   58
 Side 2  free  transition at x/c =  0.9862   75

   1   rms: 0.1284E+00   max: 0.6711E+00   C at   58  1
       a =  2.500      CL =  0.8240
      Cm = -0.1110     CD =  0.00827   =>   CDf =  0.00480    CDp =  0.00347

 Side 1  free  transition at x/c =  0.4948   57
 Side 2  free  transition at x/c =  0.9999   75

   2   rms: 0.1497E-01   max: 0.2579E+00   D at   58  1
       a =  2.500      CL =  0.8189
      Cm = -0.1101     CD =  0.00836   =>   CDf =  0.00517    CDp =  0.00319

 Side 1  free  transition at x/c =  0.4982   58
 Side 2 forced transition at x/c =  1.0000   75

   3   rms: 0.1350E-01   max: -.1026E+00   D at   75  2
       a =  2.500      CL =  0.8102
      Cm = -0.1082     CD =  0.00824   =>   CDf =  0.00512    CDp =  0.00311

 Side 1  free  transition at x/c =  0.5003   58
 Side 2 forced transition at x/c =  1.0000   75

   4   rms: 0.9141E-03   max: 0.1124E-01   C at   58  1
       a =  2.500      CL =  0.8103
      Cm = -0.1082     CD =  0.00824   =>   CDf =  0.00506    CDp =  0.00318

 Side 1  free  transition at x/c =  0.4999   58
 Side 2 forced transition at x/c =  1.0000   75

   5   rms: 0.7100E-05   max: -.9116E-04   D at   59  1
       a =  2.500      CL =  0.8103
      Cm = -0.1082     CD =  0.00824   =>   CDf =  0.00507    CDp =  0.00318
 plradd ia,ip,cpol           14           0  8.50544274E-02

 Point added to stored polar  1
 Point written to save file  goe478_Re600k.base.pol                          
 Dump file unspecified or not available
 Calculating wake trajectory ...
 Calculating source influence matrix ...

 Solving BL system ...

 Side 1  free  transition at x/c =  0.4999   58
 Side 2 forced transition at x/c =  1.0000   75

   1   rms: 0.8021E-01   max: -.3272E+00   D at   58  1
       a =  3.000      CL =  0.8472
      Cm = -0.1043     CD =  0.00864   =>   CDf =  0.00503    CDp =  0.00360

 Side 1  free  transition at x/c =  0.4860   58
 Side 2 forced transition at x/c =  1.0000   74

   2   rms: 0.1140E-01   max: -.1514E+00   D at   59  1
       a =  3.000      CL =  0.8504
      Cm = -0.1049     CD =  0.00848   =>   CDf =  0.00516    CDp =  0.00332

 Side 1  free  transition at x/c =  0.4852   58
 Side 2 forced transition at x/c =  1.0000   74

   3   rms: 0.6096E-03   max: -.9628E-02   D at   59  1
       a =  3.000      CL =  0.8505
      Cm = -0.1049     CD =  0.00850   =>   CDf =  0.00515    CDp =  0.00335

 Side 1  free  transition at x/c =  0.4850   58
 Side 2 forced transition at x/c =  1.0000   74

   4   rms: 0.4694E-05   max: -.6616E-04   D at   59  1
       a =  3.000      CL =  0.8505
      Cm = -0.1049     CD =  0.00850   =>   CDf =  0.00515    CDp =  0.00334
 plradd ia,ip,cpol           15           0  8.50544274E-02

 Point added to stored polar  1
 Point written to save file  goe478_Re600k.base.pol                          
 Dump file unspecified or not available
 Calculating wake trajectory ...
 Calculating source influence matrix ...

 Solving BL system ...

 Side 1  free  transition at x/c =  0.4850   58
 Side 2 forced transition at x/c =  1.0000   74

   1   rms: 0.7504E-01   max: -.1611E+00   n at   73  2
       a =  3.500      CL =  0.8902
      Cm = -0.1015     CD =  0.00880   =>   CDf =  0.00515    CDp =  0.00364

 Side 1  free  transition at x/c =  0.4699   57
 Side 2 forced transition at x/c =  1.0000   74

   2   rms: 0.1038E-01   max: -.1236E+00   D at   57  1
       a =  3.500      CL =  0.8901
      Cm = -0.1014     CD =  0.00877   =>   CDf =  0.00527    CDp =  0.00350

 Side 1  free  transition at x/c =  0.4710   57
 Side 2 forced transition at x/c =  1.0000   74

   3   rms: 0.7493E-03   max: 0.1083E-01   C at   57  1
       a =  3.500      CL =  0.8905
      Cm = -0.1015     CD =  0.00877   =>   CDf =  0.00523    CDp =  0.00354

 Side 1  free  transition at x/c =  0.4708   57
 Side 2 forced transition at x/c =  1.0000   74

   4   rms: 0.5033E-05   max: -.5237E-04   D at   58  1
       a =  3.500      CL =  0.8904
      Cm = -0.1015     CD =  0.00877   =>   CDf =  0.00524    CDp =  0.00354
 plradd ia,ip,cpol           16           0  7.57991597E-02

 Point added to stored polar  1
 Point written to save file  goe478_Re600k.base.pol                          
 Dump file unspecified or not available
 Calculating wake trajectory ...
 Calculating source influence matrix ...

 Solving BL system ...

 Side 1  free  transition at x/c =  0.4708   57
 Side 2 forced transition at x/c =  1.0000   74

   1   rms: 0.7142E-01   max: -.1432E+00   D at   72  2
       a =  4.000      CL =  0.9325
      Cm = -0.0985     CD =  0.00899   =>   CDf =  0.00520    CDp =  0.00379

 Side 1  free  transition at x/c =  0.4569   57
 Side 2 forced transition at x/c =  1.0000   73

   2   rms: 0.3250E-02   max: -.3113E-01   C at   57  1
       a =  4.000      CL =  0.9298
      Cm = -0.0980     CD =  0.00910   =>   CDf =  0.00535    CDp =  0.00376

 Side 1  free  transition at x/c =  0.4571   57
 Side 2 forced transition at x/c =  1.0000   73

   3   rms: 0.5263E-02   max: -.8969E-01   C at   57  1
       a =  4.000      CL =  0.9296
      Cm = -0.0980     CD =  0.00910   =>   CDf =  0.00536    CDp =  0.00374

 Side 1  free  transition at x/c =  0.4571   57
 Side 2 forced transition at x/c =  1.0000   73

   4   rms: 0.5205E-02   max: -.8893E-01   C at   57  1
       a =  4.000      CL =  0.9296
      Cm = -0.0980     CD =  0.00910   =>   CDf =  0.00536    CDp =  0.00374

 Side 1  free  transition at x/c =  0.4571   57
 Side 2 forced transition at x/c =  1.0000   73

   5   rms: 0.5208E-02   max: -.8898E-01   C at   57  1
       a =  4.000      CL =  0.9296
      Cm = -0.0980     CD =  0.00910   =>   CDf =  0.00536    CDp =  0.00374

 Side 1  free  transition at x/c =  0.4571   57
 Side 2 forced transition at x/c =  1.0000   73

   6   rms: 0.5208E-02   max: -.8897E-01   C at   57  1
       a =  4.000      CL =  0.9296
      Cm = -0.0980     CD =  0.00910   =>   CDf =  0.00536    CDp =  0.00374

 Side 1  free  transition at x/c =  0.4571   57
 Side 2 forced transition at x/c =  1.0000   73

   7   rms: 0.5208E-02   max: -.8898E-01   C at   57  1
       a =  4.000      CL =  0.9296
      Cm = -0.0980     CD =  0.00910   =>   CDf =  0.00536    CDp =  0.00374

 Side 1  free  transition at x/c =  0.4571   57
 Side 2 forced transition at x/c =  1.0000   73

   8   rms: 0.5208E-02   max: -.8898E-01   C at   57  1
       a =  4.000      CL =  0.9296
      Cm = -0.0980     CD =  0.00910   =>   CDf =  0.00536    CDp =  0.00374

 Side 1  free  transition at x/c =  0.4571   57
 Side 2 forced transition at x/c =  1.0000   73

   9   rms: 0.5208E-02   max: -.8898E-01   C at   57  1
       a =  4.000      CL =  0.9296
      Cm = -0.0980     CD =  0.00910   =>   CDf =  0.00536    CDp =  0.00374

 Side 1  free  transition at x/c =  0.4571   57
 Side 2 forced transition at x/c =  1.0000   73

  10   rms: 0.5208E-02   max: -.8898E-01   C at   57  1
       a =  4.000      CL =  0.9296
      Cm = -0.0980     CD =  0.00910   =>   CDf =  0.00536    CDp =  0.00374

 Side 1  free  transition at x/c =  0.4571   57
 Side 2 forced transition at x/c =  1.0000   73

  11   rms: 0.5208E-02   max: -.8898E-01   C at   57  1
       a =  4.000      CL =  0.9296
      Cm = -0.0980     CD =  0.00910   =>   CDf =  0.00536    CDp =  0.00374

 Side 1  free  transition at x/c =  0.4571   57
 Side 2 forced transition at x/c =  1.0000   73

  12   rms: 0.5208E-02   max: -.8898E-01   C at   57  1
       a =  4.000      CL =  0.9296
      Cm = -0.0980     CD =  0.00910   =>   CDf =  0.00536    CDp =  0.00374

 Side 1  free  transition at x/c =  0.4571   57
 Side 2 forced transition at x/c =  1.0000   73

  13   rms: 0.5208E-02   max: -.8898E-01   C at   57  1
       a =  4.000      CL =  0.9296
      Cm = -0.0980     CD =  0.00910   =>   CDf =  0.00536    CDp =  0.00374

 Side 1  free  transition at x/c =  0.4571   57
 Side 2 forced transition at x/c =  1.0000   73

  14   rms: 0.5208E-02   max: -.8898E-01   C at   57  1
       a =  4.000      CL =  0.9296
      Cm = -0.0980     CD =  0.00910   =>   CDf =  0.00536    CDp =  0.00374

 Side 1  free  transition at x/c =  0.4571   57
 Side 2 forced transition at x/c =  1.0000   73

  15   rms: 0.5208E-02   max: -.8898E-01   C at   57  1
       a =  4.000      CL =  0.9296
      Cm = -0.0980     CD =  0.00910   =>   CDf =  0.00536    CDp =  0.00374

 Side 1  free  transition at x/c =  0.4571   57
 Side 2 forced transition at x/c =  1.0000   73

  16   rms: 0.5208E-02   max: -.8898E-01   C at   57  1
       a =  4.000      CL =  0.9296
      Cm = -0.0980     CD =  0.00910   =>   CDf =  0.00536    CDp =  0.00374

 Side 1  free  transition at x/c =  0.4571   57
 Side 2 forced transition at x/c =  1.0000   73

  17   rms: 0.5209E-02   max: -.8898E-01   C at   57  1
       a =  4.000      CL =  0.9296
      Cm = -0.0980     CD =  0.00910   =>   CDf =  0.00536    CDp =  0.00374

 Side 1  free  transition at x/c =  0.4571   57
 Side 2 forced transition at x/c =  1.0000   73

  18   rms: 0.5208E-02   max: -.8898E-01   C at   57  1
       a =  4.000      CL =  0.9296
      Cm = -0.0980     CD =  0.00910   =>   CDf =  0.00536    CDp =  0.00374

 Side 1  free  transition at x/c =  0.4571   57
 Side 2 forced transition at x/c =  1.0000   73

  19   rms: 0.5208E-02   max: -.8898E-01   C at   57  1
       a =  4.000      CL =  0.9296
      Cm = -0.0980     CD =  0.00910   =>   CDf =  0.00536    CDp =  0.00374

 Side 1  free  transition at x/c =  0.4571   57
 Side 2 forced transition at x/c =  1.0000   73

  20   rms: 0.5208E-02   max: -.8898E-01   C at   57  1
       a =  4.000      CL =  0.9296
      Cm = -0.0980     CD =  0.00910   =>   CDf =  0.00536    CDp =  0.00374

 Side 1  free  transition at x/c =  0.4571   57
 Side 2 forced transition at x/c =  1.0000   73

  21   rms: 0.5208E-02   max: -.8897E-01   C at   57  1
       a =  4.000      CL =  0.9296
      Cm = -0.0980     CD =  0.00910   =>   CDf =  0.00536    CDp =  0.00374

 Side 1  free  transition at x/c =  0.4571   57
 Side 2 forced transition at x/c =  1.0000   73

  22   rms: 0.5208E-02   max: -.8898E-01   C at   57  1
       a =  4.000      CL =  0.9296
      Cm = -0.0980     CD =  0.00910   =>   CDf =  0.00536    CDp =  0.00374

 Side 1  free  transition at x/c =  0.4571   57
 Side 2 forced transition at x/c =  1.0000   73

  23   rms: 0.5208E-02   max: -.8897E-01   C at   57  1
       a =  4.000      CL =  0.9296
      Cm = -0.0980     CD =  0.00910   =>   CDf =  0.00536    CDp =  0.00374

 Side 1  free  transition at x/c =  0.4571   57
 Side 2 forced transition at x/c =  1.0000   73

  24   rms: 0.5208E-02   max: -.8898E-01   C at   57  1
       a =  4.000      CL =  0.9296
      Cm = -0.0980     CD =  0.00910   =>   CDf =  0.00536    CDp =  0.00374

 Side 1  free  transition at x/c =  0.4571   57
 Side 2 forced transition at x/c =  1.0000   73

  25   rms: 0.5208E-02   max: -.8898E-01   C at   57  1
       a =  4.000      CL =  0.9296
      Cm = -0.0980     CD =  0.00910   =>   CDf =  0.00536    CDp =  0.00374

 Side 1  free  transition at x/c =  0.4571   57
 Side 2 forced transition at x/c =  1.0000   73

  26   rms: 0.5208E-02   max: -.8898E-01   C at   57  1
       a =  4.000      CL =  0.9296
      Cm = -0.0980     CD =  0.00910   =>   CDf =  0.00536    CDp =  0.00374

 Side 1  free  transition at x/c =  0.4571   57
 Side 2 forced transition at x/c =  1.0000   73

  27   rms: 0.5208E-02   max: -.8898E-01   C at   57  1
       a =  4.000      CL =  0.9296
      Cm = -0.0980     CD =  0.00910   =>   CDf =  0.00536    CDp =  0.00374

 Side 1  free  transition at x/c =  0.4571   57
 Side 2 forced transition at x/c =  1.0000   73

  28   rms: 0.5208E-02   max: -.8898E-01   C at   57  1
       a =  4.000      CL =  0.9296
      Cm = -0.0980     CD =  0.00910   =>   CDf =  0.00536    CDp =  0.00374

 Side 1  free  transition at x/c =  0.4571   57
 Side 2 forced transition at x/c =  1.0000   73

  29   rms: 0.5208E-02   max: -.8898E-01   C at   57  1
       a =  4.000      CL =  0.9296
      Cm = -0.0980     CD =  0.00910   =>   CDf =  0.00536    CDp =  0.00374

 Side 1  free  transition at x/c =  0.4571   57
 Side 2 forced transition at x/c =  1.0000   73

  30   rms: 0.5208E-02   max: -.8897E-01   C at   57  1
       a =  4.000      CL =  0.9296
      Cm = -0.0980     CD =  0.00910   =>   CDf =  0.00536    CDp =  0.00374

 Side 1  free  transition at x/c =  0.4571   57
 Side 2 forced transition at x/c =  1.0000   73

  31   rms: 0.5208E-02   max: -.8898E-01   C at   57  1
       a =  4.000      CL =  0.9296
      Cm = -0.0980     CD =  0.00910   =>   CDf =  0.00536    CDp =  0.00374

 Side 1  free  transition at x/c =  0.4571   57
 Side 2 forced transition at x/c =  1.0000   73

  32   rms: 0.5208E-02   max: -.8898E-01   C at   57  1
       a =  4.000      CL =  0.9296
      Cm = -0.0980     CD =  0.00910   =>   CDf =  0.00536    CDp =  0.00374

 Side 1  free  transition at x/c =  0.4571   57
 Side 2 forced transition at x/c =  1.0000   73

  33   rms: 0.5208E-02   max: -.8898E-01   C at   57  1
       a =  4.000      CL =  0.9296
      Cm = -0.0980     CD =  0.00910   =>   CDf =  0.00536    CDp =  0.00374

 Side 1  free  transition at x/c =  0.4571   57
 Side 2 forced transition at x/c =  1.0000   73

  34   rms: 0.5208E-02   max: -.8898E-01   C at   57  1
       a =  4.000      CL =  0.9296
      Cm = -0.0980     CD =  0.00910   =>   CDf =  0.00536    CDp =  0.00374

 Side 1  free  transition at x/c =  0.4571   57
 Side 2 forced transition at x/c =  1.0000   73

  35   rms: 0.5208E-02   max: -.8898E-01   C at   57  1
       a =  4.000      CL =  0.9296
      Cm = -0.0980     CD =  0.00910   =>   CDf =  0.00536    CDp =  0.00374

 Side 1  free  transition at x/c =  0.4571   57
 Side 2 forced transition at x/c =  1.0000   73

  36   rms: 0.5208E-02   max: -.8898E-01   C at   57  1
       a =  4.000      CL =  0.9296
      Cm = -0.0980     CD =  0.00910   =>   CDf =  0.00536    CDp =  0.00374

 Side 1  free  transition at x/c =  0.4571   57
 Side 2 forced transition at x/c =  1.0000   73

  37   rms: 0.5208E-02   max: -.8897E-01   C at   57  1
       a =  4.000      CL =  0.9296
      Cm = -0.0980     CD =  0.00910   =>   CDf =  0.00536    CDp =  0.00374

 Side 1  free  transition at x/c =  0.4571   57
 Side 2 forced transition at x/c =  1.0000   73

  38   rms: 0.5208E-02   max: -.8898E-01   C at   57  1
       a =  4.000      CL =  0.9296
      Cm = -0.0980     CD =  0.00910   =>   CDf =  0.00536    CDp =  0.00374

 Side 1  free  transition at x/c =  0.4571   57
 Side 2 forced transition at x/c =  1.0000   73

  39   rms: 0.5208E-02   max: -.8897E-01   C at   57  1
       a =  4.000      CL =  0.9296
      Cm = -0.0980     CD =  0.00910   =>   CDf =  0.00536    CDp =  0.00374

 Side 1  free  transition at x/c =  0.4571   57
 Side 2 forced transition at x/c =  1.0000   73

  40   rms: 0.5208E-02   max: -.8898E-01   C at   57  1
       a =  4.000      CL =  0.9296
      Cm = -0.0980     CD =  0.00910   =>   CDf =  0.00536    CDp =  0.00374

 Side 1  free  transition at x/c =  0.4571   57
 Side 2 forced transition at x/c =  1.0000   73

  41   rms: 0.5208E-02   max: -.8898E-01   C at   57  1
       a =  4.000      CL =  0.9296
      Cm = -0.0980     CD =  0.00910   =>   CDf =  0.00536    CDp =  0.00374

 Side 1  free  transition at x/c =  0.4571   57
 Side 2 forced transition at x/c =  1.0000   73

  42   rms: 0.5208E-02   max: -.8898E-01   C at   57  1
       a =  4.000      CL =  0.9296
      Cm = -0.0980     CD =  0.00910   =>   CDf =  0.00536    CDp =  0.00374

 Side 1  free  transition at x/c =  0.4571   57
 Side 2 forced transition at x/c =  1.0000   73

  43   rms: 0.5208E-02   max: -.8898E-01   C at   57  1
       a =  4.000      CL =  0.9296
      Cm = -0.0980     CD =  0.00910   =>   CDf =  0.00536    CDp =  0.00374

 Side 1  free  transition at x/c =  0.4571   57
 Side 2 forced transition at x/c =  1.0000   73

  44   rms: 0.5208E-02   max: -.8898E-01   C at   57  1
       a =  4.000      CL =  0.9296
      Cm = -0.0980     CD =  0.00910   =>   CDf =  0.00536    CDp =  0.00374

 Side 1  free  transition at x/c =  0.4571   57
 Side 2 forced transition at x/c =  1.0000   73

  45   rms: 0.5209E-02   max: -.8898E-01   C at   57  1
       a =  4.000      CL =  0.9296
      Cm = -0.0980     CD =  0.00910   =>   CDf =  0.00536    CDp =  0.00374

 Side 1  free  transition at x/c =  0.4571   57
 Side 2 forced transition at x/c =  1.0000   73

  46   rms: 0.5208E-02   max: -.8898E-01   C at   57  1
       a =  4.000      CL =  0.9296
      Cm = -0.0980     CD =  0.00910   =>   CDf =  0.00536    CDp =  0.00374

 Side 1  free  transition at x/c =  0.4571   57
 Side 2 forced transition at x/c =  1.0000   73

  47   rms: 0.5208E-02   max: -.8898E-01   C at   57  1
       a =  4.000      CL =  0.9296
      Cm = -0.0980     CD =  0.00910   =>   CDf =  0.00536    CDp =  0.00374

 Side 1  free  transition at x/c =  0.4571   57
 Side 2 forced transition at x/c =  1.0000   73

  48   rms: 0.5208E-02   max: -.8898E-01   C at   57  1
       a =  4.000      CL =  0.9296
      Cm = -0.0980     CD =  0.00910   =>   CDf =  0.00536    CDp =  0.00374

 Side 1  free  transition at x/c =  0.4571   57
 Side 2 forced transition at x/c =  1.0000   73

  49   rms: 0.5208E-02   max: -.8898E-01   C at   57  1
       a =  4.000      CL =  0.9296
      Cm = -0.0980     CD =  0.00910   =>   CDf =  0.00536    CDp =  0.00374

 Side 1  free  transition at x/c =  0.4571   57
 Side 2 forced transition at x/c =  1.0000   73

  50   rms: 0.5208E-02   max: -.8898E-01   C at   57  1
       a =  4.000      CL =  0.9296
      Cm = -0.0980     CD =  0.00910   =>   CDf =  0.00536    CDp =  0.00374

 Side 1  free  transition at x/c =  0.4571   57
 Side 2 forced transition at x/c =  1.0000   73

  51   rms: 0.5208E-02   max: -.8898E-01   C at   57  1
       a =  4.000      CL =  0.9296
      Cm = -0.0980     CD =  0.00910   =>   CDf =  0.00536    CDp =  0.00374

 Side 1  free  transition at x/c =  0.4571   57
 Side 2 forced transition at x/c =  1.0000   73

  52   rms: 0.5208E-02   max: -.8898E-01   C at   57  1
       a =  4.000      CL =  0.9296
      Cm = -0.0980     CD =  0.00910   =>   CDf =  0.00536    CDp =  0.00374

 Side 1  free  transition at x/c =  0.4571   57
 Side 2 forced transition at x/c =  1.0000   73

  53   rms: 0.5208E-02   max: -.8898E-01   C at   57  1
       a =  4.000      CL =  0.9296
      Cm = -0.0980     CD =  0.00910   =>   CDf =  0.00536    CDp =  0.00374

 Side 1  free  transition at x/c =  0.4571   57
 Side 2 forced transition at x/c =  1.0000   73

  54   rms: 0.5208E-02   max: -.8897E-01   C at   57  1
       a =  4.000      CL =  0.9296
      Cm = -0.0980     CD =  0.00910   =>   CDf =  0.00536    CDp =  0.00374

 Side 1  free  transition at x/c =  0.4571   57
 Side 2 forced transition at x/c =  1.0000   73

  55   rms: 0.5208E-02   max: -.8898E-01   C at   57  1
       a =  4.000      CL =  0.9296
      Cm = -0.0980     CD =  0.00910   =>   CDf =  0.00536    CDp =  0.00374

 Side 1  free  transition at x/c =  0.4571   57
 Side 2 forced transition at x/c =  1.0000   73

  56   rms: 0.5208E-02   max: -.8897E-01   C at   57  1
       a =  4.000      CL =  0.9296
      Cm = -0.0980     CD =  0.00910   =>   CDf =  0.00536    CDp =  0.00374

 Side 1  free  transition at x/c =  0.4571   57
 Side 2 forced transition at x/c =  1.0000   73

  57   rms: 0.5208E-02   max: -.8898E-01   C at   57  1
       a =  4.000      CL =  0.9296
      Cm = -0.0980     CD =  0.00910   =>   CDf =  0.00536    CDp =  0.00374

 Side 1  free  transition at x/c =  0.4571   57
 Side 2 forced transition at x/c =  1.0000   73

  58   rms: 0.5208E-02   max: -.8898E-01   C at   57  1
       a =  4.000      CL =  0.9296
      Cm = -0.0980     CD =  0.00910   =>   CDf =  0.00536    CDp =  0.00374

 Side 1  free  transition at x/c =  0.4571   57
 Side 2 forced transition at x/c =  1.0000   73

  59   rms: 0.5208E-02   max: -.8898E-01   C at   57  1
       a =  4.000      CL =  0.9296
      Cm = -0.0980     CD =  0.00910   =>   CDf =  0.00536    CDp =  0.00374

 Side 1  free  transition at x/c =  0.4571   57
 Side 2 forced transition at x/c =  1.0000   73

  60   rms: 0.5208E-02   max: -.8898E-01   C at   57  1
       a =  4.000      CL =  0.9296
      Cm = -0.0980     CD =  0.00910   =>   CDf =  0.00536    CDp =  0.00374

 Side 1  free  transition at x/c =  0.4571   57
 Side 2 forced transition at x/c =  1.0000   73

  61   rms: 0.5208E-02   max: -.8898E-01   C at   57  1
       a =  4.000      CL =  0.9296
      Cm = -0.0980     CD =  0.00910   =>   CDf =  0.00536    CDp =  0.00374

 Side 1  free  transition at x/c =  0.4571   57
 Side 2 forced transition at x/c =  1.0000   73

  62   rms: 0.5208E-02   max: -.8898E-01   C at   57  1
       a =  4.000      CL =  0.9296
      Cm = -0.0980     CD =  0.00910   =>   CDf =  0.00536    CDp =  0.00374

 Side 1  free  transition at x/c =  0.4571   57
 Side 2 forced transition at x/c =  1.0000   73

  63   rms: 0.5208E-02   max: -.8897E-01   C at   57  1
       a =  4.000      CL =  0.9296
      Cm = -0.0980     CD =  0.00910   =>   CDf =  0.00536    CDp =  0.00374

 Side 1  free  transition at x/c =  0.4571   57
 Side 2 forced transition at x/c =  1.0000   73

  64   rms: 0.5208E-02   max: -.8898E-01   C at   57  1
       a =  4.000      CL =  0.9296
      Cm = -0.0980     CD =  0.00910   =>   CDf =  0.00536    CDp =  0.00374

 Side 1  free  transition at x/c =  0.4571   57
 Side 2 forced transition at x/c =  1.0000   73

  65   rms: 0.5208E-02   max: -.8897E-01   C at   57  1
       a =  4.000      CL =  0.9296
      Cm = -0.0980     CD =  0.00910   =>   CDf =  0.00536    CDp =  0.00374

 Side 1  free  transition at x/c =  0.4571   57
 Side 2 forced transition at x/c =  1.0000   73

  66   rms: 0.5208E-02   max: -.8898E-01   C at   57  1
       a =  4.000      CL =  0.9296
      Cm = -0.0980     CD =  0.00910   =>   CDf =  0.00536    CDp =  0.00374

 Side 1  free  transition at x/c =  0.4571   57
 Side 2 forced transition at x/c =  1.0000   73

  67   rms: 0.5208E-02   max: -.8898E-01   C at   57  1
       a =  4.000      CL =  0.9296
      Cm = -0.0980     CD =  0.00910   =>   CDf =  0.00536    CDp =  0.00374

 Side 1  free  transition at x/c =  0.4571   57
 Side 2 forced transition at x/c =  1.0000   73

  68   rms: 0.5208E-02   max: -.8898E-01   C at   57  1
       a =  4.000      CL =  0.9296
[...]

 Side 1  free  transition at x/c =  0.0851   43
 Side 2 forced transition at x/c =  1.0000   64

   2   rms: 0.1129E-01   max: 0.5443E-01   D at   83  1
       a = 12.750      CL =  1.4212
      Cm = -0.0273     CD =  0.02843   =>   CDf =  0.00664    CDp =  0.02179

 Side 1  free  transition at x/c =  0.0840   42
 Side 2 forced transition at x/c =  1.0000   64

   3   rms: 0.5026E-02   max: -.6699E-01   C at   42  1
       a = 12.750      CL =  1.4232
      Cm = -0.0274     CD =  0.02820   =>   CDf =  0.00662    CDp =  0.02158

 Side 1  free  transition at x/c =  0.0843   42
 Side 2 forced transition at x/c =  1.0000   64

   4   rms: 0.1743E-03   max: 0.1193E-02   C at   42  1
       a = 12.750      CL =  1.4233
      Cm = -0.0274     CD =  0.02821   =>   CDf =  0.00662    CDp =  0.02159

 Side 1  free  transition at x/c =  0.0842   42
 Side 2 forced transition at x/c =  1.0000   64

   5   rms: 0.3743E-05   max: 0.4413E-04   C at   64  2
       a = 12.750      CL =  1.4233
      Cm = -0.0274     CD =  0.02821   =>   CDf =  0.00662    CDp =  0.02159
 plradd ia,ip,cpol           40           0  1.75286923E-02

 Point added to stored polar  1
 Point written to save file  goe478_Re600k.base.pol                          
 Dump file unspecified or not available
 Calculating wake trajectory ...
 Calculating source influence matrix ...

 Solving BL system ...

 Side 1  free  transition at x/c =  0.0842   42
 Side 2 forced transition at x/c =  1.0000   64

   1   rms: 0.3289E-01   max: 0.9730E-01   T at   42  1   RLX: 0.751
       a = 13.000      CL =  1.4326
      Cm = -0.0266     CD =  0.02907   =>   CDf =  0.00639    CDp =  0.02267

 Side 1  free  transition at x/c =  0.0816   43
 Side 2 forced transition at x/c =  1.0000   63

   2   rms: 0.2080E-01   max: 0.3262E+00   T at    2  1
       a = 13.000      CL =  1.4331
      Cm = -0.0262     CD =  0.02949   =>   CDf =  0.00659    CDp =  0.02290

 Side 1  free  transition at x/c =  0.0810   43
 Side 2 forced transition at x/c =  1.0000   63

   3   rms: 0.1074E-02   max: 0.1178E-01   D at    4  1
       a = 13.000      CL =  1.4327
      Cm = -0.0262     CD =  0.02948   =>   CDf =  0.00658    CDp =  0.02290

 Side 1  free  transition at x/c =  0.0810   43
 Side 2 forced transition at x/c =  1.0000   63

   4   rms: 0.1132E-04   max: -.1490E-03   C at   63  2
       a = 13.000      CL =  1.4326
      Cm = -0.0262     CD =  0.02948   =>   CDf =  0.00658    CDp =  0.02290
 plradd ia,ip,cpol           41           0  1.75286923E-02

 Point added to stored polar  1
 Point written to save file  goe478_Re600k.base.pol                          
 Dump file unspecified or not available
 Calculating wake trajectory ...
 Calculating source influence matrix ...

 Solving BL system ...

 Side 1  free  transition at x/c =  0.0810   43
 Side 2 forced transition at x/c =  1.0000   63

   1   rms: 0.3430E-01   max: -.1060E+00   D at   43  1   RLX: 0.726
       a = 13.250      CL =  1.4394
      Cm = -0.0254     CD =  0.03052   =>   CDf =  0.00658    CDp =  0.02394

 Side 1  free  transition at x/c =  0.0788   43
 Side 2 forced transition at x/c =  1.0000   63

   2   rms: 0.9511E-02   max: -.3887E-01   D at   43  1
       a = 13.250      CL =  1.4400
      Cm = -0.0249     CD =  0.03097   =>   CDf =  0.00658    CDp =  0.02440

 Side 1  free  transition at x/c =  0.0781   43
 Side 2 forced transition at x/c =  1.0000   63

   3   rms: 0.7978E-03   max: 0.6789E-02   D at   82  1
       a = 13.250      CL =  1.4394
      Cm = -0.0249     CD =  0.03097   =>   CDf =  0.00657    CDp =  0.02440

 Side 1  free  transition at x/c =  0.0782   43
 Side 2 forced transition at x/c =  1.0000   63

   4   rms: 0.2767E-04   max: -.2747E-03   C at   63  2
       a = 13.250      CL =  1.4394
      Cm = -0.0248     CD =  0.03097   =>   CDf =  0.00657    CDp =  0.02440
 plradd ia,ip,cpol           42           0  5.02677867E-03

 Point added to stored polar  1
 Point written to save file  goe478_Re600k.base.pol                          
 Dump file unspecified or not available
 Calculating wake trajectory ...
 Calculating source influence matrix ...

 Solving BL system ...

 Side 1  free  transition at x/c =  0.0782   43
 Side 2 forced transition at x/c =  1.0000   63

   1   rms: 0.3623E-01   max: -.1503E+00   D at   43  1   RLX: 0.699
       a = 13.500      CL =  1.4433
      Cm = -0.0240     CD =  0.03224   =>   CDf =  0.00657    CDp =  0.02567

 Side 1  free  transition at x/c =  0.0761   43
 Side 2 forced transition at x/c =  1.0000   63

   2   rms: 0.1260E-01   max: 0.5305E-01   D at   81  1
       a = 13.500      CL =  1.4419
      Cm = -0.0234     CD =  0.03295   =>   CDf =  0.00657    CDp =  0.02638

 Side 1  free  transition at x/c =  0.0752   42
 Side 2 forced transition at x/c =  1.0000   63

   3   rms: 0.4126E-02   max: -.4873E-01   C at   42  1
       a = 13.500      CL =  1.4432
      Cm = -0.0234     CD =  0.03272   =>   CDf =  0.00655    CDp =  0.02617

 Side 1  free  transition at x/c =  0.0754   42
 Side 2 forced transition at x/c =  1.0000   63

   4   rms: 0.2101E-03   max: 0.8006E-03   C at   63  2
       a = 13.500      CL =  1.4434
      Cm = -0.0235     CD =  0.03273   =>   CDf =  0.00655    CDp =  0.02617

 Side 1  free  transition at x/c =  0.0754   42
 Side 2 forced transition at x/c =  1.0000   63

   5   rms: 0.6625E-05   max: 0.7403E-04   C at   63  2
       a = 13.500      CL =  1.4434
      Cm = -0.0235     CD =  0.03273   =>   CDf =  0.00655    CDp =  0.02617
 plradd ia,ip,cpol           43           0  6.53563347E-03

 Point added to stored polar  1
 Point written to save file  goe478_Re600k.base.pol                          
 Dump file unspecified or not available
 Calculating wake trajectory ...
 Calculating source influence matrix ...

 Solving BL system ...

 Side 1  free  transition at x/c =  0.0754   42
 Side 2 forced transition at x/c =  1.0000   63

   1   rms: 0.3218E-01   max: 0.6456E-01   D at   77  2   RLX: 0.681
       a = 13.750      CL =  1.4510
      Cm = -0.0229     CD =  0.03366   =>   CDf =  0.00655    CDp =  0.02710

 Side 1  free  transition at x/c =  0.0743   42
 Side 2 forced transition at x/c =  1.0000   63

   2   rms: 0.1040E-01   max: 0.3707E-01   D at   81  1
       a = 13.750      CL =  1.4528
      Cm = -0.0225     CD =  0.03416   =>   CDf =  0.00651    CDp =  0.02765

 Side 1  free  transition at x/c =  0.0739   42
 Side 2 forced transition at x/c =  1.0000   63

   3   rms: 0.5413E-03   max: -.3667E-02   C at   63  2
       a = 13.750      CL =  1.4523
      Cm = -0.0225     CD =  0.03414   =>   CDf =  0.00649    CDp =  0.02765

 Side 1  free  transition at x/c =  0.0739   42
 Side 2 forced transition at x/c =  1.0000   63

   4   rms: 0.1715E-04   max: -.1616E-03   C at   63  2
       a = 13.750      CL =  1.4523
      Cm = -0.0225     CD =  0.03413   =>   CDf =  0.00649    CDp =  0.02765
 plradd ia,ip,cpol           44           0  5.02677867E-03

 Point added to stored polar  1
 Point written to save file  goe478_Re600k.base.pol                          
 Dump file unspecified or not available
 Calculating wake trajectory ...
 Calculating source influence matrix ...

 Solving BL system ...

 Side 1  free  transition at x/c =  0.0739   42
 Side 2 forced transition at x/c =  1.0000   63

   1   rms: 0.3207E-01   max: 0.9093E-01   D at   79  1   RLX: 0.661
       a = 14.000      CL =  1.4584
      Cm = -0.0219     CD =  0.03517   =>   CDf =  0.00649    CDp =  0.02868

 Side 1  free  transition at x/c =  0.0727   42
 Side 2 forced transition at x/c =  1.0000   63

   2   rms: 0.1100E-01   max: 0.4021E-01   D at   80  1
       a = 14.000      CL =  1.4599
      Cm = -0.0215     CD =  0.03574   =>   CDf =  0.00645    CDp =  0.02928

 Side 1  free  transition at x/c =  0.0722   42
 Side 2 forced transition at x/c =  1.0000   63

   3   rms: 0.1003E-02   max: 0.7104E-02   D at   80  1
       a = 14.000      CL =  1.4592
      Cm = -0.0214     CD =  0.03573   =>   CDf =  0.00644    CDp =  0.02929

 Side 1  free  transition at x/c =  0.0723   42
 Side 2 forced transition at x/c =  1.0000   63

   4   rms: 0.3793E-04   max: -.3778E-03   C at   63  2
       a = 14.000      CL =  1.4591
      Cm = -0.0214     CD =  0.03572   =>   CDf =  0.00643    CDp =  0.02929
 plradd ia,ip,cpol           45           0  5.02677867E-03

 Point added to stored polar  1
 Point written to save file  goe478_Re600k.base.pol                          
 Dump file unspecified or not available
 Calculating wake trajectory ...
 Calculating source influence matrix ...

 Solving BL system ...

 Side 1  free  transition at x/c =  0.0723   42
 Side 2 forced transition at x/c =  1.0000   63

   1   rms: 0.3230E-01   max: 0.1014E+00   D at   78  1   RLX: 0.640
       a = 14.250      CL =  1.4639
      Cm = -0.0209     CD =  0.03687   =>   CDf =  0.00617    CDp =  0.03069

 Side 1  free  transition at x/c =  0.0712   43
 Side 2 forced transition at x/c =  1.0000   62

   2   rms: 0.1301E-01   max: 0.9638E-01   D at    2  1
       a = 14.250      CL =  1.4653
      Cm = -0.0205     CD =  0.03750   =>   CDf =  0.00641    CDp =  0.03110

 Side 1  free  transition at x/c =  0.0707   43
 Side 2 forced transition at x/c =  1.0000   62

   3   rms: 0.7100E-03   max: -.4385E-02   C at   62  2
       a = 14.250      CL =  1.4646
      Cm = -0.0204     CD =  0.03747   =>   CDf =  0.00639    CDp =  0.03108

 Side 1  free  transition at x/c =  0.0707   43
 Side 2 forced transition at x/c =  1.0000   62

   4   rms: 0.1968E-04   max: -.2134E-03   C at   62  2
       a = 14.250      CL =  1.4646
      Cm = -0.0204     CD =  0.03746   =>   CDf =  0.00639    CDp =  0.03108
 plradd ia,ip,cpol           46           0  3.73352924E-03

 Point added to stored polar  1
 Point written to save file  goe478_Re600k.base.pol                          
 Dump file unspecified or not available
 Calculating wake trajectory ...
 Calculating source influence matrix ...

 Solving BL system ...

 Side 1  free  transition at x/c =  0.0708   43
 Side 2 forced transition at x/c =  1.0000   62

   1   rms: 0.3299E-01   max: 0.1059E+00   D at   78  1   RLX: 0.621
       a = 14.500      CL =  1.4687
      Cm = -0.0199     CD =  0.03867   =>   CDf =  0.00639    CDp =  0.03227

 Side 1  free  transition at x/c =  0.0699   43
 Side 2 forced transition at x/c =  1.0000   62

   2   rms: 0.1336E-01   max: 0.5943E-01   D at   80  1
       a = 14.500      CL =  1.4687
      Cm = -0.0195     CD =  0.03953   =>   CDf =  0.00637    CDp =  0.03316

 Side 1  free  transition at x/c =  0.0694   43
 Side 2 forced transition at x/c =  1.0000   62

   3   rms: 0.9176E-03   max: -.5828E-02   C at   62  2
       a = 14.500      CL =  1.4679
      Cm = -0.0194     CD =  0.03947   =>   CDf =  0.00635    CDp =  0.03312

 Side 1  free  transition at x/c =  0.0694   43
 Side 2 forced transition at x/c =  1.0000   62

   4   rms: 0.2690E-04   max: -.2965E-03   C at   62  2
       a = 14.500      CL =  1.4679
      Cm = -0.0194     CD =  0.03947   =>   CDf =  0.00635    CDp =  0.03312
 plradd ia,ip,cpol           47           0  3.73352924E-03

 Point added to stored polar  1
 Point written to save file  goe478_Re600k.base.pol                          
 Dump file unspecified or not available
 Calculating wake trajectory ...
 Calculating source influence matrix ...

 Solving BL system ...

 Side 1  free  transition at x/c =  0.0694   43
 Side 2 forced transition at x/c =  1.0000   62

   1   rms: 0.3547E-01   max: 0.1444E+00   T at    3  1   RLX: 0.600
       a = 14.750      CL =  1.4703
      Cm = -0.0189     CD =  0.04082   =>   CDf =  0.00635    CDp =  0.03447

 Side 1  free  transition at x/c =  0.0685   43
 Side 2 forced transition at x/c =  1.0000   62

   2   rms: 0.1511E-01   max: 0.6311E-01   D at   79  1
       a = 14.750      CL =  1.4693
      Cm = -0.0185     CD =  0.04185   =>   CDf =  0.00633    CDp =  0.03551

 Side 1  free  transition at x/c =  0.0679   43
 Side 2 forced transition at x/c =  1.0000   62

   3   rms: 0.1839E-02   max: 0.1194E-01   D at   79  1
       a = 14.750      CL =  1.4678
      Cm = -0.0184     CD =  0.04184   =>   CDf =  0.00632    CDp =  0.03552

 Side 1  free  transition at x/c =  0.0679   43
 Side 2 forced transition at x/c =  1.0000   62

   4   rms: 0.7394E-04   max: 0.7784E-03   D at   74  2
       a = 14.750      CL =  1.4678
      Cm = -0.0183     CD =  0.04182   =>   CDf =  0.00632    CDp =  0.03551
 plradd ia,ip,cpol           48           0  3.73352924E-03

 Point added to stored polar  1
 Point written to save file  goe478_Re600k.base.pol                          
 Dump file unspecified or not available
 Calculating wake trajectory ...
 Calculating source influence matrix ...

 Solving BL system ...

 Side 1  free  transition at x/c =  0.0679   43
 Side 2 forced transition at x/c =  1.0000   62

   1   rms: 0.3610E-01   max: 0.1489E+00   D at   77  1   RLX: 0.576
       a = 15.000      CL =  1.4672
      Cm = -0.0179     CD =  0.04349   =>   CDf =  0.00632    CDp =  0.03717

 Side 1  free  transition at x/c =  0.0671   42
 Side 2 forced transition at x/c =  1.0000   62

   2   rms: 0.1334E-01   max: -.8259E-01   C at   42  1
       a = 15.000      CL =  1.4727
      Cm = -0.0176     CD =  0.04384   =>   CDf =  0.00628    CDp =  0.03756

 Side 1  free  transition at x/c =  0.0667   42
 Side 2 forced transition at x/c =  1.0000   62

   3   rms: 0.1033E-02   max: 0.6703E-02   D at   78  1
       a = 15.000      CL =  1.4718
      Cm = -0.0176     CD =  0.04385   =>   CDf =  0.00625    CDp =  0.03760

 Side 1  free  transition at x/c =  0.0667   42
 Side 2 forced transition at x/c =  1.0000   62

   4   rms: 0.7383E-04   max: -.4426E-03   C at   62  2
       a = 15.000      CL =  1.4718
      Cm = -0.0176     CD =  0.04384   =>   CDf =  0.00624    CDp =  0.03760
 plradd ia,ip,cpol           49           0  3.73352924E-03

 Point added to stored polar  1
 Point written to save file  goe478_Re600k.base.pol                          
 Dump file unspecified or not available
 Calculating wake trajectory ...
 Calculating source influence matrix ...

 Solving BL system ...

 Side 1  free  transition at x/c =  0.0667   42
 Side 2 forced transition at x/c =  1.0000   62

   1   rms: 0.3117E-01   max: 0.1028E+00   D at    4  2   RLX: 0.566
       a = 15.250      CL =  1.4764
      Cm = -0.0173     CD =  0.04495   =>   CDf =  0.00625    CDp =  0.03870

 Side 1  free  transition at x/c =  0.0661   42
 Side 2 forced transition at x/c =  1.0000   62

   2   rms: 0.1359E-01   max: 0.4934E-01   D at    4  2
       a = 15.250      CL =  1.4785
      Cm = -0.0170     CD =  0.04581   =>   CDf =  0.00620    CDp =  0.03961

 Side 1  free  transition at x/c =  0.0656   42
 Side 2 forced transition at x/c =  1.0000   62

   3   rms: 0.9560E-03   max: -.6211E-02   C at   62  2
       a = 15.250      CL =  1.4777
      Cm = -0.0169     CD =  0.04575   =>   CDf =  0.00617    CDp =  0.03958

 Side 1  free  transition at x/c =  0.0657   42
 Side 2 forced transition at x/c =  1.0000   62

   4   rms: 0.2742E-04   max: -.3135E-03   C at   62  2
       a = 15.250      CL =  1.4776
      Cm = -0.0169     CD =  0.04574   =>   CDf =  0.00617    CDp =  0.03958
 plradd ia,ip,cpol           50           0  3.73352924E-03

 Point added to stored polar  1
 Point written to save file  goe478_Re600k.base.pol                          
 Dump file unspecified or not available
 Calculating wake trajectory ...
 Calculating source influence matrix ...

 Solving BL system ...

 Side 1  free  transition at x/c =  0.0657   42
 Side 2 forced transition at x/c =  1.0000   62

   1   rms: 0.3019E-01   max: 0.9727E-01   D at   76  1   RLX: 0.551
       a = 15.500      CL =  1.4817
      Cm = -0.0167     CD =  0.04690   =>   CDf =  0.00588    CDp =  0.04101

 Side 1  free  transition at x/c =  0.0650   43
 Side 2 forced transition at x/c =  1.0000   61

   2   rms: 0.1018E+00   max: 0.1763E+01   T at    2  1   RLX: 0.627
       a = 15.500      CL =  1.4829
      Cm = -0.0167     CD =  0.04744   =>   CDf =  0.00613    CDp =  0.04131

 Side 1  free  transition at x/c =  0.0647   43
 Side 2 forced transition at x/c =  1.0000   61

   3   rms: 0.6268E-02   max: 0.4351E-01   D at    4  1
       a = 15.500      CL =  1.4827
      Cm = -0.0164     CD =  0.04785   =>   CDf =  0.00611    CDp =  0.04174

 Side 1  free  transition at x/c =  0.0645   43
 Side 2 forced transition at x/c =  1.0000   61

   4   rms: 0.4384E-03   max: -.2879E-02   C at   61  2
       a = 15.500      CL =  1.4823
      Cm = -0.0164     CD =  0.04781   =>   CDf =  0.00610    CDp =  0.04171

 Side 1  free  transition at x/c =  0.0645   43
 Side 2 forced transition at x/c =  1.0000   61

   5   rms: 0.1707E-04   max: -.1619E-03   C at   61  2
       a = 15.500      CL =  1.4823
      Cm = -0.0164     CD =  0.04781   =>   CDf =  0.00609    CDp =  0.04171
 plradd ia,ip,cpol           51           0  2.64406158E-03

 Point added to stored polar  1
 Point written to save file  goe478_Re600k.base.pol                          
 Dump file unspecified or not available
 Calculating wake trajectory ...
 Calculating source influence matrix ...

 Solving BL system ...

 Side 1  free  transition at x/c =  0.0645   43
 Side 2 forced transition at x/c =  1.0000   61

   1   rms: 0.3049E-01   max: 0.1051E+00   D at   76  1   RLX: 0.536
       a = 15.750      CL =  1.4855
      Cm = -0.0162     CD =  0.04905   =>   CDf =  0.00610    CDp =  0.04296

 Side 1  free  transition at x/c =  0.0639   43
 Side 2 forced transition at x/c =  1.0000   61

   2   rms: 0.1403E-01   max: 0.5208E-01   D at   77  1
       a = 15.750      CL =  1.4873
      Cm = -0.0160     CD =  0.05007   =>   CDf =  0.00606    CDp =  0.04401

 Side 1  free  transition at x/c =  0.0633   43
 Side 2 forced transition at x/c =  1.0000   61

   3   rms: 0.1855E-02   max: 0.1156E-01   D at   77  1
       a = 15.750      CL =  1.4859
      Cm = -0.0159     CD =  0.05004   =>   CDf =  0.00604    CDp =  0.04401

 Side 1  free  transition at x/c =  0.0634   43
 Side 2 forced transition at x/c =  1.0000   61

   4   rms: 0.7367E-04   max: -.6888E-03   C at   61  2
       a = 15.750      CL =  1.4859
      Cm = -0.0159     CD =  0.05003   =>   CDf =  0.00603    CDp =  0.04400
 plradd ia,ip,cpol           52           0  2.64406158E-03

 Point added to stored polar  1
 Point written to save file  goe478_Re600k.base.pol                          
 Dump file unspecified or not available
 Calculating wake trajectory ...
 Calculating source influence matrix ...

 Solving BL system ...

 Side 1  free  transition at x/c =  0.0634   43
 Side 2 forced transition at x/c =  1.0000   61

   1   rms: 0.3093E-01   max: 0.1156E+00   D at   76  1   RLX: 0.521
       a = 16.000      CL =  1.4881
      Cm = -0.0158     CD =  0.05140   =>   CDf =  0.00604    CDp =  0.04536

 Side 1  free  transition at x/c =  0.0628   43
 Side 2 forced transition at x/c =  1.0000   61

   2   rms: 0.1499E-01   max: 0.6144E-01   D at   76  1
       a = 16.000      CL =  1.4888
      Cm = -0.0157     CD =  0.05262   =>   CDf =  0.00601    CDp =  0.04661

 Side 1  free  transition at x/c =  0.0622   43
 Side 2 forced transition at x/c =  1.0000   61

   3   rms: 0.1688E-02   max: 0.1000E-01   D at   74  2
       a = 16.000      CL =  1.4874
      Cm = -0.0155     CD =  0.05253   =>   CDf =  0.00599    CDp =  0.04654

 Side 1  free  transition at x/c =  0.0623   43
 Side 2 forced transition at x/c =  1.0000   61

   4   rms: 0.8627E-04   max: -.6489E-03   C at   61  2
       a = 16.000      CL =  1.4873
      Cm = -0.0155     CD =  0.05252   =>   CDf =  0.00598    CDp =  0.04654
 plradd ia,ip,cpol           53           0  2.64406158E-03

 Point added to stored polar  1
 Point written to save file  goe478_Re600k.base.pol                          
 Dump file unspecified or not available

.OPERva   c>  
 Polar accumulation disabled

.OPERv   c>  
 XFOIL   c>  
 XFOIL   c>  