
 ===================================================
  XFOIL Version 6.99
  Copyright (C) 2000   Mark Drela, Harold Youngren

  This software comes with ABSOLUTELY NO WARRANTY,
    subject to the GNU General Public License.

  Caveat computor
 ===================================================

 File  xfoil.def  not found

   QUIT    Exit program

  .OPER    Direct operating point(s)
  .MDES    Complex mapping design routine
  .QDES    Surface speed design routine
  .GDES    Geometry design routine

   SAVE f  Write airfoil to labeled coordinate file
   PSAV f  Write airfoil to plain coordinate file
   ISAV f  Write airfoil to ISES coordinate file
   MSAV f  Write airfoil to MSES coordinate file
   REVE    Reverse written-airfoil node ordering

   LOAD f  Read buffer airfoil from coordinate file
   NACA i  Set NACA 4,5-digit airfoil and buffer airfoil
   INTE    Set buffer airfoil by interpolating two airfoils
   NORM    Buffer airfoil normalization toggle
   XYCM rr Change CM reference location, currently  0.25000 0.00000

   BEND    Display structural properties of current airfoil

   PCOP    Set current-airfoil panel nodes directly from buffer airfoil points
   PANE    Set current-airfoil panel nodes ( 160 ) based on curvature
  .PPAR    Show/change paneling

  .PLOP    Plotting options

   WDEF f  Write  current-settings file
   RDEF f  Reread current-settings file
   NAME s  Specify new airfoil name
   NINC    Increment name version number

   Z       Zoom    | (available in all menus)
   U       Unzoom  | 

 XFOIL   c>  
 Labeled airfoil file.  Name:  GOE 462 AIRFOIL                                 

 Number of input coordinate points:  33
 Counterclockwise ordering
 Max thickness =     0.110207  at x =   0.100
 Max camber    =     0.131113  at x =   0.299

  LE  x,y  =  -0.00108   0.00374  |   Chord =   1.00109
  TE  x,y  =   1.00000   0.00000  |

 Current airfoil nodes set from buffer airfoil nodes (  33 )

 WARNING: Poor input coordinate distribution
          Excessive panel angle   87.8  at i =  17
          Repaneling with PANE and/or PPAR suggested
           (doing GDES,CADD before repaneling _may_
            improve excessively coarse LE spacing

 XFOIL   c>  
 XFOIL   c>  
 Sharp trailing edge

 Paneling parameters used...
   Number of panel nodes       160
   Panel bunching parameter    1.000
   TE/LE panel density ratio   0.150
   Refined-area/LE panel density ratio    0.200
   Top    side refined area x/c limits  1.000 1.000
   Bottom side refined area x/c limits  1.000 1.000

 XFOIL   c>  
.OPERi   c>  
 Xtr/c     =  1.0000    top    side
 Xtr/c     =  1.0000    bottom side
 Ncrit     =    9.00   ( 0.070 % turb. level )
 Vacc      =  0.0100

 Klag  =  5.6000     Uxwt  =    1.00
 A     =  6.7000     B     =  0.7500       KCt = 0.01485
 CtiniK=  1.8000     CtiniX=  3.3000

..VPAR   c>  
..VPAR   c>  
.OPERi   c>  
 M  =    0.0000
 Re =    150000

.OPERv   c>  
.OPERv   c>  
.OPERv   c>  
 Polar  1 newly created for accumulation
 Airfoil archived with polar: GOE 462 AIRFOIL                                 

Enter  polar save filename  OR  <return> for no file   s>  
 New polar save file available

Enter  polar dump filename  OR  <return> for no file   s>  
 Polar dump file will NOT be written

 Polar accumulation enabled

.OPERva   c>   Calculating unit vorticity distributions ...
 Calculating wake trajectory ...
 Calculating source influence matrix ...

 Solving BL system ...

 Initializing BL ...
    side            1  ...
 MRCHUE: Inverse mode at  34     Hk =   4.162
 MRCHUE: Inverse mode at  35     Hk =   4.665
 MRCHUE: Inverse mode at  36     Hk =   5.153
 MRCHUE: Inverse mode at  37     Hk =   5.632
 MRCHUE: Inverse mode at  38     Hk =   6.103
 MRCHUE: Inverse mode at  39     Hk =   6.568
 MRCHUE: Inverse mode at  40     Hk =   7.028
 MRCHUE: Inverse mode at  41     Hk =   7.482
 MRCHUE: Inverse mode at  42     Hk =   7.931
 MRCHUE: Inverse mode at  43     Hk =   8.374
 MRCHUE: Inverse mode at  44     Hk =   7.995
 MRCHUE: Inverse mode at  45     Hk =   6.102
 MRCHUE: Inverse mode at  46     Hk =   4.833
 MRCHUE: Inverse mode at  47     Hk =   3.876
 MRCHUE: Inverse mode at  48     Hk =   3.113
    side            2  ...
 MRCHUE: Inverse mode at  20     Hk =   4.058
 MRCHUE: Convergence failed at  21  side 2    Res =  0.1804E+01
 MRCHUE: Inverse mode at  22     Hk =   5.144
 MRCHUE: Inverse mode at  23     Hk =   6.179
 MRCHUE: Inverse mode at  24     Hk =   7.112
 MRCHUE: Inverse mode at  25     Hk =   8.008
 MRCHUE: Inverse mode at  26     Hk =   8.880
 MRCHUE: Inverse mode at  27     Hk =   9.697
 MRCHUE: Inverse mode at  28     Hk =   6.494
 MRCHUE: Inverse mode at  29     Hk =   4.452
 MRCHUE: Inverse mode at  30     Hk =   3.074
 MRCHUE: Inverse mode at  31     Hk =   2.500
 MRCHUE: Convergence failed at  32  side 2    Res =  0.7627E+01
 MRCHUE: Inverse mode at  33     Hk =   2.500
 MRCHUE: Convergence failed at  34  side 2    Res =  0.9495E+02
 MRCHUE: Inverse mode at  35     Hk =   2.500
 MRCHUE: Inverse mode at  36     Hk =   2.500
 MRCHUE: Convergence failed at  37  side 2    Res =  0.7362E+01
 MRCHUE: Inverse mode at  38     Hk =   2.500
 MRCHUE: Inverse mode at  39     Hk =   2.500
 MRCHUE: Inverse mode at  40     Hk =   2.500
 MRCHUE: Inverse mode at  41     Hk =   2.500
 MRCHUE: Inverse mode at  42     Hk =   2.500
 MRCHUE: Inverse mode at  43     Hk =   2.500
 MRCHUE: Inverse mode at  44     Hk =   2.500
 MRCHUE: Inverse mode at  45     Hk =   2.500
 MRCHUE: Inverse mode at  46     Hk =   2.500
 MRCHUE: Inverse mode at  47     Hk =   2.500
 MRCHUE: Inverse mode at  48     Hk =   2.500
 MRCHUE: Inverse mode at  49     Hk =   2.500

 MRCHDU: Convergence failed at  29  side 2    Res =  0.2805E+01
 MRCHDU: Convergence failed at  30  side 2    Res =  0.7782E+01
 MRCHDU: Convergence failed at  31  side 2    Res =  0.3835E+01
 MRCHDU: Convergence failed at  32  side 2    Res =  0.3531E+02
 MRCHDU: Convergence failed at  33  side 2    Res =  0.4559E+02
 MRCHDU: Convergence failed at  34  side 2    Res =  0.1647E+02
 MRCHDU: Convergence failed at  35  side 2    Res =  0.2102E+02
 MRCHDU: Convergence failed at  36  side 2    Res =  0.2749E+02
 MRCHDU: Convergence failed at  37  side 2    Res =  0.8114E+03
 MRCHDU: Convergence failed at  38  side 2    Res =  0.1888E+05
 MRCHDU: Convergence failed at  39  side 2    Res =  0.1946E+04
 MRCHDU: Convergence failed at  40  side 2    Res =  0.2978E+02
 MRCHDU: Convergence failed at  41  side 2    Res =  0.2926E+02
 MRCHDU: Convergence failed at  42  side 2    Res =  0.3732E+02
 MRCHDU: Convergence failed at  43  side 2    Res =  0.3179E+02
 MRCHDU: Convergence failed at  44  side 2    Res =  0.2907E+02
 MRCHDU: Convergence failed at  45  side 2    Res =  0.2660E+02
 MRCHDU: Convergence failed at  46  side 2    Res =  0.2479E+02
 MRCHDU: Convergence failed at  47  side 2    Res =  0.2380E+02
 MRCHDU: Convergence failed at  48  side 2    Res =  0.2263E+02
 MRCHDU: Convergence failed at  49  side 2    Res =  0.2193E+02
 MRCHDU: Convergence failed at  50  side 2    Res =  0.2083E+02
 MRCHDU: Convergence failed at  51  side 2    Res =  0.2382E+02
 MRCHDU: Convergence failed at  52  side 2    Res =  0.2900E+02
 MRCHDU: Convergence failed at  53  side 2    Res =  0.2972E+02
 MRCHDU: Convergence failed at  54  side 2    Res =  0.3489E+02
 MRCHDU: Convergence failed at  55  side 2    Res =  0.4151E+02
 MRCHDU: Convergence failed at  56  side 2    Res =  0.5296E+02
 MRCHDU: Convergence failed at  57  side 2    Res =  0.6938E+02
 MRCHDU: Convergence failed at  58  side 2    Res =  0.1128E+03
 MRCHDU: Convergence failed at  59  side 2    Res =  0.3623E+03
 MRCHDU: Convergence failed at  60  side 2    Res =  0.2603E+03
 MRCHDU: Convergence failed at  61  side 2    Res =  0.2801E+02
 MRCHDU: Convergence failed at  62  side 2    Res =  0.5475E+03
 MRCHDU: Convergence failed at  63  side 2    Res =  0.4215E+02
 MRCHDU: Convergence failed at  64  side 2    Res =  0.4622E+02
 MRCHDU: Convergence failed at  65  side 2    Res =  0.5053E+02
 MRCHDU: Convergence failed at  66  side 2    Res =  0.5584E+02
 MRCHDU: Convergence failed at  67  side 2    Res =  0.6162E+02
 MRCHDU: Convergence failed at  68  side 2    Res =  0.6839E+02
 MRCHDU: Convergence failed at  69  side 2    Res =  0.7521E+02
 MRCHDU: Convergence failed at  70  side 2    Res =  0.7412E+02
 MRCHDU: Convergence failed at  71  side 2    Res =  0.7271E+02
 MRCHDU: Convergence failed at  72  side 2    Res =  0.7140E+02
 MRCHDU: Convergence failed at  73  side 2    Res =  0.7130E+02
 MRCHDU: Convergence failed at  74  side 2    Res =  0.7116E+02
 MRCHDU: Convergence failed at  75  side 2    Res =  0.6909E+02
 MRCHDU: Convergence failed at  76  side 2    Res =  0.6316E+02
 MRCHDU: Convergence failed at  77  side 2    Res =  0.6989E+02
 MRCHDU: Convergence failed at  78  side 2    Res =  0.8158E+02
 MRCHDU: Convergence failed at  79  side 2    Res =  0.9896E+02
 MRCHDU: Convergence failed at  80  side 2    Res =  0.1253E+03
 MRCHDU: Convergence failed at  81  side 2    Res =  0.1603E+03
 MRCHDU: Convergence failed at  82  side 2    Res =  0.1820E+03
 MRCHDU: Convergence failed at  83  side 2    Res =  0.1823E+03
 MRCHDU: Convergence failed at  84  side 2    Res =  0.1827E+03
 MRCHDU: Convergence failed at  85  side 2    Res =  0.1764E+03
 MRCHDU: Convergence failed at  86  side 2    Res =  0.1682E+03
 MRCHDU: Convergence failed at  87  side 2    Res =  0.1760E+03
 MRCHDU: Convergence failed at  88  side 2    Res =  0.1644E+03
 MRCHDU: Convergence failed at  89  side 2    Res =  0.1600E+03
 Side 1  free  transition at x/c =  0.5537   44
 Side 2  free  transition at x/c =  0.1022   28

   1   rms: 0.2463E+01   max: 0.1305E+02   T at   28  2   RLX: 0.115
       a = -4.000      CL = -0.8000
      Cm =  0.2283     CD =  0.01747   =>   CDf =  0.00557    CDp =  0.01190

 MRCHDU: Convergence failed at  28  side 2    Res =  0.1874E+02
 MRCHDU: Convergence failed at  44  side 2    Res =  0.1863E+00
 MRCHDU: Convergence failed at  45  side 2    Res =  0.1890E+00
 MRCHDU: Convergence failed at  46  side 2    Res =  0.1942E+00
 MRCHDU: Convergence failed at  47  side 2    Res =  0.2014E+00
 MRCHDU: Convergence failed at  48  side 2    Res =  0.2097E+00
 MRCHDU: Convergence failed at  49  side 2    Res =  0.2199E+00
 MRCHDU: Convergence failed at  50  side 2    Res =  0.2311E+00
 MRCHDU: Convergence failed at  51  side 2    Res =  0.2419E+00
 MRCHDU: Convergence failed at  52  side 2    Res =  0.2518E+00
 MRCHDU: Convergence failed at  53  side 2    Res =  0.2609E+00
 MRCHDU: Convergence failed at  54  side 2    Res =  0.2694E+00
 MRCHDU: Convergence failed at  55  side 2    Res =  0.2776E+00
 MRCHDU: Convergence failed at  56  side 2    Res =  0.2854E+00
 MRCHDU: Convergence failed at  57  side 2    Res =  0.2927E+00
 MRCHDU: Convergence failed at  58  side 2    Res =  0.2997E+00
 MRCHDU: Convergence failed at  59  side 2    Res =  0.3064E+00
 MRCHDU: Convergence failed at  60  side 2    Res =  0.3130E+00
 MRCHDU: Convergence failed at  61  side 2    Res =  0.3194E+00
 MRCHDU: Convergence failed at  62  side 2    Res =  0.3260E+00
 MRCHDU: Convergence failed at  63  side 2    Res =  0.3323E+00
 MRCHDU: Convergence failed at  64  side 2    Res =  0.3386E+00
 MRCHDU: Convergence failed at  65  side 2    Res =  0.3450E+00
 MRCHDU: Convergence failed at  66  side 2    Res =  0.3513E+00
 MRCHDU: Convergence failed at  67  side 2    Res =  0.3605E+00
 MRCHDU: Convergence failed at  68  side 2    Res =  0.3659E+00
 MRCHDU: Convergence failed at  69  side 2    Res =  0.3711E+00
 MRCHDU: Convergence failed at  70  side 2    Res =  0.3764E+00
 MRCHDU: Convergence failed at  71  side 2    Res =  0.3818E+00
 MRCHDU: Convergence failed at  72  side 2    Res =  0.3874E+00
 MRCHDU: Convergence failed at  73  side 2    Res =  0.3931E+00
 MRCHDU: Convergence failed at  74  side 2    Res =  0.3993E+00
 MRCHDU: Convergence failed at  75  side 2    Res =  0.4055E+00
 MRCHDU: Convergence failed at  76  side 2    Res =  0.4117E+00
 MRCHDU: Convergence failed at  77  side 2    Res =  0.4181E+00
 MRCHDU: Convergence failed at  78  side 2    Res =  0.4242E+00
 MRCHDU: Convergence failed at  79  side 2    Res =  0.4305E+00
 MRCHDU: Convergence failed at  80  side 2    Res =  0.4364E+00
 MRCHDU: Convergence failed at  81  side 2    Res =  0.4419E+00
 MRCHDU: Convergence failed at  82  side 2    Res =  0.4471E+00
 MRCHDU: Convergence failed at  83  side 2    Res =  0.4526E+00
 MRCHDU: Convergence failed at  84  side 2    Res =  0.4590E+00
 MRCHDU: Convergence failed at  85  side 2    Res =  0.4678E+00
 MRCHDU: Convergence failed at  86  side 2    Res =  0.4773E+00
 MRCHDU: Convergence failed at  87  side 2    Res =  0.4860E+00
 MRCHDU: Convergence failed at  88  side 2    Res =  0.4933E+00
 MRCHDU: Convergence failed at  89  side 2    Res =  0.5018E+00
 Side 1  free  transition at x/c =  0.5547   44
 Side 2  free  transition at x/c =  0.0869   27

   2   rms: 0.9647E+00   max: 0.1490E+02   T at   27  2   RLX: 0.101
       a = -4.000      CL = -0.2031
      Cm =  0.0252     CD =  0.03269   =>   CDf =  0.00590    CDp =  0.02679

 MRCHDU: Convergence failed at  27  side 2    Res =  0.2921E+03
 Side 1  free  transition at x/c =  0.5602   45
 Side 2  free  transition at x/c =  0.0739   26

   3   rms: 0.1990E+01   max: 0.1960E+02   T at   26  2   RLX: 0.066
       a = -4.000      CL = -0.1481
      Cm = -0.0376     CD =  0.04537   =>   CDf =  0.00579    CDp =  0.03958

 MRCHDU: Convergence failed at  26  side 2    Res =  0.1357E+04
 MRCHDU: Convergence failed at  29  side 2    Res =  0.1341E+01
 Side 1  free  transition at x/c =  0.5651   45
 Side 2  free  transition at x/c =  0.0677   25

   4   rms: 0.3119E+01   max: 0.1725E+02   D at   30  2   RLX: 0.087
       a = -4.000      CL = -0.1226
      Cm = -0.0118     CD =  0.06442   =>   CDf =  0.00574    CDp =  0.05868

 Side 1  free  transition at x/c =  0.5589   46
 Side 2  free  transition at x/c =  0.0675   24

   5   rms: 0.8596E+00   max: -.9157E+01   T at    2  1   RLX: 0.055
       a = -4.000      CL =  0.0579
      Cm = -0.0523     CD =  0.06029   =>   CDf =  0.00571    CDp =  0.05457

 Side 1  free  transition at x/c =  0.5594   46
 Side 2  free  transition at x/c =  0.0659   24

   6   rms: 0.7375E+00   max: 0.3437E+01   D at   24  2   RLX: 0.371
       a = -4.000      CL =  0.2197
      Cm = -0.0618     CD =  0.07397   =>   CDf =  0.00565    CDp =  0.06832

 Side 1  free  transition at x/c =  0.5615   46
 Side 2  free  transition at x/c =  0.0931   26

   7   rms: 0.6516E+00   max: 0.8719E+01   T at   26  2   RLX: 0.172
       a = -4.000      CL =  0.3794
      Cm = -0.0925     CD =  0.05146   =>   CDf =  0.00615    CDp =  0.04531

 Side 1  free  transition at x/c =  0.5622   46
 Side 2  free  transition at x/c =  0.0800   25

   8   rms: 0.3183E+00   max: 0.3662E+01   T at   25  2   RLX: 0.410
       a = -4.000      CL =  0.4148
      Cm = -0.1008     CD =  0.05898   =>   CDf =  0.00572    CDp =  0.05326

 Side 1  free  transition at x/c =  0.5657   46
 Side 2  free  transition at x/c =  0.0687   24

   9   rms: 0.1643E+00   max: 0.1307E+01   T at   24  2
       a = -4.000      CL =  0.4662
      Cm = -0.1059     CD =  0.06753   =>   CDf =  0.00538    CDp =  0.06215

 Side 1  free  transition at x/c =  0.5729   46
 Side 2  free  transition at x/c =  0.0562   23

  10   rms: 0.5030E-01   max: -.5129E+00   D at   23  2   RLX: 0.975
       a = -4.000      CL =  0.4757
      Cm = -0.1051     CD =  0.06312   =>   CDf =  0.00509    CDp =  0.05803

 Side 1  free  transition at x/c =  0.5735   46
 Side 2  free  transition at x/c =  0.0593   23

  11   rms: 0.3449E-01   max: -.2383E+00   T at   23  2
       a = -4.000      CL =  0.4811
      Cm = -0.1090     CD =  0.06318   =>   CDf =  0.00512    CDp =  0.05806

 Side 1  free  transition at x/c =  0.5739   46
 Side 2  free  transition at x/c =  0.0600   23

  12   rms: 0.1522E-01   max: 0.9259E-01   T at   24  2
       a = -4.000      CL =  0.4840
      Cm = -0.1105     CD =  0.06456   =>   CDf =  0.00512    CDp =  0.05943

 Side 1  free  transition at x/c =  0.5737   46
 Side 2  free  transition at x/c =  0.0604   23

  13   rms: 0.1904E-01   max: 0.1131E+00   T at   24  2
       a = -4.000      CL =  0.4896
      Cm = -0.1123     CD =  0.06494   =>   CDf =  0.00513    CDp =  0.05981

 Side 1  free  transition at x/c =  0.5734   46
 Side 2  free  transition at x/c =  0.0606   23

  14   rms: 0.9268E-02   max: 0.5279E-01   D at   24  2
       a = -4.000      CL =  0.4889
      Cm = -0.1124     CD =  0.06561   =>   CDf =  0.00514    CDp =  0.06047

 Side 1  free  transition at x/c =  0.5734   46
 Side 2  free  transition at x/c =  0.0606   23

  15   rms: 0.1623E-02   max: 0.7883E-02   D at   74  2
       a = -4.000      CL =  0.4892
      Cm = -0.1123     CD =  0.06541   =>   CDf =  0.00513    CDp =  0.06028

 Side 1  free  transition at x/c =  0.5734   46
 Side 2  free  transition at x/c =  0.0607   23

  16   rms: 0.9148E-04   max: -.3685E-03   T at   24  2
       a = -4.000      CL =  0.4892
      Cm = -0.1123     CD =  0.06537   =>   CDf =  0.00513    CDp =  0.06023
 plradd ia,ip,cpol            1           0  0.19117253    

 Point added to stored polar  1
 Point written to save file  goe462_Re150k.base.pol                          
 Dump file unspecified or not available
 Calculating wake trajectory ...
 Calculating source influence matrix ...

 Solving BL system ...

 Side 1  free  transition at x/c =  0.5734   46
 Side 2  free  transition at x/c =  0.0607   23

   1   rms: 0.6210E+00   max: 0.3613E+01   T at   24  2   RLX: 0.187
       a = -3.500      CL =  0.5287
      Cm = -0.1241     CD =  0.06671   =>   CDf =  0.00514    CDp =  0.06156

 Side 1  free  transition at x/c =  0.5673   46
 Side 2  free  transition at x/c =  0.0587   23

   2   rms: 0.4468E+00   max: 0.1948E+01   D at   24  2   RLX: 0.770
       a = -3.500      CL =  0.5443
      Cm = -0.1202     CD =  0.06730   =>   CDf =  0.00544    CDp =  0.06186

 Side 1  free  transition at x/c =  0.5536   46
 Side 2  free  transition at x/c =  0.0607   22

   3   rms: 0.1406E+00   max: 0.9485E+00   D at   67  2
       a = -3.500      CL =  0.5804
      Cm = -0.1292     CD =  0.06485   =>   CDf =  0.00552    CDp =  0.05932

 Side 1  free  transition at x/c =  0.5518   46
 Side 2  free  transition at x/c =  0.0613   23
 idif Ue xi dudx           1  9.84754637E-02  3.20768356E-03   30.699869    
 Uenew xinew           2  4.58561629E-03  1.49369240E-04

   4   rms: 0.3089E+00   max: -.2460E+01   T at   23  2   RLX: 0.203
       a = -3.500      CL =  0.6070
      Cm = -0.1401     CD =  0.04319   =>   CDf =  0.00575    CDp =  0.03744

 MRCHDU: Convergence failed at  68  side 2    Res =  0.1275E+01
 Side 1  free  transition at x/c =  0.5543   45
 Side 2  free  transition at x/c =  0.0673   24

   5   rms: 0.3728E+00   max: -.1930E+01   D at    2  2   RLX: 0.259
       a = -3.500      CL =  0.5185
      Cm = -0.1209     CD =  0.05722   =>   CDf =  0.00536    CDp =  0.05186

 Side 1  free  transition at x/c =  0.5535   46
 Side 2  free  transition at x/c =  0.0652   23

   6   rms: 0.1557E+00   max: 0.6691E+00   D at   23  2
       a = -3.500      CL =  0.5154
      Cm = -0.1117     CD =  0.06633   =>   CDf =  0.00534    CDp =  0.06099

 Side 1  free  transition at x/c =  0.5543   46
 Side 2  free  transition at x/c =  0.0618   23

   7   rms: 0.8743E-01   max: -.5173E+00   T at   23  2   RLX: 0.967
       a = -3.500      CL =  0.5168
      Cm = -0.1101     CD =  0.05795   =>   CDf =  0.00521    CDp =  0.05274

 Side 1  free  transition at x/c =  0.5556   46
 Side 2  free  transition at x/c =  0.0627   23

   8   rms: 0.5772E-01   max: -.3027E+00   D at   23  2
       a = -3.500      CL =  0.5192
      Cm = -0.1117     CD =  0.05785   =>   CDf =  0.00521    CDp =  0.05264

 Side 1  free  transition at x/c =  0.5558   46
 Side 2  free  transition at x/c =  0.0633   23

   9   rms: 0.1281E-01   max: -.7262E-01   D at   74  2
       a = -3.500      CL =  0.5214
      Cm = -0.1134     CD =  0.05971   =>   CDf =  0.00524    CDp =  0.05447

 Side 1  free  transition at x/c =  0.5555   46
 Side 2  free  transition at x/c =  0.0636   23

  10   rms: 0.1348E-02   max: -.8262E-02   D at   73  2
       a = -3.500      CL =  0.5215
      Cm = -0.1135     CD =  0.06017   =>   CDf =  0.00523    CDp =  0.05494

 Side 1  free  transition at x/c =  0.5555   46
 Side 2  free  transition at x/c =  0.0636   23

  11   rms: 0.1233E-03   max: -.7360E-03   D at   73  2
       a = -3.500      CL =  0.5215
      Cm = -0.1136     CD =  0.06022   =>   CDf =  0.00523    CDp =  0.05499

 Side 1  free  transition at x/c =  0.5555   46
 Side 2  free  transition at x/c =  0.0636   23

  12   rms: 0.5693E-05   max: 0.2169E-04   D at   89  2
       a = -3.500      CL =  0.5215
      Cm = -0.1136     CD =  0.06022   =>   CDf =  0.00523    CDp =  0.05499
 plradd ia,ip,cpol            2           0  0.19117253    

 Point added to stored polar  1
 Point written to save file  goe462_Re150k.base.pol                          
 Dump file unspecified or not available
 Calculating wake trajectory ...
 Calculating source influence matrix ...

 Solving BL system ...

 Side 1  free  transition at x/c =  0.5554   46
 Side 2  free  transition at x/c =  0.0636   23

   1   rms: 0.8430E-01   max: -.9236E+00   T at   23  2   RLX: 0.541
       a = -3.000      CL =  0.5381
      Cm = -0.1134     CD =  0.05801   =>   CDf =  0.00524    CDp =  0.05277

 Side 1  free  transition at x/c =  0.5436   46
 Side 2  free  transition at x/c =  0.0658   23

   2   rms: 0.5910E-01   max: -.4602E+00   T at   23  2
       a = -3.000      CL =  0.5623
      Cm = -0.1156     CD =  0.05521   =>   CDf =  0.00533    CDp =  0.04988

 Side 1  free  transition at x/c =  0.5395   45
 Side 2  free  transition at x/c =  0.0697   23

   3   rms: 0.3186E-01   max: -.1664E+00   D at   23  2
       a = -3.000      CL =  0.5694
      Cm = -0.1179     CD =  0.05594   =>   CDf =  0.00540    CDp =  0.05054

 Side 1  free  transition at x/c =  0.5374   45
 Side 2  free  transition at x/c =  0.0712   23

   4   rms: 0.3380E-01   max: -.2730E+00   T at   23  2
       a = -3.000      CL =  0.5806
      Cm = -0.1213     CD =  0.05655   =>   CDf =  0.00539    CDp =  0.05116

 Side 1  free  transition at x/c =  0.5369   45
 Side 2  free  transition at x/c =  0.0714   23

   5   rms: 0.2244E-01   max: -.1613E+00   D at   23  2
       a = -3.000      CL =  0.5817
      Cm = -0.1219     CD =  0.05773   =>   CDf =  0.00542    CDp =  0.05231

 Side 1  free  transition at x/c =  0.5367   45
 Side 2  free  transition at x/c =  0.0721   23

   6   rms: 0.2114E+00   max: 0.1388E+01   T at   24  2   RLX: 0.500
       a = -3.000      CL =  0.6185
      Cm = -0.1320     CD =  0.05908   =>   CDf =  0.00542    CDp =  0.05366

 Side 1  free  transition at x/c =  0.5348   45
 Side 2  free  transition at x/c =  0.0699   23

   7   rms: 0.3444E+00   max: 0.1649E+01   D at   24  2   RLX: 0.910
       a = -3.000      CL =  0.5791
      Cm = -0.1201     CD =  0.06514   =>   CDf =  0.00569    CDp =  0.05945

 Side 1  free  transition at x/c =  0.5342   45
 Side 2  free  transition at x/c =  0.0690   23

   8   rms: 0.2985E+00   max: 0.2424E+01   D at   65  2   RLX: 0.619
       a = -3.000      CL =  0.6371
      Cm = -0.1328     CD =  0.05321   =>   CDf =  0.00592    CDp =  0.04729

 MRCHDU: Convergence failed at  64  side 2    Res =  0.2348E+01
 MRCHDU: Convergence failed at  65  side 2    Res =  0.5131E+01
 MRCHDU: Convergence failed at  66  side 2    Res =  0.4227E+01
 MRCHDU: Convergence failed at  67  side 2    Res =  0.3796E+01
 MRCHDU: Convergence failed at  68  side 2    Res =  0.3448E+01
 Side 1  free  transition at x/c =  0.5330   45
 Side 2  free  transition at x/c =  0.0708   23

   9   rms: 0.6539E-01   max: 0.4490E+00   D at   69  2
       a = -3.000      CL =  0.5784
      Cm = -0.1206     CD =  0.05828   =>   CDf =  0.00552    CDp =  0.05276

 Side 1  free  transition at x/c =  0.5364   45
 Side 2  free  transition at x/c =  0.0720   23

  10   rms: 0.9616E-01   max: -.6893E+00   T at   24  2   RLX: 0.725
       a = -3.000      CL =  0.5576
      Cm = -0.1147     CD =  0.05625   =>   CDf =  0.00542    CDp =  0.05083

 Side 1  free  transition at x/c =  0.5379   45
 Side 2  free  transition at x/c =  0.0692   23

  11   rms: 0.6429E-01   max: -.2765E+00   D at   24  2
       a = -3.000      CL =  0.5630
      Cm = -0.1154     CD =  0.05461   =>   CDf =  0.00533    CDp =  0.04928

 Side 1  free  transition at x/c =  0.5380   45
 Side 2  free  transition at x/c =  0.0705   23

  12   rms: 0.2702E-01   max: -.2430E+00   T at   23  2
       a = -3.000      CL =  0.5746
      Cm = -0.1196     CD =  0.05608   =>   CDf =  0.00538    CDp =  0.05070

 Side 1  free  transition at x/c =  0.5373   45
 Side 2  free  transition at x/c =  0.0715   23

  13   rms: 0.2038E-01   max: 0.1308E+00   T at   24  2
       a = -3.000      CL =  0.5808
      Cm = -0.1214     CD =  0.05693   =>   CDf =  0.00540    CDp =  0.05153

 Side 1  free  transition at x/c =  0.5369   45
 Side 2  free  transition at x/c =  0.0720   23

  14   rms: 0.3846E-01   max: 0.2440E+00   T at   24  2
       a = -3.000      CL =  0.5948
      Cm = -0.1255     CD =  0.05760   =>   CDf =  0.00542    CDp =  0.05218

 Side 1  free  transition at x/c =  0.5361   45
 Side 2  free  transition at x/c =  0.0721   23

  15   rms: 0.4609E-01   max: 0.2329E+00   D at   24  2
       a = -3.000      CL =  0.5919
      Cm = -0.1249     CD =  0.05894   =>   CDf =  0.00548    CDp =  0.05346

 Side 1  free  transition at x/c =  0.5360   45
 Side 2  free  transition at x/c =  0.0724   23

  16   rms: 0.2648E-01   max: 0.1351E+00   T at   24  2
       a = -3.000      CL =  0.6028
      Cm = -0.1278     CD =  0.05835   =>   CDf =  0.00545    CDp =  0.05290

 Side 1  free  transition at x/c =  0.5357   45
 Side 2  free  transition at x/c =  0.0725   23

  17   rms: 0.3039E-01   max: 0.1323E+00   D at   24  2
       a = -3.000      CL =  0.6009
      Cm = -0.1275     CD =  0.05908   =>   CDf =  0.00551    CDp =  0.05357

 Side 1  free  transition at x/c =  0.5356   45
 Side 2  free  transition at x/c =  0.0726   23

  18   rms: 0.1844E-02   max: 0.1212E-01   D at   68  2
       a = -3.000      CL =  0.6008
      Cm = -0.1273     CD =  0.05849   =>   CDf =  0.00548    CDp =  0.05301

 Side 1  free  transition at x/c =  0.5357   45
 Side 2  free  transition at x/c =  0.0726   23

  19   rms: 0.1424E-03   max: -.5645E-03   T at   27  2
       a = -3.000      CL =  0.6007
      Cm = -0.1273     CD =  0.05845   =>   CDf =  0.00548    CDp =  0.05296

 Side 1  free  transition at x/c =  0.5358   45
 Side 2  free  transition at x/c =  0.0726   23

  20   rms: 0.1301E-04   max: 0.6254E-04   T at   24  2
       a = -3.000      CL =  0.6007
      Cm = -0.1273     CD =  0.05845   =>   CDf =  0.00548    CDp =  0.05297
 plradd ia,ip,cpol            3           0  0.19117253    

 Point added to stored polar  1
 Point written to save file  goe462_Re150k.base.pol                          
 Dump file unspecified or not available
 Calculating wake trajectory ...
 Calculating source influence matrix ...

 Solving BL system ...

 Side 1  free  transition at x/c =  0.5358   45
 Side 2  free  transition at x/c =  0.0726   23

   1   rms: 0.5609E+00   max: 0.2454E+01   T at   27  2   RLX: 0.266
       a = -2.500      CL =  0.6763
      Cm = -0.1466     CD =  0.05967   =>   CDf =  0.00549    CDp =  0.05417

 Side 1  free  transition at x/c =  0.5275   45
 Side 2  free  transition at x/c =  0.0710   23

   2   rms: 0.1085E+01   max: 0.4678E+01   D at   59  2   RLX: 0.321
       a = -2.500      CL =  0.6717
      Cm = -0.1403     CD =  0.04765   =>   CDf =  0.00637    CDp =  0.04128

 Side 1  free  transition at x/c =  0.5238   45
 Side 2  free  transition at x/c =  0.0712   22

   3   rms: 0.3513E+00   max: 0.1520E+01   D at   67  2   RLX: 0.987
       a = -2.500      CL =  0.6700
      Cm = -0.1400     CD =  0.05613   =>   CDf =  0.00620    CDp =  0.04993

 Side 1  free  transition at x/c =  0.5155   45
 Side 2  free  transition at x/c =  0.0921   24

   4   rms: 0.5084E+00   max: 0.3417E+01   D at   59  2   RLX: 0.439
       a = -2.500      CL =  0.6991
      Cm = -0.1420     CD =  0.04598   =>   CDf =  0.00631    CDp =  0.03967

 MRCHDU: Convergence failed at  59  side 2    Res =  0.2776E+01
 MRCHDU: Convergence failed at  60  side 2    Res =  0.2347E+01
 MRCHDU: Convergence failed at  61  side 2    Res =  0.2234E+01
 MRCHDU: Convergence failed at  62  side 2    Res =  0.2426E+01
 MRCHDU: Convergence failed at  63  side 2    Res =  0.3345E+01
 MRCHDU: Convergence failed at  64  side 2    Res =  0.2159E+02
 Side 1  free  transition at x/c =  0.5161   45
 Side 2  free  transition at x/c =  0.0830   23

   5   rms: 0.1368E+00   max: 0.1044E+01   D at   58  2
       a = -2.500      CL =  0.6368
      Cm = -0.1302     CD =  0.05535   =>   CDf =  0.00575    CDp =  0.04959

 Side 1  free  transition at x/c =  0.5190   45
 Side 2  free  transition at x/c =  0.0762   23

   6   rms: 0.3325E-01   max: -.3978E+00   D at   23  2
       a = -2.500      CL =  0.6273
      Cm = -0.1248     CD =  0.05339   =>   CDf =  0.00557    CDp =  0.04782

 Side 1  free  transition at x/c =  0.5200   45
 Side 2  free  transition at x/c =  0.0766   23

   7   rms: 0.4946E-02   max: -.4294E-01   D at   64  2
       a = -2.500      CL =  0.6272
      Cm = -0.1254     CD =  0.05260   =>   CDf =  0.00557    CDp =  0.04702

 Side 1  free  transition at x/c =  0.5202   45
 Side 2  free  transition at x/c =  0.0767   23

   8   rms: 0.1188E-03   max: -.7736E-03   T at   23  2
       a = -2.500      CL =  0.6273
      Cm = -0.1254     CD =  0.05271   =>   CDf =  0.00557    CDp =  0.04714

 Side 1  free  transition at x/c =  0.5202   45
 Side 2  free  transition at x/c =  0.0767   23

   9   rms: 0.6853E-05   max: -.4464E-04   T at   23  2
       a = -2.500      CL =  0.6273
      Cm = -0.1254     CD =  0.05271   =>   CDf =  0.00557    CDp =  0.04714
 plradd ia,ip,cpol            4           0  0.19117253    

 Point added to stored polar  1
 Point written to save file  goe462_Re150k.base.pol                          
 Dump file unspecified or not available
 Calculating wake trajectory ...
 Calculating source influence matrix ...

 Solving BL system ...

 Side 1  free  transition at x/c =  0.5202   45
 Side 2  free  transition at x/c =  0.0767   23

   1   rms: 0.8256E-01   max: -.1015E+01   T at   23  2   RLX: 0.492
       a = -2.000      CL =  0.6495
      Cm = -0.1267     CD =  0.05086   =>   CDf =  0.00558    CDp =  0.04528

 Side 1  free  transition at x/c =  0.5104   45
 Side 2  free  transition at x/c =  0.0797   23

   2   rms: 0.6393E-01   max: -.6481E+00   T at   23  2   RLX: 0.771
       a = -2.000      CL =  0.6755
      Cm = -0.1296     CD =  0.04958   =>   CDf =  0.00570    CDp =  0.04388

 Side 1  free  transition at x/c =  0.5065   44
 Side 2  free  transition at x/c =  0.0823   23

   3   rms: 0.4781E-01   max: -.3199E+00   D at   23  2
       a = -2.000      CL =  0.6942
      Cm = -0.1332     CD =  0.04915   =>   CDf =  0.00579    CDp =  0.04336

 Side 1  free  transition at x/c =  0.5022   44
 Side 2  free  transition at x/c =  0.0865   24

   4   rms: 0.4561E-01   max: 0.2553E+00   D at   24  2
       a = -2.000      CL =  0.7084
      Cm = -0.1377     CD =  0.04924   =>   CDf =  0.00588    CDp =  0.04336

 Side 1  free  transition at x/c =  0.5021   44
 Side 2  free  transition at x/c =  0.0848   23

   5   rms: 0.2202E+00   max: -.1007E+01   T at   24  2   RLX: 0.497
       a = -2.000      CL =  0.6601
      Cm = -0.1245     CD =  0.05227   =>   CDf =  0.00578    CDp =  0.04649

 Side 1  free  transition at x/c =  0.5043   44
 Side 2  free  transition at x/c =  0.0833   23

   6   rms: 0.1024E+00   max: 0.4099E+00   T at   24  2
       a = -2.000      CL =  0.6956
      Cm = -0.1337     CD =  0.04747   =>   CDf =  0.00568    CDp =  0.04179

 Side 1  free  transition at x/c =  0.5029   44
 Side 2  free  transition at x/c =  0.0844   23

   7   rms: 0.1726E+00   max: 0.8814E+00   T at   24  2   RLX: 0.787
       a = -2.000      CL =  0.7632
      Cm = -0.1508     CD =  0.05191   =>   CDf =  0.00582    CDp =  0.04609

 Side 1  free  transition at x/c =  0.4989   44
 Side 2  free  transition at x/c =  0.0827   23

   8   rms: 0.6000E+00   max: 0.2581E+01   D at   61  2   RLX: 0.581
       a = -2.000      CL =  0.7343
      Cm = -0.1421     CD =  0.05027   =>   CDf =  0.00649    CDp =  0.04378

 Side 1  free  transition at x/c =  0.4988   44
 Side 2  free  transition at x/c =  0.0834   23

   9   rms: 0.2778E+00   max: 0.2184E+01   D at   59  2   RLX: 0.687
       a = -2.000      CL =  0.7408
      Cm = -0.1416     CD =  0.04871   =>   CDf =  0.00634    CDp =  0.04237

 Side 1  free  transition at x/c =  0.4996   44
 Side 2  free  transition at x/c =  0.0936   24

  10   rms: 0.4743E+00   max: 0.3373E+01   D at   61  2   RLX: 0.445
       a = -2.000      CL =  0.7632
      Cm = -0.1477     CD =  0.04265   =>   CDf =  0.00660    CDp =  0.03605

 MRCHDU: Convergence failed at  60  side 2    Res =  0.2613E+01
 MRCHDU: Convergence failed at  61  side 2    Res =  0.2804E+01
 MRCHDU: Convergence failed at  62  side 2    Res =  0.2023E+01
 MRCHDU: Convergence failed at  63  side 2    Res =  0.1358E+01
 MRCHDU: Convergence failed at  64  side 2    Res =  0.1233E+01
 Side 1  free  transition at x/c =  0.4990   44
 Side 2  free  transition at x/c =  0.0875   24

  11   rms: 0.1242E+00   max: 0.5118E+00   D at   65  2
       a = -2.000      CL =  0.7110
      Cm = -0.1395     CD =  0.05004   =>   CDf =  0.00604    CDp =  0.04400

 Side 1  free  transition at x/c =  0.5016   44
 Side 2  free  transition at x/c =  0.0849   23

  12   rms: 0.2072E+00   max: -.8978E+00   T at   24  2   RLX: 0.557
       a = -2.000      CL =  0.6635
      Cm = -0.1254     CD =  0.05186   =>   CDf =  0.00577    CDp =  0.04609

 Side 1  free  transition at x/c =  0.5040   44
 Side 2  free  transition at x/c =  0.0835   23

  13   rms: 0.1055E+00   max: 0.4786E+00   T at   24  2
       a = -2.000      CL =  0.7012
      Cm = -0.1353     CD =  0.04778   =>   CDf =  0.00569    CDp =  0.04209

 Side 1  free  transition at x/c =  0.5026   44
 Side 2  free  transition at x/c =  0.0842   23

  14   rms: 0.8608E-01   max: 0.4458E+00   T at   24  2
       a = -2.000      CL =  0.7442
      Cm = -0.1461     CD =  0.05083   =>   CDf =  0.00585    CDp =  0.04497

 Side 1  free  transition at x/c =  0.5000   44
 Side 2  free  transition at x/c =  0.0844   23

  15   rms: 0.1371E+00   max: 0.5919E+00   D at   24  2
       a = -2.000      CL =  0.7409
      Cm = -0.1447     CD =  0.05316   =>   CDf =  0.00610    CDp =  0.04706

 Side 1  free  transition at x/c =  0.4997   44
 Side 2  free  transition at x/c =  0.1016   25

  16   rms: 0.6156E+00   max: 0.3530E+01   D at   58  2   RLX: 0.425
       a = -2.000      CL =  0.7708
      Cm = -0.1504     CD =  0.04224   =>   CDf =  0.00684    CDp =  0.03540

 MRCHDU: Convergence failed at  58  side 2    Res =  0.2710E+01
 MRCHDU: Convergence failed at  59  side 2    Res =  0.2244E+01
 MRCHDU: Convergence failed at  60  side 2    Res =  0.2014E+01
 MRCHDU: Convergence failed at  61  side 2    Res =  0.1955E+01
 MRCHDU: Convergence failed at  62  side 2    Res =  0.2102E+01
 Side 1  free  transition at x/c =  0.4988   44
 Side 2  free  transition at x/c =  0.0939   24

  17   rms: 0.2834E+00   max: 0.1546E+01   D at   25  2   RLX: 0.970
       a = -2.000      CL =  0.6964
      Cm = -0.1349     CD =  0.05391   =>   CDf =  0.00616    CDp =  0.04775

 Side 1  free  transition at x/c =  0.5007   44
 Side 2  free  transition at x/c =  0.0821   23

  18   rms: 0.4831E-01   max: -.3967E+00   D at   23  2
       a = -2.000      CL =  0.6932
      Cm = -0.1322     CD =  0.04987   =>   CDf =  0.00582    CDp =  0.04405

 Side 1  free  transition at x/c =  0.5024   44
 Side 2  free  transition at x/c =  0.0859   24

  19   rms: 0.2623E-01   max: 0.1185E+00   D at   72  2
       a = -2.000      CL =  0.7074
      Cm = -0.1372     CD =  0.04881   =>   CDf =  0.00585    CDp =  0.04296

 Side 1  free  transition at x/c =  0.5022   44
 Side 2  free  transition at x/c =  0.0848   23

  20   rms: 0.2356E+00   max: -.1105E+01   T at   24  2   RLX: 0.453
       a = -2.000      CL =  0.6583
      Cm = -0.1241     CD =  0.05257   =>   CDf =  0.00579    CDp =  0.04678

 Side 1  free  transition at x/c =  0.5045   44
 Side 2  free  transition at x/c =  0.0832   23

  21   rms: 0.1021E+00   max: 0.3759E+00   T at   24  2
       a = -2.000      CL =  0.6926
      Cm = -0.1329     CD =  0.04732   =>   CDf =  0.00568    CDp =  0.04164

 Side 1  free  transition at x/c =  0.5031   44
 Side 2  free  transition at x/c =  0.0844   23

  22   rms: 0.2677E+00   max: 0.1436E+01   T at   24  2   RLX: 0.508
       a = -2.000      CL =  0.7597
      Cm = -0.1498     CD =  0.05313   =>   CDf =  0.00581    CDp =  0.04732

 Side 1  free  transition at x/c =  0.4992   44
 Side 2  free  transition at x/c =  0.0825   23

  23   rms: 0.5420E+00   max: 0.2364E+01   D at   24  2   RLX: 0.635
       a = -2.000      CL =  0.7310
      Cm = -0.1415     CD =  0.05110   =>   CDf =  0.00642    CDp =  0.04468

 Side 1  free  transition at x/c =  0.4990   44
 Side 2  free  transition at x/c =  0.0834   23

  24   rms: 0.2466E+00   max: 0.2244E+01   D at   60  2   RLX: 0.669
       a = -2.000      CL =  0.7397
      Cm = -0.1412     CD =  0.04857   =>   CDf =  0.00628    CDp =  0.04229

 Side 1  free  transition at x/c =  0.4998   44
 Side 2  free  transition at x/c =  0.0934   24

  25   rms: 0.4811E+00   max: 0.3417E+01   D at   61  2   RLX: 0.439
       a = -2.000      CL =  0.7595
      Cm = -0.1461     CD =  0.04303   =>   CDf =  0.00659    CDp =  0.03644

 MRCHDU: Convergence failed at  61  side 2    Res =  0.1736E+01
 MRCHDU: Convergence failed at  62  side 2    Res =  0.1714E+01
 MRCHDU: Convergence failed at  63  side 2    Res =  0.1297E+01
 MRCHDU: Convergence failed at  64  side 2    Res =  0.1162E+01
 Side 1  free  transition at x/c =  0.4992   44
 Side 2  free  transition at x/c =  0.0870   24

  26   rms: 0.1162E+00   max: 0.5294E+00   D at   68  2
       a = -2.000      CL =  0.7133
      Cm = -0.1401     CD =  0.04984   =>   CDf =  0.00605    CDp =  0.04379

 Side 1  free  transition at x/c =  0.5015   44
 Side 2  free  transition at x/c =  0.0852   24

  27   rms: 0.7019E-01   max: -.3014E+00   D at   24  2
       a = -2.000      CL =  0.7104
      Cm = -0.1378     CD =  0.04863   =>   CDf =  0.00579    CDp =  0.04284

 Side 1  free  transition at x/c =  0.5021   44
 Side 2  free  transition at x/c =  0.0854   24

  28   rms: 0.1762E-01   max: -.9220E-01   T at   24  2
       a = -2.000      CL =  0.7107
      Cm = -0.1381     CD =  0.04916   =>   CDf =  0.00586    CDp =  0.04330

 Side 1  free  transition at x/c =  0.5021   44
 Side 2  free  transition at x/c =  0.0856   24

  29   rms: 0.3546E-02   max: -.1344E-01   T at   24  2
       a = -2.000      CL =  0.7111
      Cm = -0.1382     CD =  0.04936   =>   CDf =  0.00586    CDp =  0.04350

 Side 1  free  transition at x/c =  0.5020   44
 Side 2  free  transition at x/c =  0.0856   24

  30   rms: 0.3194E-03   max: -.1844E-02   T at   24  2
       a = -2.000      CL =  0.7112
      Cm = -0.1383     CD =  0.04941   =>   CDf =  0.00586    CDp =  0.04354

 Side 1  free  transition at x/c =  0.5020   44
 Side 2  free  transition at x/c =  0.0856   24

  31   rms: 0.1493E-04   max: -.1075E-03   T at   24  2
       a = -2.000      CL =  0.7112
      Cm = -0.1383     CD =  0.04941   =>   CDf =  0.00586    CDp =  0.04355
 plradd ia,ip,cpol            5           0  0.17727031    

 Point added to stored polar  1
 Point written to save file  goe462_Re150k.base.pol                          
 Dump file unspecified or not available
 Calculating wake trajectory ...
 Calculating source influence matrix ...

 Solving BL system ...

 Side 1  free  transition at x/c =  0.5020   44
 Side 2  free  transition at x/c =  0.0856   24

   1   rms: 0.1607E+00   max: -.1216E+01   T at   24  2   RLX: 0.411
       a = -1.500      CL =  0.7125
      Cm = -0.1350     CD =  0.04686   =>   CDf =  0.00587    CDp =  0.04099

 Side 1  free  transition at x/c =  0.4956   44
 Side 2  free  transition at x/c =  0.0866   24

   2   rms: 0.1075E+00   max: -.8794E+00   T at   24  2   RLX: 0.569
       a = -1.500      CL =  0.7187
      Cm = -0.1330     CD =  0.04756   =>   CDf =  0.00584    CDp =  0.04171

 Side 1  free  transition at x/c =  0.4916   43
 Side 2  free  transition at x/c =  0.0880   24

   3   rms: 0.8276E-01   max: -.4176E+00   D at   24  2
       a = -1.500      CL =  0.7446
      Cm = -0.1366     CD =  0.04454   =>   CDf =  0.00589    CDp =  0.03864

 Side 1  free  transition at x/c =  0.4865   44
 Side 2  free  transition at x/c =  0.0909   23

   4   rms: 0.2771E-01   max: -.1787E+00   T at   23  2
       a = -1.500      CL =  0.7563
      Cm = -0.1396     CD =  0.04519   =>   CDf =  0.00600    CDp =  0.03920

 Side 1  free  transition at x/c =  0.4864   44
 Side 2  free  transition at x/c =  0.0928   23

   5   rms: 0.7345E-02   max: -.6568E-01   T at   23  2
       a = -1.500      CL =  0.7599
      Cm = -0.1406     CD =  0.04555   =>   CDf =  0.00604    CDp =  0.03951

 Side 1  free  transition at x/c =  0.4862   44
 Side 2  free  transition at x/c =  0.0934   23

   6   rms: 0.1574E-02   max: -.1425E-01   T at   23  2
       a = -1.500      CL =  0.7607
      Cm = -0.1408     CD =  0.04567   =>   CDf =  0.00605    CDp =  0.03962

 Side 1  free  transition at x/c =  0.4861   44
 Side 2  free  transition at x/c =  0.0935   23

   7   rms: 0.2015E-03   max: -.2025E-02   T at   23  2
       a = -1.500      CL =  0.7608
      Cm = -0.1408     CD =  0.04569   =>   CDf =  0.00605    CDp =  0.03964

 Side 1  free  transition at x/c =  0.4861   44
 Side 2  free  transition at x/c =  0.0936   23

   8   rms: 0.1738E-04   max: -.2040E-03   T at   23  2
       a = -1.500      CL =  0.7608
      Cm = -0.1408     CD =  0.04570   =>   CDf =  0.00605    CDp =  0.03965
 plradd ia,ip,cpol            6           0  0.17727031    

 Point added to stored polar  1
 Point written to save file  goe462_Re150k.base.pol                          
 Dump file unspecified or not available
 Calculating wake trajectory ...
 Calculating source influence matrix ...

 Solving BL system ...

 Side 1  free  transition at x/c =  0.4861   44
 Side 2  free  transition at x/c =  0.0936   23

   1   rms: 0.1354E+00   max: -.2000E+01   T at   23  2   RLX: 0.250
       a = -1.000      CL =  0.7827
      Cm = -0.1438     CD =  0.04485   =>   CDf =  0.00606    CDp =  0.03878

 Side 1  free  transition at x/c =  0.4812   44
 Side 2  free  transition at x/c =  0.0941   23

   2   rms: 0.8903E-01   max: -.7560E+00   T at   23  2   RLX: 0.661
       a = -1.000      CL =  0.8228
      Cm = -0.1487     CD =  0.04384   =>   CDf =  0.00613    CDp =  0.03771

 Side 1  free  transition at x/c =  0.4744   43
 Side 2  free  transition at x/c =  0.0938   23

   3   rms: 0.4727E-01   max: -.5103E+00   D at   23  2   RLX: 0.980
       a = -1.000      CL =  0.8425
      Cm = -0.1504     CD =  0.04362   =>   CDf =  0.00641    CDp =  0.03721

 Side 1  free  transition at x/c =  0.4697   43
 Side 2  free  transition at x/c =  0.1125   25

   4   rms: 0.1640E+00   max: 0.1733E+01   T at   25  2   RLX: 0.866
       a = -1.000      CL =  0.8647
      Cm = -0.1561     CD =  0.04243   =>   CDf =  0.00657    CDp =  0.03586

 Side 1  free  transition at x/c =  0.4693   43
 Side 2  free  transition at x/c =  0.1045   24

   5   rms: 0.9418E-01   max: 0.7469E+00   D at   25  2
       a = -1.000      CL =  0.8362
      Cm = -0.1488     CD =  0.04437   =>   CDf =  0.00646    CDp =  0.03791

 Side 1  free  transition at x/c =  0.4702   43
 Side 2  free  transition at x/c =  0.0991   24

   6   rms: 0.2280E-01   max: -.3925E+00   D at   24  2
       a = -1.000      CL =  0.8340
      Cm = -0.1488     CD =  0.04239   =>   CDf =  0.00633    CDp =  0.03605

 Side 1  free  transition at x/c =  0.4708   43
 Side 2  free  transition at x/c =  0.1000   24

   7   rms: 0.4195E-02   max: -.3825E-01   T at   24  2
       a = -1.000      CL =  0.8357
      Cm = -0.1493     CD =  0.04234   =>   CDf =  0.00634    CDp =  0.03600

 Side 1  free  transition at x/c =  0.4707   43
 Side 2  free  transition at x/c =  0.1003   24

   8   rms: 0.4771E-03   max: -.2551E-02   T at   24  2
       a = -1.000      CL =  0.8359
      Cm = -0.1494     CD =  0.04238   =>   CDf =  0.00634    CDp =  0.03604

 Side 1  free  transition at x/c =  0.4707   43
 Side 2  free  transition at x/c =  0.1003   24

   9   rms: 0.3635E-04   max: -.2461E-03   T at   24  2
       a = -1.000      CL =  0.8359
      Cm = -0.1494     CD =  0.04239   =>   CDf =  0.00634    CDp =  0.03605
 plradd ia,ip,cpol            7           0  0.17727031    

 Point added to stored polar  1
 Point written to save file  goe462_Re150k.base.pol                          
 Dump file unspecified or not available
 Calculating wake trajectory ...
 Calculating source influence matrix ...

 Solving BL system ...

 Side 1  free  transition at x/c =  0.4707   43
 Side 2  free  transition at x/c =  0.1003   24

   1   rms: 0.8860E-01   max: -.9458E+00   T at   24  2   RLX: 0.529
       a = -0.500      CL =  0.8665
      Cm = -0.1514     CD =  0.04079   =>   CDf =  0.00628    CDp =  0.03451

 Side 1  free  transition at x/c =  0.4618   44
 Side 2  free  transition at x/c =  0.1039   23

   2   rms: 0.7311E-01   max: -.7028E+00   T at   23  2   RLX: 0.711
       a = -0.500      CL =  0.8951
      Cm = -0.1546     CD =  0.04043   =>   CDf =  0.00648    CDp =  0.03395

 Side 1  free  transition at x/c =  0.4587   43
 Side 2  free  transition at x/c =  0.1059   23

   3   rms: 0.5331E-01   max: -.3388E+00   D at   23  2
       a = -0.500      CL =  0.9190
      Cm = -0.1583     CD =  0.04025   =>   CDf =  0.00665    CDp =  0.03360

 Side 1  free  transition at x/c =  0.4561   43
 Side 2  free  transition at x/c =  0.1078   23

   4   rms: 0.1869E+00   max: 0.8430E+00   T at   24  2
       a = -0.500      CL =  0.9991
      Cm = -0.1751     CD =  0.04496   =>   CDf =  0.00668    CDp =  0.03828

 Side 1  free  transition at x/c =  0.4516   43
 Side 2  free  transition at x/c =  0.1064   23

   5   rms: 0.1490E+01   max: 0.6907E+01   D at   46  2   RLX: 0.217
       a = -0.500      CL =  0.9880
      Cm = -0.1712     CD =  0.03286   =>   CDf =  0.00802    CDp =  0.02484

 Side 1  free  transition at x/c =  0.4518   43
 Side 2  free  transition at x/c =  0.1061   23

   6   rms: 0.4661E+00   max: 0.2027E+01   D at   46  2   RLX: 0.740
       a = -0.500      CL =  0.9584
      Cm = -0.1666     CD =  0.04030   =>   CDf =  0.00747    CDp =  0.03283

 Side 1  free  transition at x/c =  0.4535   43
 Side 2  free  transition at x/c =  0.1171   24

   7   rms: 0.5173E+00   max: 0.3186E+01   D at   51  2   RLX: 0.471
       a = -0.500      CL =  0.9701
      Cm = -0.1677     CD =  0.03521   =>   CDf =  0.00754    CDp =  0.02767

 MRCHDU: Convergence failed at  51  side 2    Res =  0.3202E+01
 MRCHDU: Convergence failed at  52  side 2    Res =  0.3117E+01
 MRCHDU: Convergence failed at  53  side 2    Res =  0.2612E+01
 MRCHDU: Convergence failed at  54  side 2    Res =  0.2223E+01
 Side 1  free  transition at x/c =  0.4539   43
 Side 2  free  transition at x/c =  0.1117   24

   8   rms: 0.1778E+00   max: 0.1174E+01   D at   50  2
       a = -0.500      CL =  0.9283
      Cm = -0.1619     CD =  0.04067   =>   CDf =  0.00697    CDp =  0.03370

 Side 1  free  transition at x/c =  0.4555   43
 Side 2  free  transition at x/c =  0.1082   24

   9   rms: 0.7173E-01   max: -.3533E+00   D at   24  2
       a = -0.500      CL =  0.9198
      Cm = -0.1586     CD =  0.03962   =>   CDf =  0.00666    CDp =  0.03297

 Side 1  free  transition at x/c =  0.4563   43
 Side 2  free  transition at x/c =  0.1086   24

  10   rms: 0.2462E-01   max: -.1542E+00   T at   24  2
       a = -0.500      CL =  0.9222
      Cm = -0.1595     CD =  0.03971   =>   CDf =  0.00672    CDp =  0.03299

 Side 1  free  transition at x/c =  0.4562   43
 Side 2  free  transition at x/c =  0.1090   24

  11   rms: 0.7805E-02   max: -.3300E-01   D at   24  2
       a = -0.500      CL =  0.9230
      Cm = -0.1597     CD =  0.03985   =>   CDf =  0.00672    CDp =  0.03313

 Side 1  free  transition at x/c =  0.4562   43
 Side 2  free  transition at x/c =  0.1090   24

  12   rms: 0.7253E-03   max: -.4607E-02   T at   24  2
       a = -0.500      CL =  0.9233
      Cm = -0.1597     CD =  0.03991   =>   CDf =  0.00673    CDp =  0.03318

 Side 1  free  transition at x/c =  0.4561   43
 Side 2  free  transition at x/c =  0.1091   24

  13   rms: 0.3034E-04   max: -.1836E-03   T at   24  2
       a = -0.500      CL =  0.9233
      Cm = -0.1597     CD =  0.03991   =>   CDf =  0.00673    CDp =  0.03319
 plradd ia,ip,cpol            8           0  0.17727031    

 Point added to stored polar  1
 Point written to save file  goe462_Re150k.base.pol                          
 Dump file unspecified or not available
 Calculating wake trajectory ...
 Calculating source influence matrix ...

 Solving BL system ...

 Side 1  free  transition at x/c =  0.4561   43
 Side 2  free  transition at x/c =  0.1091   24

   1   rms: 0.1285E+00   max: -.1065E+01   T at   24  2   RLX: 0.470
       a =  0.000      CL =  0.9397
      Cm = -0.1592     CD =  0.03806   =>   CDf =  0.00674    CDp =  0.03132

 Side 1  free  transition at x/c =  0.4487   43
 Side 2  free  transition at x/c =  0.1099   24

   2   rms: 0.9339E-01   max: -.6032E+00   T at   24  2   RLX: 0.829
       a =  0.000      CL =  0.9656
      Cm = -0.1605     CD =  0.03726   =>   CDf =  0.00660    CDp =  0.03067

 Side 1  free  transition at x/c =  0.4441   44
 Side 2  free  transition at x/c =  0.1125   23

   3   rms: 0.5629E-01   max: -.3225E+00   D at   23  2
       a =  0.000      CL =  0.9819
      Cm = -0.1629     CD =  0.03688   =>   CDf =  0.00686    CDp =  0.03002

 Side 1  free  transition at x/c =  0.4435   44
 Side 2  free  transition at x/c =  0.1150   23

   4   rms: 0.1229E-01   max: -.1313E+00   T at   23  2
       a =  0.000      CL =  0.9877
      Cm = -0.1642     CD =  0.03729   =>   CDf =  0.00698    CDp =  0.03031

 Side 1  free  transition at x/c =  0.4432   44
 Side 2  free  transition at x/c =  0.1162   23

   5   rms: 0.4133E-02   max: -.3518E-01   T at   23  2
       a =  0.000      CL =  0.9889
      Cm = -0.1644     CD =  0.03740   =>   CDf =  0.00701    CDp =  0.03039

 Side 1  free  transition at x/c =  0.4432   44
 Side 2  free  transition at x/c =  0.1165   23

   6   rms: 0.6405E-03   max: -.6028E-02   T at   23  2
       a =  0.000      CL =  0.9892
      Cm = -0.1645     CD =  0.03744   =>   CDf =  0.00703    CDp =  0.03042

 Side 1  free  transition at x/c =  0.4432   44
 Side 2  free  transition at x/c =  0.1165   23

   7   rms: 0.4982E-04   max: -.4856E-03   T at   23  2
       a =  0.000      CL =  0.9892
      Cm = -0.1645     CD =  0.03745   =>   CDf =  0.00703    CDp =  0.03042
 plradd ia,ip,cpol            9           0  0.16371024    

 Point added to stored polar  1
 Point written to save file  goe462_Re150k.base.pol                          
 Dump file unspecified or not available
 Calculating wake trajectory ...
 Calculating source influence matrix ...

 Solving BL system ...

 Side 1  free  transition at x/c =  0.4432   44
 Side 2  free  transition at x/c =  0.1165   23

   1   rms: 0.1932E+00   max: -.2578E+01   T at   23  2   RLX: 0.194
       a =  0.500      CL =  1.0108
      Cm = -0.1671     CD =  0.03727   =>   CDf =  0.00704    CDp =  0.03023

 Side 1  free  transition at x/c =  0.4412   43
 Side 2  free  transition at x/c =  0.1158   23

   2   rms: 0.7332E-01   max: -.4471E+00   D at   23  2
       a =  0.500      CL =  1.0634
      Cm = -0.1707     CD =  0.03581   =>   CDf =  0.00713    CDp =  0.02868

 Side 1  free  transition at x/c =  0.4270   43
 Side 2  free  transition at x/c =  0.1199   24

   3   rms: 0.9638E-01   max: -.7348E+00   T at   24  2   RLX: 0.680
       a =  0.500      CL =  1.0579
      Cm = -0.1699     CD =  0.03515   =>   CDf =  0.00739    CDp =  0.02776

 Side 1  free  transition at x/c =  0.4293   43
 Side 2  free  transition at x/c =  0.1208   24

   4   rms: 0.6817E-01   max: -.3090E+00   D at   24  2
       a =  0.500      CL =  1.0602
      Cm = -0.1702     CD =  0.03471   =>   CDf =  0.00716    CDp =  0.02754

 Side 1  free  transition at x/c =  0.4304   43
 Side 2  free  transition at x/c =  0.1223   24

   5   rms: 0.1883E-01   max: -.1140E+00   T at   24  2
       a =  0.500      CL =  1.0630
      Cm = -0.1707     CD =  0.03512   =>   CDf =  0.00721    CDp =  0.02791

 Side 1  free  transition at x/c =  0.4302   43
 Side 2  free  transition at x/c =  0.1232   24

   6   rms: 0.3006E-02   max: -.1868E-01   T at   24  2
       a =  0.500      CL =  1.0635
      Cm = -0.1708     CD =  0.03524   =>   CDf =  0.00724    CDp =  0.02799

 Side 1  free  transition at x/c =  0.4302   43
 Side 2  free  transition at x/c =  0.1234   24

   7   rms: 0.1843E-03   max: -.1423E-02   T at   24  2
       a =  0.500      CL =  1.0636
      Cm = -0.1708     CD =  0.03525   =>   CDf =  0.00725    CDp =  0.02800

 Side 1  free  transition at x/c =  0.4302   43
 Side 2  free  transition at x/c =  0.1234   24

   8   rms: 0.4704E-05   max: -.3312E-04   D at   57  2
       a =  0.500      CL =  1.0636
      Cm = -0.1708     CD =  0.03525   =>   CDf =  0.00725    CDp =  0.02801
 plradd ia,ip,cpol           10           0  0.16371024    

 Point added to stored polar  1
 Point written to save file  goe462_Re150k.base.pol                          
 Dump file unspecified or not available
 Calculating wake trajectory ...
 Calculating source influence matrix ...

 Solving BL system ...

 Side 1  free  transition at x/c =  0.4302   43
 Side 2  free  transition at x/c =  0.1234   24

   1   rms: 0.1169E+00   max: -.1785E+01   T at   24  2   RLX: 0.280
       a =  1.000      CL =  1.0803
      Cm = -0.1716     CD =  0.03479   =>   CDf =  0.00717    CDp =  0.02762

 Side 1  free  transition at x/c =  0.4275   44
 Side 2  free  transition at x/c =  0.1265   23

   2   rms: 0.1129E+00   max: -.1452E+01   T at   23  2   RLX: 0.344
       a =  1.000      CL =  1.0999
      Cm = -0.1731     CD =  0.03535   =>   CDf =  0.00734    CDp =  0.02801

 Side 1  free  transition at x/c =  0.4255   43
 Side 2  free  transition at x/c =  0.1264   23

   3   rms: 0.6439E-01   max: -.5079E+00   D at   23  2   RLX: 0.985
       a =  1.000      CL =  1.1357
      Cm = -0.1760     CD =  0.03392   =>   CDf =  0.00745    CDp =  0.02646

 Side 1  free  transition at x/c =  0.4184   43
 Side 2  free  transition at x/c =  0.1452   25

   4   rms: 0.1016E+00   max: 0.1004E+01   T at   25  2
       a =  1.000      CL =  1.1559
      Cm = -0.1797     CD =  0.03425   =>   CDf =  0.00767    CDp =  0.02659

 Side 1  free  transition at x/c =  0.4188   43
 Side 2  free  transition at x/c =  0.1407   24

   5   rms: 0.8862E-01   max: 0.5053E+00   D at   25  2
       a =  1.000      CL =  1.1339
      Cm = -0.1754     CD =  0.03456   =>   CDf =  0.00771    CDp =  0.02685

 Side 1  free  transition at x/c =  0.4193   43
 Side 2  free  transition at x/c =  0.1317   24

   6   rms: 0.6485E-01   max: -.5700E+00   D at   24  2   RLX: 0.877
       a =  1.000      CL =  1.1348
      Cm = -0.1757     CD =  0.03372   =>   CDf =  0.00743    CDp =  0.02629

 Side 1  free  transition at x/c =  0.4194   43
 Side 2  free  transition at x/c =  0.1330   24

   7   rms: 0.2700E-01   max: -.2169E+00   D at   24  2
       a =  1.000      CL =  1.1383
      Cm = -0.1766     CD =  0.03344   =>   CDf =  0.00750    CDp =  0.02595

 Side 1  free  transition at x/c =  0.4193   43
 Side 2  free  transition at x/c =  0.1344   24

   8   rms: 0.7861E-02   max: -.4795E-01   D at   24  2
       a =  1.000      CL =  1.1392
      Cm = -0.1768     CD =  0.03353   =>   CDf =  0.00752    CDp =  0.02601

 Side 1  free  transition at x/c =  0.4192   43
 Side 2  free  transition at x/c =  0.1348   24

   9   rms: 0.5807E-03   max: -.4382E-02   T at   24  2
       a =  1.000      CL =  1.1393
      Cm = -0.1768     CD =  0.03357   =>   CDf =  0.00754    CDp =  0.02603

 Side 1  free  transition at x/c =  0.4192   43
 Side 2  free  transition at x/c =  0.1348   24

  10   rms: 0.1864E-04   max: -.1352E-03   D at   54  2
       a =  1.000      CL =  1.1393
      Cm = -0.1768     CD =  0.03357   =>   CDf =  0.00754    CDp =  0.02604
 plradd ia,ip,cpol           11           0  0.16371024    

 Point added to stored polar  1
 Point written to save file  goe462_Re150k.base.pol                          
 Dump file unspecified or not available
 Calculating wake trajectory ...
 Calculating source influence matrix ...

 Solving BL system ...

 Side 1  free  transition at x/c =  0.4192   43
 Side 2  free  transition at x/c =  0.1348   24

   1   rms: 0.1220E+00   max: -.1775E+01   T at   24  2   RLX: 0.282
       a =  1.500      CL =  1.1560
      Cm = -0.1775     CD =  0.03310   =>   CDf =  0.00755    CDp =  0.02555

 Side 1  free  transition at x/c =  0.4162   43
 Side 2  free  transition at x/c =  0.1392   24

   2   rms: 0.2029E+00   max: -.3125E+01   T at   24  2   RLX: 0.160
       a =  1.500      CL =  1.1655
      Cm = -0.1781     CD =  0.03427   =>   CDf =  0.00757    CDp =  0.02670

 Side 1  free  transition at x/c =  0.4150   43
 Side 2  free  transition at x/c =  0.1388   24

   3   rms: 0.8610E-01   max: -.8290E+00   T at   24  2   RLX: 0.603
       a =  1.500      CL =  1.1947
      Cm = -0.1803     CD =  0.03320   =>   CDf =  0.00755    CDp =  0.02565

 Side 1  free  transition at x/c =  0.4116   44
 Side 2  free  transition at x/c =  0.1398   23

   4   rms: 0.5131E-01   max: -.5331E+00   D at   23  2   RLX: 0.938
       a =  1.500      CL =  1.2155
      Cm = -0.1818     CD =  0.03319   =>   CDf =  0.00790    CDp =  0.02529

 Side 1  free  transition at x/c =  0.4100   43
 Side 2  free  transition at x/c =  0.2023   28

   5   rms: 0.1653E+01   max: -.1714E+02   T at   28  2   RLX: 0.029
       a =  1.500      CL =  1.2199
      Cm = -0.1834     CD =  0.03083   =>   CDf =  0.00826    CDp =  0.02257

 Side 1  free  transition at x/c =  0.4099   43
 Side 2  free  transition at x/c =  0.1995   28

   6   rms: 0.3967E+00   max: 0.4567E+01   T at   28  2   RLX: 0.328
       a =  1.500      CL =  1.2081
      Cm = -0.1809     CD =  0.03117   =>   CDf =  0.00836    CDp =  0.02281

 Side 1  free  transition at x/c =  0.4099   43
 Side 2  free  transition at x/c =  0.1633   25

   7   rms: 0.1001E+00   max: 0.1828E+01   T at   25  2   RLX: 0.820
       a =  1.500      CL =  1.2035
      Cm = -0.1801     CD =  0.03220   =>   CDf =  0.00800    CDp =  0.02420

 Side 1  free  transition at x/c =  0.4101   43
 Side 2  free  transition at x/c =  0.1501   24

   8   rms: 0.6704E-01   max: -.4568E+00   D at   27  2
       a =  1.500      CL =  1.2078
      Cm = -0.1806     CD =  0.03232   =>   CDf =  0.00785    CDp =  0.02448

 Side 1  free  transition at x/c =  0.4100   43
 Side 2  free  transition at x/c =  0.1522   24

   9   rms: 0.5879E-01   max: -.8047E+00   T at   24  2   RLX: 0.621
       a =  1.500      CL =  1.2156
      Cm = -0.1818     CD =  0.03303   =>   CDf =  0.00799    CDp =  0.02505

 Side 1  free  transition at x/c =  0.4098   43
 Side 2  free  transition at x/c =  0.1518   24

  10   rms: 0.2966E-01   max: -.3786E+00   D at   24  2
       a =  1.500      CL =  1.2133
      Cm = -0.1814     CD =  0.03307   =>   CDf =  0.00803    CDp =  0.02504

 Side 1  free  transition at x/c =  0.4098   43
 Side 2  free  transition at x/c =  0.1543   24

  11   rms: 0.1484E+00   max: -.9223E+00   T at   25  2   RLX: 0.542
       a =  1.500      CL =  1.2053
      Cm = -0.1807     CD =  0.03207   =>   CDf =  0.00799    CDp =  0.02408

 Side 1  free  transition at x/c =  0.4101   43
 Side 2  free  transition at x/c =  0.1506   24

  12   rms: 0.6992E-01   max: -.2938E+00   D at   25  2
       a =  1.500      CL =  1.2110
      Cm = -0.1813     CD =  0.03222   =>   CDf =  0.00784    CDp =  0.02438

 Side 1  free  transition at x/c =  0.4099   43
 Side 2  free  transition at x/c =  0.1536   24

  13   rms: 0.1753E+00   max: -.1285E+01   T at   25  2   RLX: 0.389
       a =  1.500      CL =  1.2054
      Cm = -0.1808     CD =  0.03200   =>   CDf =  0.00796    CDp =  0.02404

 Side 1  free  transition at x/c =  0.4101   43
 Side 2  free  transition at x/c =  0.1496   24

  14   rms: 0.7935E-01   max: -.3688E+00   D at   25  2
       a =  1.500      CL =  1.2092
      Cm = -0.1811     CD =  0.03202   =>   CDf =  0.00781    CDp =  0.02421

 Side 1  free  transition at x/c =  0.4099   43
 Side 2  free  transition at x/c =  0.1527   24

  15   rms: 0.1192E+00   max: -.1309E+01   T at   24  2   RLX: 0.382
       a =  1.500      CL =  1.2168
      Cm = -0.1820     CD =  0.03354   =>   CDf =  0.00796    CDp =  0.02558

 Side 1  free  transition at x/c =  0.4097   43
 Side 2  free  transition at x/c =  0.1515   24

  16   rms: 0.3731E-01   max: -.4118E+00   D at   24  2
       a =  1.500      CL =  1.2127
      Cm = -0.1813     CD =  0.03310   =>   CDf =  0.00804    CDp =  0.02506

 Side 1  free  transition at x/c =  0.4098   43
 Side 2  free  transition at x/c =  0.1540   24

  17   rms: 0.4745E+00   max: -.3189E+01   T at   25  2   RLX: 0.157
       a =  1.500      CL =  1.2041
      Cm = -0.1804     CD =  0.03220   =>   CDf =  0.00800    CDp =  0.02420

 Side 1  free  transition at x/c =  0.4102   43
 Side 2  free  transition at x/c =  0.1497   24

  18   rms: 0.7669E-01   max: -.3408E+00   D at   25  2
       a =  1.500      CL =  1.2094
      Cm = -0.1811     CD =  0.03209   =>   CDf =  0.00782    CDp =  0.02427

 Side 1  free  transition at x/c =  0.4099   43
 Side 2  free  transition at x/c =  0.1529   24

  19   rms: 0.3110E+00   max: -.3218E+01   T at   24  2   RLX: 0.155
       a =  1.500      CL =  1.2177
      Cm = -0.1820     CD =  0.03374   =>   CDf =  0.00796    CDp =  0.02577

 Side 1  free  transition at x/c =  0.4097   43
 Side 2  free  transition at x/c =  0.1516   24

  20   rms: 0.4029E-01   max: -.4100E+00   D at   24  2
       a =  1.500      CL =  1.2127
      Cm = -0.1813     CD =  0.03313   =>   CDf =  0.00805    CDp =  0.02507

 Side 1  free  transition at x/c =  0.4098   43
 Side 2  free  transition at x/c =  0.1540   24

  21   rms: 0.4990E+00   max: -.3355E+01   T at   25  2   RLX: 0.149
       a =  1.500      CL =  1.2041
      Cm = -0.1804     CD =  0.03219   =>   CDf =  0.00800    CDp =  0.02420

 Side 1  free  transition at x/c =  0.4102   43
 Side 2  free  transition at x/c =  0.1496   24

  22   rms: 0.7664E-01   max: -.3411E+00   D at   25  2
       a =  1.500      CL =  1.2094
      Cm = -0.1811     CD =  0.03209   =>   CDf =  0.00782    CDp =  0.02427

 Side 1  free  transition at x/c =  0.4099   43
 Side 2  free  transition at x/c =  0.1529   24

  23   rms: 0.2906E+00   max: -.3023E+01   T at   24  2   RLX: 0.165
       a =  1.500      CL =  1.2176
      Cm = -0.1820     CD =  0.03372   =>   CDf =  0.00796    CDp =  0.02576

 Side 1  free  transition at x/c =  0.4097   43
 Side 2  free  transition at x/c =  0.1516   24

  24   rms: 0.3998E-01   max: -.4097E+00   D at   24  2
       a =  1.500      CL =  1.2127
      Cm = -0.1813     CD =  0.03312   =>   CDf =  0.00805    CDp =  0.02507

 Side 1  free  transition at x/c =  0.4098   43
 Side 2  free  transition at x/c =  0.1540   24

  25   rms: 0.4857E+00   max: -.3264E+01   T at   25  2   RLX: 0.153
       a =  1.500      CL =  1.2041
      Cm = -0.1804     CD =  0.03219   =>   CDf =  0.00800    CDp =  0.02420

 Side 1  free  transition at x/c =  0.4102   43
 Side 2  free  transition at x/c =  0.1496   24

  26   rms: 0.7660E-01   max: -.3407E+00   D at   25  2
       a =  1.500      CL =  1.2094
      Cm = -0.1811     CD =  0.03209   =>   CDf =  0.00782    CDp =  0.02427

 Side 1  free  transition at x/c =  0.4099   43
 Side 2  free  transition at x/c =  0.1529   24

  27   rms: 0.3042E+00   max: -.3153E+01   T at   24  2   RLX: 0.159
       a =  1.500      CL =  1.2177
      Cm = -0.1820     CD =  0.03373   =>   CDf =  0.00796    CDp =  0.02577

 Side 1  free  transition at x/c =  0.4097   43
 Side 2  free  transition at x/c =  0.1516   24

  28   rms: 0.4022E-01   max: -.4100E+00   D at   24  2
       a =  1.500      CL =  1.2127
      Cm = -0.1813     CD =  0.03313   =>   CDf =  0.00805    CDp =  0.02507

 Side 1  free  transition at x/c =  0.4098   43
 Side 2  free  transition at x/c =  0.1540   24

  29   rms: 0.4920E+00   max: -.3307E+01   T at   25  2   RLX: 0.151
       a =  1.500      CL =  1.2041
      Cm = -0.1804     CD =  0.03219   =>   CDf =  0.00800    CDp =  0.02419

 Side 1  free  transition at x/c =  0.4102   43
 Side 2  free  transition at x/c =  0.1496   24

  30   rms: 0.7661E-01   max: -.3409E+00   D at   25  2
       a =  1.500      CL =  1.2094
      Cm = -0.1811     CD =  0.03209   =>   CDf =  0.00782    CDp =  0.02427

 Side 1  free  transition at x/c =  0.4099   43
 Side 2  free  transition at x/c =  0.1529   24

  31   rms: 0.2968E+00   max: -.3082E+01   T at   24  2   RLX: 0.162
       a =  1.500      CL =  1.2176
      Cm = -0.1820     CD =  0.03373   =>   CDf =  0.00796    CDp =  0.02576

 Side 1  free  transition at x/c =  0.4097   43
 Side 2  free  transition at x/c =  0.1516   24

  32   rms: 0.4009E-01   max: -.4098E+00   D at   24  2
       a =  1.500      CL =  1.2127
      Cm = -0.1813     CD =  0.03313   =>   CDf =  0.00805    CDp =  0.02507

 Side 1  free  transition at x/c =  0.4098   43
 Side 2  free  transition at x/c =  0.1540   24

  33   rms: 0.4905E+00   max: -.3297E+01   T at   25  2   RLX: 0.152
       a =  1.500      CL =  1.2041
      Cm = -0.1804     CD =  0.03219   =>   CDf =  0.00800    CDp =  0.02420

 Side 1  free  transition at x/c =  0.4102   43
 Side 2  free  transition at x/c =  0.1496   24

  34   rms: 0.7661E-01   max: -.3408E+00   D at   25  2
       a =  1.500      CL =  1.2094
      Cm = -0.1811     CD =  0.03209   =>   CDf =  0.00782    CDp =  0.02427

 Side 1  free  transition at x/c =  0.4099   43
 Side 2  free  transition at x/c =  0.1529   24

  35   rms: 0.2979E+00   max: -.3093E+01   T at   24  2   RLX: 0.162
       a =  1.500      CL =  1.2176
      Cm = -0.1820     CD =  0.03373   =>   CDf =  0.00796    CDp =  0.02577

 Side 1  free  transition at x/c =  0.4097   43
 Side 2  free  transition at x/c =  0.1516   24

  36   rms: 0.4010E-01   max: -.4098E+00   D at   24  2
       a =  1.500      CL =  1.2127
      Cm = -0.1813     CD =  0.03313   =>   CDf =  0.00805    CDp =  0.02507

 Side 1  free  transition at x/c =  0.4098   43
 Side 2  free  transition at x/c =  0.1540   24

  37   rms: 0.4872E+00   max: -.3274E+01   T at   25  2   RLX: 0.153
       a =  1.500      CL =  1.2041
      Cm = -0.1804     CD =  0.03219   =>   CDf =  0.00800    CDp =  0.02420

 Side 1  free  transition at x/c =  0.4102   43
 Side 2  free  transition at x/c =  0.1496   24

  38   rms: 0.7660E-01   max: -.3408E+00   D at   25  2
       a =  1.500      CL =  1.2094
      Cm = -0.1811     CD =  0.03209   =>   CDf =  0.00782    CDp =  0.02427

 Side 1  free  transition at x/c =  0.4099   43
 Side 2  free  transition at x/c =  0.1529   24

  39   rms: 0.3016E+00   max: -.3128E+01   T at   24  2   RLX: 0.160
       a =  1.500      CL =  1.2176
      Cm = -0.1820     CD =  0.03373   =>   CDf =  0.00796    CDp =  0.02577

 Side 1  free  transition at x/c =  0.4097   43
 Side 2  free  transition at x/c =  0.1516   24

  40   rms: 0.4016E-01   max: -.4099E+00   D at   24  2
       a =  1.500      CL =  1.2127
      Cm = -0.1813     CD =  0.03313   =>   CDf =  0.00805    CDp =  0.02507

 Side 1  free  transition at x/c =  0.4098   43
 Side 2  free  transition at x/c =  0.1540   24

  41   rms: 0.4983E+00   max: -.3350E+01   T at   25  2   RLX: 0.149
       a =  1.500      CL =  1.2041
      Cm = -0.1804     CD =  0.03219   =>   CDf =  0.00800    CDp =  0.02420

 Side 1  free  transition at x/c =  0.4102   43
 Side 2  free  transition at x/c =  0.1496   24

  42   rms: 0.7664E-01   max: -.3411E+00   D at   25  2
       a =  1.500      CL =  1.2094
      Cm = -0.1811     CD =  0.03209   =>   CDf =  0.00782    CDp =  0.02427

 Side 1  free  transition at x/c =  0.4099   43
 Side 2  free  transition at x/c =  0.1529   24

  43   rms: 0.2920E+00   max: -.3036E+01   T at   24  2   RLX: 0.165
       a =  1.500      CL =  1.2176
      Cm = -0.1820     CD =  0.03372   =>   CDf =  0.00796    CDp =  0.02576

 Side 1  free  transition at x/c =  0.4097   43
 Side 2  free  transition at x/c =  0.1516   24

  44   rms: 0.4002E-01   max: -.4098E+00   D at   24  2
       a =  1.500      CL =  1.2127
      Cm = -0.1813     CD =  0.03312   =>   CDf =  0.00805    CDp =  0.02507

 Side 1  free  transition at x/c =  0.4098   43
 Side 2  free  transition at x/c =  0.1540   24

  45   rms: 0.4825E+00   max: -.3243E+01   T at   25  2   RLX: 0.154
       a =  1.500      CL =  1.2041
      Cm = -0.1804     CD =  0.03219   =>   CDf =  0.00800    CDp =  0.02420

 Side 1  free  transition at x/c =  0.4102   43
 Side 2  free  transition at x/c =  0.1496   24

  46   rms: 0.7659E-01   max: -.3406E+00   D at   25  2
       a =  1.500      CL =  1.2094
      Cm = -0.1811     CD =  0.03209   =>   CDf =  0.00782    CDp =  0.02427

 Side 1  free  transition at x/c =  0.4099   43
 Side 2  free  transition at x/c =  0.1529   24

  47   rms: 0.3069E+00   max: -.3179E+01   T at   24  2   RLX: 0.157
       a =  1.500      CL =  1.2177
      Cm = -0.1820     CD =  0.03374   =>   CDf =  0.00796    CDp =  0.02577

 Side 1  free  transition at x/c =  0.4097   43
 Side 2  free  transition at x/c =  0.1516   24

  48   rms: 0.4026E-01   max: -.4100E+00   D at   24  2
       a =  1.500      CL =  1.2127
      Cm = -0.1813     CD =  0.03313   =>   CDf =  0.00805    CDp =  0.02507

 Side 1  free  transition at x/c =  0.4098   43
 Side 2  free  transition at x/c =  0.1540   24

  49   rms: 0.4954E+00   max: -.3331E+01   T at   25  2   RLX: 0.150
       a =  1.500      CL =  1.2041
      Cm = -0.1804     CD =  0.03219   =>   CDf =  0.00800    CDp =  0.02420

 Side 1  free  transition at x/c =  0.4102   43
 Side 2  free  transition at x/c =  0.1496   24

  50   rms: 0.7662E-01   max: -.3410E+00   D at   25  2
       a =  1.500      CL =  1.2094
      Cm = -0.1811     CD =  0.03209   =>   CDf =  0.00782    CDp =  0.02427

 Side 1  free  transition at x/c =  0.4099   43
 Side 2  free  transition at x/c =  0.1529   24

  51   rms: 0.2940E+00   max: -.3056E+01   T at   24  2   RLX: 0.164
       a =  1.500      CL =  1.2176
      Cm = -0.1820     CD =  0.03373   =>   CDf =  0.00796    CDp =  0.02576

 Side 1  free  transition at x/c =  0.4097   43
 Side 2  free  transition at x/c =  0.1516   24

  52   rms: 0.4005E-01   max: -.4098E+00   D at   24  2
       a =  1.500      CL =  1.2127
      Cm = -0.1813     CD =  0.03312   =>   CDf =  0.00805    CDp =  0.02507

 Side 1  free  transition at x/c =  0.4098   43
 Side 2  free  transition at x/c =  0.1540   24

  53   rms: 0.4873E+00   max: -.3275E+01   T at   25  2   RLX: 0.153
       a =  1.500      CL =  1.2041
      Cm = -0.1804     CD =  0.03219   =>   CDf =  0.00800    CDp =  0.02420

 Side 1  free  transition at x/c =  0.4102   43
 Side 2  free  transition at x/c =  0.1496   24

  54   rms: 0.7661E-01   max: -.3408E+00   D at   25  2
       a =  1.500      CL =  1.2094
      Cm = -0.1811     CD =  0.03209   =>   CDf =  0.00782    CDp =  0.02427

 Side 1  free  transition at x/c =  0.4099   43
 Side 2  free  transition at x/c =  0.1529   24

  55   rms: 0.3014E+00   max: -.3126E+01   T at   24  2   RLX: 0.160
       a =  1.500      CL =  1.2176
      Cm = -0.1820     CD =  0.03373   =>   CDf =  0.00796    CDp =  0.02577

 Side 1  free  transition at x/c =  0.4097   43
 Side 2  free  transition at x/c =  0.1516   24

  56   rms: 0.4015E-01   max: -.4099E+00   D at   24  2
       a =  1.500      CL =  1.2127
      Cm = -0.1813     CD =  0.03313   =>   CDf =  0.00805    CDp =  0.02507

 Side 1  free  transition at x/c =  0.4098   43
 Side 2  free  transition at x/c =  0.1540   24

  57   rms: 0.4890E+00   max: -.3287E+01   T at   25  2   RLX: 0.152
       a =  1.500      CL =  1.2041
      Cm = -0.1804     CD =  0.03219   =>   CDf =  0.00800    CDp =  0.02420

 Side 1  free  transition at x/c =  0.4102   43
 Side 2  free  transition at x/c =  0.1496   24

  58   rms: 0.7661E-01   max: -.3408E+00   D at   25  2
       a =  1.500      CL =  1.2094
      Cm = -0.1811     CD =  0.03209   =>   CDf =  0.00782    CDp =  0.02427

 Side 1  free  transition at x/c =  0.4099   43
 Side 2  free  transition at x/c =  0.1529   24

  59   rms: 0.3001E+00   max: -.3114E+01   T at   24  2   RLX: 0.161
       a =  1.500      CL =  1.2176
      Cm = -0.1820     CD =  0.03373   =>   CDf =  0.00796    CDp =  0.02577

 Side 1  free  transition at x/c =  0.4097   43
 Side 2  free  transition at x/c =  0.1516   24

  60   rms: 0.4014E-01   max: -.4099E+00   D at   24  2
       a =  1.500      CL =  1.2127
      Cm = -0.1813     CD =  0.03313   =>   CDf =  0.00805    CDp =  0.02507

 Side 1  free  transition at x/c =  0.4098   43
 Side 2  free  transition at x/c =  0.1540   24

  61   rms: 0.4921E+00   max: -.3308E+01   T at   25  2   RLX: 0.151
       a =  1.500      CL =  1.2041
      Cm = -0.1804     CD =  0.03219   =>   CDf =  0.00800    CDp =  0.02420

 Side 1  free  transition at x/c =  0.4102   43
 Side 2  free  transition at x/c =  0.1496   24

  62   rms: 0.7662E-01   max: -.3409E+00   D at   25  2
       a =  1.500      CL =  1.2094
      Cm = -0.1811     CD =  0.03209   =>   CDf =  0.00782    CDp =  0.02427

 Side 1  free  transition at x/c =  0.4099   43
 Side 2  free  transition at x/c =  0.1529   24

  63   rms: 0.2973E+00   max: -.3086E+01   T at   24  2   RLX: 0.162
       a =  1.500      CL =  1.2176
      Cm = -0.1820     CD =  0.03373   =>   CDf =  0.00796    CDp =  0.02577

 Side 1  free  transition at x/c =  0.4097   43
 Side 2  free  transition at x/c =  0.1516   24

  64   rms: 0.4011E-01   max: -.4099E+00   D at   24  2
       a =  1.500      CL =  1.2127
      Cm = -0.1813     CD =  0.03313   =>   CDf =  0.00805    CDp =  0.02507

 Side 1  free  transition at x/c =  0.4098   43
 Side 2  free  transition at x/c =  0.1540   24

  65   rms: 0.4907E+00   max: -.3298E+01   T at   25  2   RLX: 0.152
       a =  1.500      CL =  1.2041
      Cm = -0.1804     CD =  0.03219   =>   CDf =  0.00800    CDp =  0.02420

 Side 1  free  transition at x/c =  0.4102   43
 Side 2  free  transition at x/c =  0.1496   24

  66   rms: 0.7662E-01   max: -.3409E+00   D at   25  2
       a =  1.500      CL =  1.2094
      Cm = -0.1811     CD =  0.03209   =>   CDf =  0.00782    CDp =  0.02427

 Side 1  free  transition at x/c =  0.4099   43
 Side 2  free  transition at x/c =  0.1529   24

  67   rms: 0.2984E+00   max: -.3097E+01   T at   24  2   RLX: 0.161
       a =  1.500      CL =  1.2176
      Cm = -0.1820     CD =  0.03373   =>   CDf =  0.00796    CDp =  0.02577

 Side 1  free  transition at x/c =  0.4097   43
 Side 2  free  transition at x/c =  0.1516   24

  68   rms: 0.4011E-01   max: -.4099E+00   D at   24  2
       a =  1.500      CL =  1.2127
      Cm = -0.1813     CD =  0.03313   =>   CDf =  0.00805    CDp =  0.02507

 Side 1  free  transition at x/c =  0.4098   43
 Side 2  free  transition at x/c =  0.1540   24

  69   rms: 0.4918E+00   max: -.3306E+01   T at   25  2   RLX: 0.151
       a =  1.500      CL =  1.2041
      Cm = -0.1804     CD =  0.03219   =>   CDf =  0.00800    CDp =  0.02420

 Side 1  free  transition at x/c =  0.4102   43
 Side 2  free  transition at x/c =  0.1496   24

  70   rms: 0.7662E-01   max: -.3409E+00   D at   25  2
       a =  1.500      CL =  1.2094
      Cm = -0.1811     CD =  0.03209   =>   CDf =  0.00782    CDp =  0.02427

 Side 1  free  transition at x/c =  0.4099   43
 Side 2  free  transition at x/c =  0.1529   24

  71   rms: 0.2975E+00   max: -.3089E+01   T at   24  2   RLX: 0.162
       a =  1.500      CL =  1.2176
      Cm = -0.1820     CD =  0.03373   =>   CDf =  0.00796    CDp =  0.02577

 Side 1  free  transition at x/c =  0.4097   43
 Side 2  free  transition at x/c =  0.1516   24

  72   rms: 0.4010E-01   max: -.4099E+00   D at   24  2
       a =  1.500      CL =  1.2127
      Cm = -0.1813     CD =  0.03313   =>   CDf =  0.00805    CDp =  0.02507

 Side 1  free  transition at x/c =  0.4098   43
 Side 2  free  transition at x/c =  0.1540   24

  73   rms: 0.4874E+00   max: -.3276E+01   T at   25  2   RLX: 0.153
       a =  1.500      CL =  1.2041
      Cm = -0.1804     CD =  0.03219   =>   CDf =  0.00800    CDp =  0.02420

 Side 1  free  transition at x/c =  0.4102   43
 Side 2  free  transition at x/c =  0.1496   24

  74   rms: 0.7660E-01   max: -.3408E+00   D at   25  2
       a =  1.500      CL =  1.2094
      Cm = -0.1811     CD =  0.03209   =>   CDf =  0.00782    CDp =  0.02427

 Side 1  free  transition at x/c =  0.4099   43
 Side 2  free  transition at x/c =  0.1529   24

  75   rms: 0.3019E+00   max: -.3131E+01   T at   24  2   RLX: 0.160
       a =  1.500      CL =  1.2176
      Cm = -0.1820     CD =  0.03373   =>   CDf =  0.00796    CDp =  0.02577

 Side 1  free  transition at x/c =  0.4097   43
 Side 2  free  transition at x/c =  0.1516   24

  76   rms: 0.4018E-01   max: -.4099E+00   D at   24  2
       a =  1.500      CL =  1.2127
      Cm = -0.1813     CD =  0.03313   =>   CDf =  0.00805    CDp =  0.02507

 Side 1  free  transition at x/c =  0.4098   43
 Side 2  free  transition at x/c =  0.1540   24

  77   rms: 0.4993E+00   max: -.3357E+01   T at   25  2   RLX: 0.149
       a =  1.500      CL =  1.2041
      Cm = -0.1804     CD =  0.03219   =>   CDf =  0.00800    CDp =  0.02420

 Side 1  free  transition at x/c =  0.4102   43
 Side 2  free  transition at x/c =  0.1496   24

  78   rms: 0.7664E-01   max: -.3411E+00   D at   25  2
       a =  1.500      CL =  1.2094
      Cm = -0.1811     CD =  0.03209   =>   CDf =  0.00782    CDp =  0.02427

 Side 1  free  transition at x/c =  0.4099   43
 Side 2  free  transition at x/c =  0.1529   24

  79   rms: 0.2911E+00   max: -.3028E+01   T at   24  2   RLX: 0.165
       a =  1.500      CL =  1.2176
      Cm = -0.1820     CD =  0.03372   =>   CDf =  0.00796    CDp =  0.02576

 Side 1  free  transition at x/c =  0.4097   43
 Side 2  free  transition at x/c =  0.1516   24

  80   rms: 0.4001E-01   max: -.4098E+00   D at   24  2
       a =  1.500      CL =  1.2127
      Cm = -0.1813     CD =  0.03312   =>   CDf =  0.00805    CDp =  0.02507

 Side 1  free  transition at x/c =  0.4098   43
 Side 2  free  transition at x/c =  0.1540   24

  81   rms: 0.4868E+00   max: -.3272E+01   T at   25  2   RLX: 0.153
       a =  1.500      CL =  1.2041
      Cm = -0.1804     CD =  0.03219   =>   CDf =  0.00800    CDp =  0.02420

 Side 1  free  transition at x/c =  0.4102   43
 Side 2  free  transition at x/c =  0.1496   24

  82   rms: 0.7661E-01   max: -.3407E+00   D at   25  2
       a =  1.500      CL =  1.2094
      Cm = -0.1811     CD =  0.03209   =>   CDf =  0.00782    CDp =  0.02427

 Side 1  free  transition at x/c =  0.4099   43
 Side 2  free  transition at x/c =  0.1529   24

  83   rms: 0.3029E+00   max: -.3140E+01   T at   24  2   RLX: 0.159
       a =  1.500      CL =  1.2177
      Cm = -0.1820     CD =  0.03373   =>   CDf =  0.00796    CDp =  0.02577

 Side 1  free  transition at x/c =  0.4097   43
 Side 2  free  transition at x/c =  0.1516   24
[...]
       a = 11.250      CL =  1.5609
      Cm = -0.1783     CD =  1.17777   =>   CDf =  0.00413    CDp =  1.17364

 Side 1  free  transition at x/c =  0.2911   44
 Side 2  free  transition at x/c =  0.2493   24

 102   rms: 0.4568E+04   max: -.1936E+05   D at   45  1   RLX: 0.000
       a = 11.250      CL =  1.5590
      Cm = -0.1774     CD =  3.17376   =>   CDf =  0.00437    CDp =  3.16939

 Side 1  free  transition at x/c =  0.2910   44
 Side 2  free  transition at x/c =  0.2493   24

 103   rms: 0.3387E+04   max: -.1432E+05   D at   45  1   RLX: 0.000
       a = 11.250      CL =  1.5605
      Cm = -0.1775     CD =  3.18612   =>   CDf =  0.00438    CDp =  3.18174

 Side 1  free  transition at x/c =  0.2908   44
 Side 2  free  transition at x/c =  0.2493   24

 104   rms: 0.3381E+05   max: -.1428E+06   D at   45  1   RLX: 0.000
       a = 11.250      CL =  1.5606
      Cm = -0.1775     CD =  3.21367   =>   CDf =  0.00440    CDp =  3.20927

 Side 1  free  transition at x/c =  0.2908   44
 Side 2  free  transition at x/c =  0.2493   24

 105   rms: 0.1838E+04   max: 0.7770E+04   D at   45  1   RLX: 0.000
       a = 11.250      CL =  1.5577
      Cm = -0.1772     CD =  3.26890   =>   CDf =  0.00440    CDp =  3.26449

 Side 1  free  transition at x/c =  0.2911   44
 Side 2  free  transition at x/c =  0.2493   24

 106   rms: 0.2216E+04   max: 0.9340E+04   D at   45  1   RLX: 0.000
       a = 11.250      CL =  1.5554
      Cm = -0.1770     CD =  3.18316   =>   CDf =  0.00437    CDp =  3.17879

 Side 1  free  transition at x/c =  0.2914   44
 Side 2  free  transition at x/c =  0.2493   24

 107   rms: 0.1250E+04   max: -.5237E+04   D at   45  1   RLX: 0.000
       a = 11.250      CL =  1.5598
      Cm = -0.1775     CD =  3.01004   =>   CDf =  0.00435    CDp =  3.00569

 Side 1  free  transition at x/c =  0.2909   44
 Side 2  free  transition at x/c =  0.2493   24

 108   rms: 0.7453E+03   max: 0.3152E+04   D at   45  1   RLX: 0.000
       a = 11.250      CL =  1.5524
      Cm = -0.1766     CD =  3.29920   =>   CDf =  0.00439    CDp =  3.29481

 Side 1  free  transition at x/c =  0.2917   44
 Side 2  free  transition at x/c =  0.2492   24

 109   rms: 0.4965E+03   max: 0.2098E+04   T at   70  2   RLX: 0.000
       a = 11.250      CL =  1.5636
      Cm = -0.1779     CD =  2.95608   =>   CDf =  0.00432    CDp =  2.95176

 Side 1  free  transition at x/c =  0.2903   44
 Side 2  free  transition at x/c =  0.2493   24

 110   rms: 0.1198E+04   max: -.5089E+04   D at   45  1   RLX: 0.000
       a = 11.250      CL =  1.5674
      Cm = -0.1782     CD =  3.25648   =>   CDf =  0.00444    CDp =  3.25204

 Side 1  free  transition at x/c =  0.2897   44
 Side 2  free  transition at x/c =  0.2493   24

 111   rms: 0.3377E+04   max: -.1571E+05   D at   45  1   RLX: 0.000
       a = 11.250      CL =  1.5688
      Cm = -0.1783     CD =  3.48103   =>   CDf =  0.00449    CDp =  3.47654

 Side 1  free  transition at x/c =  0.2895   44
 Side 2  free  transition at x/c =  0.2493   24

 112   rms: 0.1216E+04   max: 0.5887E+04   D at   45  1   RLX: 0.000
       a = 11.250      CL =  1.5641
      Cm = -0.1777     CD =  3.64623   =>   CDf =  0.00451    CDp =  3.64172

 Side 1  free  transition at x/c =  0.2902   44
 Side 2  free  transition at x/c =  0.2493   24

 113   rms: 0.9526E+03   max: 0.4604E+04   T at   72  2   RLX: 0.000
       a = 11.250      CL =  1.5585
      Cm = -0.1771     CD =  3.45356   =>   CDf =  0.00445    CDp =  3.44911

 Side 1  free  transition at x/c =  0.2909   44
 Side 2  free  transition at x/c =  0.2493   24

 114   rms: 0.1191E+04   max: 0.1068E+05   T at   72  2   RLX: 0.000
       a = 11.250      CL =  1.5540
      Cm = -0.1767     CD =  3.10777   =>   CDf =  0.00439    CDp =  3.10338

 Side 1  free  transition at x/c =  0.2915   44
 Side 2  free  transition at x/c =  0.2492   24

 115   rms: 0.2200E+04   max: 0.9346E+04   D at   45  1   RLX: 0.000
       a = 11.250      CL =  1.5517
      Cm = -0.1765     CD =  2.71136   =>   CDf =  0.00434    CDp =  2.70702

 Side 1  free  transition at x/c =  0.2918   44
 Side 2  free  transition at x/c =  0.2492   24

 116   rms: 0.7373E+04   max: 0.3126E+05   D at   45  1   RLX: 0.000
       a = 11.250      CL =  1.5511
      Cm = -0.1765     CD =  2.68764   =>   CDf =  0.00432    CDp =  2.68333

 Side 1  free  transition at x/c =  0.2919   44
 Side 2  free  transition at x/c =  0.2492   24

 117   rms: 0.5930E+04   max: -.2509E+05   D at   45  1   RLX: 0.000
       a = 11.250      CL =  1.5521
      Cm = -0.1767     CD =  2.66820   =>   CDf =  0.00431    CDp =  2.66389

 Side 1  free  transition at x/c =  0.2917   44
 Side 2  free  transition at x/c =  0.2492   24

 118   rms: 0.1422E+05   max: -.6036E+05   D at   45  1   RLX: 0.000
       a = 11.250      CL =  1.5524
      Cm = -0.1767     CD =  2.67671   =>   CDf =  0.00432    CDp =  2.67239

 Side 1  free  transition at x/c =  0.2917   44
 Side 2  free  transition at x/c =  0.2492   24

 119   rms: 0.2476E+04   max: 0.1052E+05   D at   45  1   RLX: 0.000
       a = 11.250      CL =  1.5502
      Cm = -0.1764     CD =  2.70539   =>   CDf =  0.00432    CDp =  2.70107

 Side 1  free  transition at x/c =  0.2920   44
 Side 2  free  transition at x/c =  0.2492   24

 120   rms: 0.8971E+04   max: -.3781E+05   D at   45  1   RLX: 0.000
       a = 11.250      CL =  1.5509
      Cm = -0.1766     CD =  2.65274   =>   CDf =  0.00430    CDp =  2.64844

 Side 1  free  transition at x/c =  0.2919   44
 Side 2  free  transition at x/c =  0.2492   24

 121   rms: 0.8110E+04   max: -.3426E+05   D at   45  1   RLX: 0.000
       a = 11.250      CL =  1.5515
      Cm = -0.1766     CD =  2.65299   =>   CDf =  0.00431    CDp =  2.64868

 Side 1  free  transition at x/c =  0.2918   44
 Side 2  free  transition at x/c =  0.2492   24

 122   rms: 0.1777E+05   max: -.7512E+05   D at   45  1   RLX: 0.000
       a = 11.250      CL =  1.5518
      Cm = -0.1766     CD =  2.65799   =>   CDf =  0.00431    CDp =  2.65367

 Side 1  free  transition at x/c =  0.2918   44
 Side 2  free  transition at x/c =  0.2492   24

 123   rms: 0.7332E+03   max: -.3098E+04   D at   45  1   RLX: 0.000
       a = 11.250      CL =  1.5592
      Cm = -0.1774     CD =  2.59747   =>   CDf =  0.00431    CDp =  2.59315

 Side 1  free  transition at x/c =  0.2908   44
 Side 2  free  transition at x/c =  0.2493   24

 124   rms: 0.2741E+03   max: -.4460E+04   T at   72  2   RLX: 0.000
       a = 11.250      CL =  1.5723
      Cm = -0.1787     CD =  2.43850   =>   CDf =  0.00439    CDp =  2.43410

 Side 1  free  transition at x/c =  0.2890   44
 Side 2  free  transition at x/c =  0.2493   24

 125   rms: 0.1142E+04   max: -.2417E+05   T at   72  2   RLX: 0.000
       a = 11.250      CL =  1.5790
      Cm = -0.1793     CD =  7.08723   =>   CDf =  0.00455    CDp =  7.08268

 Side 1  free  transition at x/c =  0.2879   44
 Side 2  free  transition at x/c =  0.2494   24

 126   rms: 0.2054E+06   max: 0.1050E+07   D at   45  1   RLX: 0.000
       a = 11.250      CL =  1.5789
      Cm = -0.1792     CD = 20.77710   =>   CDf =  0.00466    CDp = 20.77244

 Side 1  free  transition at x/c =  0.2879   44
 Side 2  free  transition at x/c =  0.2494   24

 127   rms: 0.1801E+05   max: 0.9087E+05   D at   45  1   RLX: 0.000
       a = 11.250      CL =  1.5786
      Cm = -0.1791     CD = 20.79779   =>   CDf =  0.00466    CDp = 20.79313

 Side 1  free  transition at x/c =  0.2880   44
 Side 2  free  transition at x/c =  0.2494   24

 128   rms: 0.1689E+05   max: 0.8637E+05   D at   45  1   RLX: 0.000
       a = 11.250      CL =  1.5783
      Cm = -0.1791     CD = 20.67984   =>   CDf =  0.00465    CDp = 20.67518

 Side 1  free  transition at x/c =  0.2880   44
 Side 2  free  transition at x/c =  0.2494   24

 129   rms: 0.4144E+05   max: 0.2092E+06   D at   45  1   RLX: 0.000
       a = 11.250      CL =  1.5782
      Cm = -0.1791     CD = 20.61957   =>   CDf =  0.00465    CDp = 20.61492

 Side 1  free  transition at x/c =  0.2881   44
 Side 2  free  transition at x/c =  0.2494   24

 130   rms: 0.2337E+05   max: 0.1302E+06   T at   72  2   RLX: 0.000
       a = 11.250      CL =  1.5784
      Cm = -0.1791     CD = 20.59964   =>   CDf =  0.00465    CDp = 20.59499

 Side 1  free  transition at x/c =  0.2880   44
 Side 2  free  transition at x/c =  0.2494   24

 131   rms: 0.4010E+07   max: -.2044E+08   D at   45  1   RLX: 0.000
       a = 11.250      CL =  1.5784
      Cm = -0.1791     CD = 20.57314   =>   CDf =  0.00465    CDp = 20.56849

 Side 1  free  transition at x/c =  0.2880   44
 Side 2  free  transition at x/c =  0.2494   24

 132   rms: 0.1442E+06   max: -.7349E+06   D at   45  1   RLX: 0.000
       a = 11.250      CL =  1.5784
      Cm = -0.1791     CD = 20.56985   =>   CDf =  0.00465    CDp = 20.56520

 Side 1  free  transition at x/c =  0.2880   44
 Side 2  free  transition at x/c =  0.2494   24

 133   rms: 0.2163E+06   max: -.1103E+07   D at   45  1   RLX: 0.000
       a = 11.250      CL =  1.5785
      Cm = -0.1791     CD = 20.57748   =>   CDf =  0.00465    CDp = 20.57283

 Side 1  free  transition at x/c =  0.2880   44
 Side 2  free  transition at x/c =  0.2494   24

 134   rms: 0.6262E+05   max: 0.3195E+06   D at   45  1   RLX: 0.000
       a = 11.250      CL =  1.5784
      Cm = -0.1791     CD = 20.59176   =>   CDf =  0.00465    CDp = 20.58711

 Side 1  free  transition at x/c =  0.2880   44
 Side 2  free  transition at x/c =  0.2494   24

 135   rms: 0.2083E+06   max: 0.1063E+07   D at   45  1   RLX: 0.000
       a = 11.250      CL =  1.5784
      Cm = -0.1791     CD = 20.58023   =>   CDf =  0.00465    CDp = 20.57558

 Side 1  free  transition at x/c =  0.2880   44
 Side 2  free  transition at x/c =  0.2494   24

 136   rms: 0.2371E+05   max: -.1205E+06   D at   45  1   RLX: 0.000
       a = 11.250      CL =  1.5786
      Cm = -0.1791     CD = 20.55300   =>   CDf =  0.00465    CDp = 20.54835

 Side 1  free  transition at x/c =  0.2880   44
 Side 2  free  transition at x/c =  0.2494   24

 137   rms: 0.2412E+05   max: -.1226E+06   D at   45  1   RLX: 0.000
       a = 11.250      CL =  1.5788
      Cm = -0.1792     CD = 20.55453   =>   CDf =  0.00465    CDp = 20.54988

 Side 1  free  transition at x/c =  0.2880   44
 Side 2  free  transition at x/c =  0.2494   24

 138   rms: 0.3320E+05   max: -.1697E+06   D at   45  1   RLX: 0.000
       a = 11.250      CL =  1.5789
      Cm = -0.1792     CD = 20.62110   =>   CDf =  0.00466    CDp = 20.61644

 Side 1  free  transition at x/c =  0.2879   44
 Side 2  free  transition at x/c =  0.2494   24

 139   rms: 0.4243E+05   max: 0.2170E+06   D at   45  1   RLX: 0.000
       a = 11.250      CL =  1.5788
      Cm = -0.1792     CD = 20.68297   =>   CDf =  0.00466    CDp = 20.67831

 Side 1  free  transition at x/c =  0.2879   44
 Side 2  free  transition at x/c =  0.2494   24

 140   rms: 0.1724E+05   max: -.8788E+05   D at   45  1   RLX: 0.000
       a = 11.250      CL =  1.5791
      Cm = -0.1792     CD = 20.63613   =>   CDf =  0.00466    CDp = 20.63147

 Side 1  free  transition at x/c =  0.2879   44
 Side 2  free  transition at x/c =  0.2494   24

 141   rms: 0.1259E+06   max: 0.6449E+06   D at   45  1   RLX: 0.000
       a = 11.250      CL =  1.5791
      Cm = -0.1792     CD = 20.75595   =>   CDf =  0.00466    CDp = 20.75129

 Side 1  free  transition at x/c =  0.2879   44
 Side 2  free  transition at x/c =  0.2494   24

 142   rms: 0.1472E+06   max: 0.7540E+06   D at   45  1   RLX: 0.000
       a = 11.250      CL =  1.5790
      Cm = -0.1792     CD = 20.74652   =>   CDf =  0.00466    CDp = 20.74186

 Side 1  free  transition at x/c =  0.2879   44
 Side 2  free  transition at x/c =  0.2494   24

 143   rms: 0.2990E+04   max: 0.2747E+05   T at   72  2   RLX: 0.000
       a = 11.250      CL =  1.5772
      Cm = -0.1790     CD = 20.91978   =>   CDf =  0.00466    CDp = 20.91512

 Side 1  free  transition at x/c =  0.2882   44
 Side 2  free  transition at x/c =  0.2494   24

 144   rms: 0.7920E+04   max: -.6538E+05   T at   72  2   RLX: 0.000
       a = 11.250      CL =  1.5766
      Cm = -0.1789     CD = 19.53826   =>   CDf =  0.00463    CDp = 19.53362

 Side 1  free  transition at x/c =  0.2883   44
 Side 2  free  transition at x/c =  0.2494   24

 145   rms: 0.7457E+04   max: 0.7895E+05   T at   72  2   RLX: 0.000
       a = 11.250      CL =  1.5774
      Cm = -0.1790     CD = 19.65727   =>   CDf =  0.00462    CDp = 19.65265

 Side 1  free  transition at x/c =  0.2882   44
 Side 2  free  transition at x/c =  0.2494   24

 146   rms: 0.1027E+06   max: -.5189E+06   D at   45  1   RLX: 0.000
       a = 11.250      CL =  1.5774
      Cm = -0.1790     CD = 19.32776   =>   CDf =  0.00463    CDp = 19.32313

 Side 1  free  transition at x/c =  0.2882   44
 Side 2  free  transition at x/c =  0.2494   24

 147   rms: 0.1060E+05   max: 0.5344E+05   D at   45  1   RLX: 0.000
       a = 11.250      CL =  1.5769
      Cm = -0.1790     CD = 19.38768   =>   CDf =  0.00463    CDp = 19.38305

 Side 1  free  transition at x/c =  0.2883   44
 Side 2  free  transition at x/c =  0.2494   24

 148   rms: 0.4557E+05   max: 0.2293E+06   D at   45  1   RLX: 0.000
       a = 11.250      CL =  1.5768
      Cm = -0.1790     CD = 19.23458   =>   CDf =  0.00462    CDp = 19.22995

 Side 1  free  transition at x/c =  0.2883   44
 Side 2  free  transition at x/c =  0.2494   24

 149   rms: 0.1297E+05   max: -.6455E+05   D at   45  1   RLX: 0.000
       a = 11.250      CL =  1.5772
      Cm = -0.1790     CD = 19.17482   =>   CDf =  0.00462    CDp = 19.17019

 Side 1  free  transition at x/c =  0.2882   44
 Side 2  free  transition at x/c =  0.2494   24

 150   rms: 0.1031E+05   max: 0.5187E+05   D at   45  1   RLX: 0.000
       a = 11.250      CL =  1.5767
      Cm = -0.1790     CD = 19.22523   =>   CDf =  0.00463    CDp = 19.22060

 Side 1  free  transition at x/c =  0.2883   44
 Side 2  free  transition at x/c =  0.2494   24

 151   rms: 0.6909E+05   max: 0.3465E+06   D at   45  1   RLX: 0.000
       a = 11.250      CL =  1.5766
      Cm = -0.1790     CD = 19.18715   =>   CDf =  0.00462    CDp = 19.18253

 Side 1  free  transition at x/c =  0.2883   44
 Side 2  free  transition at x/c =  0.2494   24

 152   rms: 0.8288E+04   max: -.8640E+05   T at   72  2   RLX: 0.000
       a = 11.250      CL =  1.5760
      Cm = -0.1789     CD = 19.24372   =>   CDf =  0.00462    CDp = 19.23910

 Side 1  free  transition at x/c =  0.2884   44
 Side 2  free  transition at x/c =  0.2494   24

 153   rms: 0.9222E+05   max: -.4617E+06   D at   45  1   RLX: 0.000
       a = 11.250      CL =  1.5760
      Cm = -0.1789     CD = 19.52782   =>   CDf =  0.00461    CDp = 19.52322

 Side 1  free  transition at x/c =  0.2884   44
 Side 2  free  transition at x/c =  0.2494   24

 154   rms: 0.2680E+05   max: -.1342E+06   D at   45  1   RLX: 0.000
       a = 11.250      CL =  1.5762
      Cm = -0.1789     CD = 19.52181   =>   CDf =  0.00461    CDp = 19.51720

 Side 1  free  transition at x/c =  0.2884   44
 Side 2  free  transition at x/c =  0.2494   24

 155   rms: 0.3962E+04   max: 0.1981E+05   D at   45  1   RLX: 0.000
       a = 11.250      CL =  1.5749
      Cm = -0.1788     CD = 19.70787   =>   CDf =  0.00461    CDp = 19.70326
 VISCAL:  Convergence failed
 Calculating wake trajectory ...
 Calculating source influence matrix ...

 Solving BL system ...

 Side 1  free  transition at x/c =  0.2886   44
 Side 2  free  transition at x/c =  0.2493   24

   1   rms: 0.3719E+05   max: 0.1853E+06   D at   45  1   RLX: 0.000
       a = 11.500      CL =  1.5744
      Cm = -0.1788     CD = 19.51932   =>   CDf =  0.00460    CDp = 19.51472

 Side 1  free  transition at x/c =  0.2886   44
 Side 2  free  transition at x/c =  0.2493   24

   2   rms: 0.5249E+05   max: -.2615E+06   D at   45  1   RLX: 0.000
       a = 11.500      CL =  1.5745
      Cm = -0.1788     CD = 19.48737   =>   CDf =  0.00460    CDp = 19.48277

 Side 1  free  transition at x/c =  0.2886   44
 Side 2  free  transition at x/c =  0.2493   24

   3   rms: 0.1285E+05   max: 0.6409E+05   D at   45  1   RLX: 0.000
       a = 11.500      CL =  1.5741
      Cm = -0.1787     CD = 19.54410   =>   CDf =  0.00460    CDp = 19.53950

 Side 1  free  transition at x/c =  0.2887   44
 Side 2  free  transition at x/c =  0.2493   24

   4   rms: 0.1232E+05   max: -.9928E+05   T at   72  2   RLX: 0.000
       a = 11.500      CL =  1.5746
      Cm = -0.1788     CD = 19.43348   =>   CDf =  0.00459    CDp = 19.42888

 Side 1  free  transition at x/c =  0.2886   44
 Side 2  free  transition at x/c =  0.2493   24

   5   rms: 0.1863E+06   max: 0.9255E+06   D at   45  1   RLX: 0.000
       a = 11.500      CL =  1.5746
      Cm = -0.1788     CD = 19.74767   =>   CDf =  0.00460    CDp = 19.74307

 Side 1  free  transition at x/c =  0.2886   44
 Side 2  free  transition at x/c =  0.2493   24

   6   rms: 0.3994E+05   max: 0.1991E+06   D at   45  1   RLX: 0.000
       a = 11.500      CL =  1.5744
      Cm = -0.1788     CD = 19.75692   =>   CDf =  0.00460    CDp = 19.75232

 Side 1  free  transition at x/c =  0.2886   44
 Side 2  free  transition at x/c =  0.2493   24

   7   rms: 0.3995E+05   max: 0.1987E+06   D at   45  1   RLX: 0.000
       a = 11.500      CL =  1.5743
      Cm = -0.1788     CD = 19.74130   =>   CDf =  0.00460    CDp = 19.73671

 Side 1  free  transition at x/c =  0.2887   44
 Side 2  free  transition at x/c =  0.2493   24

   8   rms: 0.1849E+05   max: -.9099E+05   D at   45  1   RLX: 0.000
       a = 11.500      CL =  1.5746
      Cm = -0.1788     CD = 19.67560   =>   CDf =  0.00460    CDp = 19.67101

 Side 1  free  transition at x/c =  0.2886   44
 Side 2  free  transition at x/c =  0.2493   24

   9   rms: 0.3417E+05   max: -.1702E+06   D at   45  1   RLX: 0.000
       a = 11.500      CL =  1.5747
      Cm = -0.1788     CD = 19.65681   =>   CDf =  0.00460    CDp = 19.65221

 Side 1  free  transition at x/c =  0.2886   44
 Side 2  free  transition at x/c =  0.2493   24

  10   rms: 0.2478E+05   max: 0.1235E+06   D at   45  1   RLX: 0.000
       a = 11.500      CL =  1.5745
      Cm = -0.1788     CD = 19.71519   =>   CDf =  0.00460    CDp = 19.71059

 Side 1  free  transition at x/c =  0.2886   44
 Side 2  free  transition at x/c =  0.2493   24

  11   rms: 0.1299E+06   max: 0.6475E+06   D at   45  1   RLX: 0.000
       a = 11.500      CL =  1.5745
      Cm = -0.1788     CD = 19.68833   =>   CDf =  0.00460    CDp = 19.68373

 Side 1  free  transition at x/c =  0.2886   44
 Side 2  free  transition at x/c =  0.2493   24

  12   rms: 0.1697E+05   max: 0.8418E+05   D at   45  1   RLX: 0.000
       a = 11.500      CL =  1.5742
      Cm = -0.1788     CD = 19.70821   =>   CDf =  0.00460    CDp = 19.70362

 Side 1  free  transition at x/c =  0.2887   44
 Side 2  free  transition at x/c =  0.2493   24

  13   rms: 0.4596E+05   max: 0.2283E+06   D at   45  1   RLX: 0.000
       a = 11.500      CL =  1.5741
      Cm = -0.1787     CD = 19.69499   =>   CDf =  0.00459    CDp = 19.69040

 Side 1  free  transition at x/c =  0.2887   44
 Side 2  free  transition at x/c =  0.2493   24

  14   rms: 0.2262E+06   max: 0.1121E+07   D at   45  1   RLX: 0.000
       a = 11.500      CL =  1.5741
      Cm = -0.1787     CD = 19.66891   =>   CDf =  0.00459    CDp = 19.66432

 Side 1  free  transition at x/c =  0.2887   44
 Side 2  free  transition at x/c =  0.2493   24

  15   rms: 0.3026E+05   max: -.1493E+06   D at   45  1   RLX: 0.000
       a = 11.500      CL =  1.5742
      Cm = -0.1788     CD = 19.64938   =>   CDf =  0.00459    CDp = 19.64478

 Side 1  free  transition at x/c =  0.2887   44
 Side 2  free  transition at x/c =  0.2493   24

  16   rms: 0.6312E+05   max: -.3139E+06   D at   45  1   RLX: 0.000
       a = 11.500      CL =  1.5743
      Cm = -0.1788     CD = 19.71103   =>   CDf =  0.00459    CDp = 19.70643

 Side 1  free  transition at x/c =  0.2887   44
 Side 2  free  transition at x/c =  0.2493   24


[TIMEOUT]
