  
       XFOIL         Version 6.99
  
 Calculated polar for: GOE 478 AIRFOIL                                 
  
 1 1 Reynolds number fixed          Mach number fixed         
  
 xtrf =   1.000 (top)        1.000 (bottom)  
 Mach =   0.000     Re =     0.400 e 6     Ncrit =   9.000
  
   alpha    CL        CD       CDp       CM     Top_Xtr  Bot_Xtr
  ------ -------- --------- --------- -------- -------- --------
-4.000   0.0731   0.01327   0.00607  -0.1097   0.7909   0.0522
-3.500   0.1253   0.01261   0.00536  -0.1086   0.7822   0.0547
-3.000   0.1749   0.01197   0.00473  -0.1071   0.7734   0.0579
-2.500   0.2270   0.01149   0.00421  -0.1060   0.7640   0.0634
-2.000   0.2765   0.01100   0.00384  -0.1044   0.7534   0.0761
-1.500   0.3293   0.01064   0.00360  -0.1034   0.7432   0.1199
-1.000   0.3790   0.01035   0.00349  -0.1018   0.7305   0.1608
-0.500   0.4306   0.01021   0.00343  -0.1005   0.7169   0.2032
0.000   0.4812   0.00998   0.00331  -0.0991   0.7021   0.2494
0.500   0.5248   0.00928   0.00320  -0.0965   0.6838   0.4332
1.000   0.6009   0.00810   0.00347  -0.0998   0.6588   0.9487
1.500   0.6984   0.00829   0.00344  -0.1081   0.6199   0.9882
2.000   0.7717   0.00858   0.00340  -0.1117   0.5748   1.0000
2.500   0.8063   0.00900   0.00354  -0.1072   0.5433   1.0000
3.000   0.8436   0.00944   0.00378  -0.1033   0.5195   1.0000
3.500   0.8838   0.00983   0.00404  -0.1000   0.5025   1.0000
4.000   0.9247   0.01020   0.00433  -0.0969   0.4871   1.0000
4.500   0.9660   0.01060   0.00464  -0.0938   0.4734   1.0000
5.000   1.0072   0.01095   0.00495  -0.0908   0.4598   1.0000
5.500   1.0475   0.01126   0.00526  -0.0875   0.4451   1.0000
6.000   1.0857   0.01160   0.00558  -0.0839   0.4286   1.0000
6.500   1.1223   0.01197   0.00592  -0.0800   0.4114   1.0000
7.000   1.1553   0.01236   0.00629  -0.0755   0.3922   1.0000
7.500   1.1833   0.01282   0.00671  -0.0700   0.3707   1.0000
8.000   1.2116   0.01339   0.00724  -0.0649   0.3435   1.0000
8.500   1.2355   0.01423   0.00795  -0.0594   0.3074   1.0000
9.000   1.2537   0.01548   0.00899  -0.0534   0.2647   1.0000
9.500   1.2711   0.01701   0.01033  -0.0479   0.2276   1.0000
10.000   1.2900   0.01864   0.01185  -0.0430   0.1996   1.0000
10.250   1.2993   0.01954   0.01269  -0.0408   0.1880   1.0000
10.500   1.3099   0.02040   0.01352  -0.0388   0.1773   1.0000
10.750   1.3206   0.02128   0.01439  -0.0369   0.1673   1.0000
11.000   1.3292   0.02233   0.01540  -0.0349   0.1580   1.0000
11.250   1.3391   0.02333   0.01640  -0.0331   0.1487   1.0000
11.500   1.3485   0.02441   0.01747  -0.0314   0.1400   1.0000
11.750   1.3546   0.02574   0.01876  -0.0295   0.1314   1.0000
12.000   1.3635   0.02693   0.01996  -0.0280   0.1228   1.0000
12.250   1.3702   0.02832   0.02135  -0.0264   0.1155   1.0000
12.500   1.3752   0.02988   0.02288  -0.0248   0.1088   1.0000
12.750   1.3812   0.03140   0.02443  -0.0233   0.1028   1.0000
13.000   1.3857   0.03308   0.02611  -0.0219   0.0981   1.0000
13.250   1.3883   0.03497   0.02801  -0.0205   0.0943   1.0000
13.500   1.3953   0.03653   0.02964  -0.0194   0.0907   1.0000
13.750   1.3996   0.03836   0.03149  -0.0183   0.0882   1.0000
14.000   1.3994   0.04065   0.03378  -0.0171   0.0856   1.0000
14.250   1.4045   0.04250   0.03570  -0.0162   0.0836   1.0000
14.500   1.4105   0.04432   0.03759  -0.0154   0.0817   1.0000
14.750   1.4148   0.04634   0.03968  -0.0147   0.0801   1.0000
15.000   1.4173   0.04859   0.04197  -0.0140   0.0785   1.0000
15.250   1.4179   0.05105   0.04445  -0.0134   0.0770   1.0000
15.500   1.4176   0.05360   0.04702  -0.0127   0.0756   1.0000
15.750   1.4230   0.05571   0.04924  -0.0124   0.0746   1.0000
16.000   1.4278   0.05792   0.05153  -0.0121   0.0734   1.0000
16.250   1.4317   0.06026   0.05395  -0.0119   0.0720   1.0000
16.500   1.4348   0.06272   0.05646  -0.0119   0.0707   1.0000
16.750   1.4366   0.06533   0.05911  -0.0119   0.0693   1.0000
17.000   1.4373   0.06794   0.06171  -0.0116   0.0679   1.0000
17.250   1.4401   0.07049   0.06434  -0.0117   0.0667   1.0000
17.500   1.4432   0.07308   0.06704  -0.0119   0.0657   1.0000
17.750   1.4460   0.07569   0.06974  -0.0121   0.0647   1.0000
18.000   1.4483   0.07838   0.07249  -0.0124   0.0636   1.0000
18.250   1.4503   0.08109   0.07527  -0.0127   0.0626   1.0000
18.750   1.4547   0.08633   0.08055  -0.0132   0.0606   1.0000
19.250   1.4596   0.09148   0.08585  -0.0137   0.0588   1.0000
19.750   1.4591   0.09791   0.09250  -0.0154   0.0571   1.0000
20.250   1.4598   0.10414   0.09887  -0.0173   0.0552   1.0000
20.750   1.4667   0.10898   0.10370  -0.0183   0.0530   1.0000
21.250   1.4607   0.11645   0.11144  -0.0213   0.0515   1.0000
21.750   1.4536   0.12432   0.11955  -0.0249   0.0497   1.0000
22.250   1.4520   0.13118   0.12651  -0.0282   0.0479   1.0000
