
 ===================================================
  XFOIL Version 6.99
  Copyright (C) 2000   Mark Drela, Harold Youngren

  This software comes with ABSOLUTELY NO WARRANTY,
    subject to the GNU General Public License.

  Caveat computor
 ===================================================

 File  xfoil.def  not found

   QUIT    Exit program

  .OPER    Direct operating point(s)
  .MDES    Complex mapping design routine
  .QDES    Surface speed design routine
  .GDES    Geometry design routine

   SAVE f  Write airfoil to labeled coordinate file
   PSAV f  Write airfoil to plain coordinate file
   ISAV f  Write airfoil to ISES coordinate file
   MSAV f  Write airfoil to MSES coordinate file
   REVE    Reverse written-airfoil node ordering

   LOAD f  Read buffer airfoil from coordinate file
   NACA i  Set NACA 4,5-digit airfoil and buffer airfoil
   INTE    Set buffer airfoil by interpolating two airfoils
   NORM    Buffer airfoil normalization toggle
   XYCM rr Change CM reference location, currently  0.25000 0.00000

   BEND    Display structural properties of current airfoil

   PCOP    Set current-airfoil panel nodes directly from buffer airfoil points
   PANE    Set current-airfoil panel nodes ( 160 ) based on curvature
  .PPAR    Show/change paneling

  .PLOP    Plotting options

   WDEF f  Write  current-settings file
   RDEF f  Reread current-settings file
   NAME s  Specify new airfoil name
   NINC    Increment name version number

   Z       Zoom    | (available in all menus)
   U       Unzoom  | 

 XFOIL   c>  
 Labeled airfoil file.  Name:  GOE 496 AIRFOIL                                 

 Number of input coordinate points:  29
 Counterclockwise ordering
 Max thickness =     0.099514  at x =   0.300
 Max camber    =     0.049318  at x =   0.500

  LE  x,y  =  -0.00010   0.00136  |   Chord =   1.00010
  TE  x,y  =   1.00000   0.00000  |

 Current airfoil nodes set from buffer airfoil nodes (  29 )

 WARNING: Poor input coordinate distribution
          Excessive panel angle   74.7  at i =  15
          Repaneling with PANE and/or PPAR suggested
           (doing GDES,CADD before repaneling _may_
            improve excessively coarse LE spacing

 XFOIL   c>  
 XFOIL   c>  
 Sharp trailing edge

 Paneling parameters used...
   Number of panel nodes       160
   Panel bunching parameter    1.000
   TE/LE panel density ratio   0.150
   Refined-area/LE panel density ratio    0.200
   Top    side refined area x/c limits  1.000 1.000
   Bottom side refined area x/c limits  1.000 1.000

 XFOIL   c>  
.OPERi   c>  
 Xtr/c     =  1.0000    top    side
 Xtr/c     =  1.0000    bottom side
 Ncrit     =    9.00   ( 0.070 % turb. level )
 Vacc      =  0.0100

 Klag  =  5.6000     Uxwt  =    1.00
 A     =  6.7000     B     =  0.7500       KCt = 0.01485
 CtiniK=  1.8000     CtiniX=  3.3000

..VPAR   c>  
..VPAR   c>  
.OPERi   c>  
 M  =    0.0000
 Re =    400000

.OPERv   c>  
.OPERv   c>  
.OPERv   c>  
 Polar  1 newly created for accumulation
 Airfoil archived with polar: GOE 496 AIRFOIL                                 

Enter  polar save filename  OR  <return> for no file   s>  
 New polar save file available

Enter  polar dump filename  OR  <return> for no file   s>  
 Polar dump file will NOT be written

 Polar accumulation enabled

.OPERva   c>   Calculating unit vorticity distributions ...
 Calculating wake trajectory ...
 Calculating source influence matrix ...

 Solving BL system ...

 Initializing BL ...
    side            1  ...
 MRCHUE: Inverse mode at  54     Hk =   4.137
 MRCHUE: Inverse mode at  55     Hk =   4.694
 MRCHUE: Inverse mode at  56     Hk =   5.241
 MRCHUE: Inverse mode at  57     Hk =   5.779
 MRCHUE: Inverse mode at  58     Hk =   6.310
 MRCHUE: Inverse mode at  59     Hk =   6.836
 MRCHUE: Inverse mode at  60     Hk =   7.359
 MRCHUE: Inverse mode at  61     Hk =   7.881
 MRCHUE: Inverse mode at  62     Hk =   8.405
 MRCHUE: Inverse mode at  63     Hk =   7.512
 MRCHUE: Inverse mode at  64     Hk =   5.414
 MRCHUE: Inverse mode at  65     Hk =   4.026
 MRCHUE: Inverse mode at  66     Hk =   3.002
    side            2  ...
 MRCHUE: Inverse mode at  19     Hk =   4.143
 MRCHUE: Inverse mode at  20     Hk =   5.370
 MRCHUE: Inverse mode at  21     Hk =   6.701
 MRCHUE: Inverse mode at  22     Hk =   8.212
 MRCHUE: Inverse mode at  23     Hk =   9.838
 MRCHUE: Inverse mode at  24     Hk =   5.025
 MRCHUE: Inverse mode at  25     Hk =   2.500

 Side 1  free  transition at x/c =  0.8301   63
 Side 2  free  transition at x/c =  0.0634   24

   1   rms: 0.1622E+00   max: -.9525E+00   T at   63  1   RLX: 0.525
       a = -4.000      CL =  0.1845
      Cm = -0.1511     CD =  0.01134   =>   CDf =  0.00646    CDp =  0.00489

 Side 1  free  transition at x/c =  0.8548   65
 Side 2  free  transition at x/c =  0.0608   24

   2   rms: 0.6749E-01   max: -.6130E+00   T at   66  1   RLX: 0.816
       a = -4.000      CL =  0.1715
      Cm = -0.1464     CD =  0.01051   =>   CDf =  0.00650    CDp =  0.00401

 Side 1  free  transition at x/c =  0.8715   66
 Side 2  free  transition at x/c =  0.0582   23

   3   rms: 0.6555E-01   max: -.5172E+00   T at   66  1   RLX: 0.967
       a = -4.000      CL =  0.1850
      Cm = -0.1489     CD =  0.01017   =>   CDf =  0.00641    CDp =  0.00377

 Side 1  free  transition at x/c =  0.8870   67
 Side 2  free  transition at x/c =  0.0584   23

   4   rms: 0.2195E-01   max: -.3059E+00   D at   66  1
       a = -4.000      CL =  0.1817
      Cm = -0.1482     CD =  0.01049   =>   CDf =  0.00636    CDp =  0.00413

 Side 1  free  transition at x/c =  0.8884   67
 Side 2  free  transition at x/c =  0.0583   23

   5   rms: 0.1335E-01   max: 0.1218E+00   C at   67  1
       a = -4.000      CL =  0.1813
      Cm = -0.1482     CD =  0.01053   =>   CDf =  0.00626    CDp =  0.00428

 Side 1  free  transition at x/c =  0.8855   67
 Side 2  free  transition at x/c =  0.0582   23

   6   rms: 0.2282E-02   max: -.1943E-01   D at   76  1
       a = -4.000      CL =  0.1797
      Cm = -0.1479     CD =  0.01056   =>   CDf =  0.00629    CDp =  0.00427

 Side 1  free  transition at x/c =  0.8850   67
 Side 2  free  transition at x/c =  0.0582   23

   7   rms: 0.3208E-04   max: -.2679E-03   D at   67  1
       a = -4.000      CL =  0.1797
      Cm = -0.1479     CD =  0.01056   =>   CDf =  0.00630    CDp =  0.00426
 plradd ia,ip,cpol            1           0  1.18109258E-02

 Point added to stored polar  1
 Point written to save file  goe496_Re400k.base.pol                          
 Dump file unspecified or not available
 Calculating wake trajectory ...
 Calculating source influence matrix ...

 Solving BL system ...

 Side 1  free  transition at x/c =  0.8850   67
 Side 2  free  transition at x/c =  0.0582   23

   1   rms: 0.1031E+00   max: -.3054E+00   T at   23  2
       a = -3.500      CL =  0.2441
      Cm = -0.1492     CD =  0.00987   =>   CDf =  0.00634    CDp =  0.00352

 Side 1  free  transition at x/c =  0.8725   67
 Side 2  free  transition at x/c =  0.0643   23

   2   rms: 0.1780E-01   max: -.1686E+00   D at   67  1
       a = -3.500      CL =  0.2358
      Cm = -0.1477     CD =  0.00981   =>   CDf =  0.00638    CDp =  0.00344

 Side 1  free  transition at x/c =  0.8668   66
 Side 2  free  transition at x/c =  0.0652   23

   3   rms: 0.3126E-02   max: -.3374E-01   C at   66  1
       a = -3.500      CL =  0.2366
      Cm = -0.1478     CD =  0.00982   =>   CDf =  0.00642    CDp =  0.00341

 Side 1  free  transition at x/c =  0.8675   66
 Side 2  free  transition at x/c =  0.0652   23

   4   rms: 0.1178E-03   max: 0.1084E-02   D at   67  1
       a = -3.500      CL =  0.2366
      Cm = -0.1478     CD =  0.00982   =>   CDf =  0.00640    CDp =  0.00342

 Side 1  free  transition at x/c =  0.8675   66
 Side 2  free  transition at x/c =  0.0652   23

   5   rms: 0.9774E-06   max: -.6937E-05   D at    4  1
       a = -3.500      CL =  0.2366
      Cm = -0.1478     CD =  0.00982   =>   CDf =  0.00640    CDp =  0.00342
 plradd ia,ip,cpol            2           0  1.52109759E-02

 Point added to stored polar  1
 Point written to save file  goe496_Re400k.base.pol                          
 Dump file unspecified or not available
 Calculating wake trajectory ...
 Calculating source influence matrix ...

 Solving BL system ...

 Side 1  free  transition at x/c =  0.8675   66
 Side 2  free  transition at x/c =  0.0652   23

   1   rms: 0.9805E-01   max: -.4571E+00   T at   23  2
       a = -3.000      CL =  0.2871
      Cm = -0.1467     CD =  0.00932   =>   CDf =  0.00640    CDp =  0.00291

 Side 1  free  transition at x/c =  0.8436   65
 Side 2  free  transition at x/c =  0.0738   24

   2   rms: 0.7036E-01   max: -.5880E+00   D at   23  2   RLX: 0.850
       a = -3.000      CL =  0.2929
      Cm = -0.1475     CD =  0.00919   =>   CDf =  0.00656    CDp =  0.00263

 Side 1  free  transition at x/c =  0.8495   65
 Side 2  free  transition at x/c =  0.0983   26

   3   rms: 0.2207E-01   max: 0.2588E+00   C at   26  2
       a = -3.000      CL =  0.2928
      Cm = -0.1476     CD =  0.00939   =>   CDf =  0.00633    CDp =  0.00305

 Side 1  free  transition at x/c =  0.8492   65
 Side 2  free  transition at x/c =  0.0922   25

   4   rms: 0.6176E-02   max: -.6586E-01   D at   26  2
       a = -3.000      CL =  0.2928
      Cm = -0.1476     CD =  0.00935   =>   CDf =  0.00634    CDp =  0.00301

 Side 1  free  transition at x/c =  0.8492   65
 Side 2  free  transition at x/c =  0.0909   25

   5   rms: 0.1259E-03   max: 0.1673E-02   C at   25  2
       a = -3.000      CL =  0.2928
      Cm = -0.1476     CD =  0.00936   =>   CDf =  0.00635    CDp =  0.00301

 Side 1  free  transition at x/c =  0.8492   65
 Side 2  free  transition at x/c =  0.0909   25

   6   rms: 0.4167E-06   max: 0.3297E-05   C at   65  1
       a = -3.000      CL =  0.2928
      Cm = -0.1476     CD =  0.00936   =>   CDf =  0.00635    CDp =  0.00301
 plradd ia,ip,cpol            3           0  1.52109759E-02

 Point added to stored polar  1
 Point written to save file  goe496_Re400k.base.pol                          
 Dump file unspecified or not available
 Calculating wake trajectory ...
 Calculating source influence matrix ...

 Solving BL system ...

 Side 1  free  transition at x/c =  0.8492   65
 Side 2  free  transition at x/c =  0.0909   25

   1   rms: 0.1166E+00   max: 0.9825E+00   D at   25  2   RLX: 0.616
       a = -2.500      CL =  0.3255
      Cm = -0.1471     CD =  0.00925   =>   CDf =  0.00636    CDp =  0.00289

 MRCHDU: Convergence failed at  25  side 2    Res =  0.2009E+01
 MRCHDU: Convergence failed at  26  side 2    Res =  0.2092E+02
 MRCHDU: Convergence failed at  27  side 2    Res =  0.2524E+01
 MRCHDU: Convergence failed at  28  side 2    Res =  0.1928E+01
 MRCHDU: Convergence failed at  29  side 2    Res =  0.1827E+01
 MRCHDU: Convergence failed at  30  side 2    Res =  0.2111E+01
 MRCHDU: Convergence failed at  31  side 2    Res =  0.2058E+01
 MRCHDU: Convergence failed at  32  side 2    Res =  0.2313E+01
 MRCHDU: Convergence failed at  33  side 2    Res =  0.2642E+01
 MRCHDU: Convergence failed at  34  side 2    Res =  0.3084E+01
 MRCHDU: Convergence failed at  35  side 2    Res =  0.3589E+01
 MRCHDU: Convergence failed at  36  side 2    Res =  0.4231E+01
 MRCHDU: Convergence failed at  37  side 2    Res =  0.5033E+01
 MRCHDU: Convergence failed at  38  side 2    Res =  0.5963E+01
 MRCHDU: Convergence failed at  39  side 2    Res =  0.6810E+01
 MRCHDU: Convergence failed at  40  side 2    Res =  0.7711E+01
 MRCHDU: Convergence failed at  41  side 2    Res =  0.8693E+01
 MRCHDU: Convergence failed at  42  side 2    Res =  0.9866E+01
 MRCHDU: Convergence failed at  43  side 2    Res =  0.1123E+02
 MRCHDU: Convergence failed at  44  side 2    Res =  0.1327E+02
 MRCHDU: Convergence failed at  45  side 2    Res =  0.1586E+02
 MRCHDU: Convergence failed at  46  side 2    Res =  0.1967E+02
 MRCHDU: Convergence failed at  47  side 2    Res =  0.2510E+02
 MRCHDU: Convergence failed at  48  side 2    Res =  0.3194E+02
 MRCHDU: Convergence failed at  49  side 2    Res =  0.3949E+02
 MRCHDU: Convergence failed at  50  side 2    Res =  0.4778E+02
 MRCHDU: Convergence failed at  51  side 2    Res =  0.4604E+02
 MRCHDU: Convergence failed at  52  side 2    Res =  0.3832E+02
 MRCHDU: Convergence failed at  53  side 2    Res =  0.3280E+02
 MRCHDU: Convergence failed at  54  side 2    Res =  0.2889E+02
 MRCHDU: Convergence failed at  55  side 2    Res =  0.2649E+02
 MRCHDU: Convergence failed at  56  side 2    Res =  0.2596E+02
 MRCHDU: Convergence failed at  57  side 2    Res =  0.2837E+02
 MRCHDU: Convergence failed at  58  side 2    Res =  0.3467E+02
 MRCHDU: Convergence failed at  59  side 2    Res =  0.4825E+02
 MRCHDU: Convergence failed at  60  side 2    Res =  0.6907E+02
 MRCHDU: Convergence failed at  61  side 2    Res =  0.1089E+03
 MRCHDU: Convergence failed at  62  side 2    Res =  0.1442E+03
 MRCHDU: Convergence failed at  63  side 2    Res =  0.1138E+03
 MRCHDU: Convergence failed at  64  side 2    Res =  0.6581E+02
 MRCHDU: Convergence failed at  65  side 2    Res =  0.4250E+02
 MRCHDU: Convergence failed at  66  side 2    Res =  0.2944E+02
 MRCHDU: Convergence failed at  67  side 2    Res =  0.2304E+02
 MRCHDU: Convergence failed at  68  side 2    Res =  0.1917E+02
 MRCHDU: Convergence failed at  69  side 2    Res =  0.1685E+02
 MRCHDU: Convergence failed at  70  side 2    Res =  0.1617E+02
 MRCHDU: Convergence failed at  71  side 2    Res =  0.1601E+02
 MRCHDU: Convergence failed at  72  side 2    Res =  0.1614E+02
 MRCHDU: Convergence failed at  73  side 2    Res =  0.1629E+02
 MRCHDU: Convergence failed at  74  side 2    Res =  0.1630E+02
 MRCHDU: Convergence failed at  75  side 2    Res =  0.1579E+02
 MRCHDU: Convergence failed at  76  side 2    Res =  0.1479E+02
 MRCHDU: Convergence failed at  77  side 2    Res =  0.1327E+02
 MRCHDU: Convergence failed at  78  side 2    Res =  0.1213E+02
 MRCHDU: Convergence failed at  79  side 2    Res =  0.1094E+02
 MRCHDU: Convergence failed at  80  side 2    Res =  0.1004E+02
 MRCHDU: Convergence failed at  81  side 2    Res =  0.9141E+01
 MRCHDU: Convergence failed at  82  side 2    Res =  0.8489E+01
 MRCHDU: Convergence failed at  83  side 2    Res =  0.8071E+01
 MRCHDU: Convergence failed at  84  side 2    Res =  0.1482E+02
 Side 1  free  transition at x/c =  0.8357   65
 Side 2 forced transition at x/c =  1.0000   84

   2   rms: 0.4940E+00   max: -.2010E+01   C at   84  2   RLX: 0.249
       a = -2.500      CL = -0.2227
      Cm =  0.0424     CD =  0.00559   =>   CDf =  0.00776    CDp = -0.00217

 Side 1  free  transition at x/c =  0.8347   65
 Side 2 forced transition at x/c =  1.0000   84

   3   rms: 0.4183E+00   max: -.3376E+00   U at   84  2   RLX: 0.883
       a = -2.500      CL =  0.2825
      Cm = -0.1273     CD =  0.00597   =>   CDf =  0.00518    CDp =  0.00079

 Side 1  free  transition at x/c =  0.8322   65
 Side 2  free  transition at x/c =  0.2174   33

   4   rms: 0.1288E+00   max: -.1405E+01   D at   34  2   RLX: 0.356
       a = -2.500      CL =  0.2988
      Cm = -0.1362     CD =  0.00853   =>   CDf =  0.00631    CDp =  0.00222

 Side 1  free  transition at x/c =  0.8318   65
 Side 2  free  transition at x/c =  0.1739   30

   5   rms: 0.1212E+00   max: 0.1879E+01   C at   30  2   RLX: 0.589
       a = -2.500      CL =  0.3281
      Cm = -0.1428     CD =  0.00897   =>   CDf =  0.00637    CDp =  0.00259

 Side 1  free  transition at x/c =  0.8313   65
 Side 2  free  transition at x/c =  0.1436   28

   6   rms: 0.4617E-01   max: -.4467E+00   D at   28  2
       a = -2.500      CL =  0.3487
      Cm = -0.1472     CD =  0.00923   =>   CDf =  0.00640    CDp =  0.00283

 Side 1  free  transition at x/c =  0.8310   65
 Side 2  free  transition at x/c =  0.1321   27

   7   rms: 0.2426E-01   max: -.2740E+00   D at   28  2
       a = -2.500      CL =  0.3487
      Cm = -0.1473     CD =  0.00917   =>   CDf =  0.00637    CDp =  0.00280

 Side 1  free  transition at x/c =  0.8310   65
 Side 2  free  transition at x/c =  0.1321   27

   8   rms: 0.2339E-02   max: -.3277E-01   D at   28  2
       a = -2.500      CL =  0.3487
      Cm = -0.1473     CD =  0.00919   =>   CDf =  0.00637    CDp =  0.00283

 Side 1  free  transition at x/c =  0.8310   65
 Side 2  free  transition at x/c =  0.1317   27

   9   rms: 0.5298E-04   max: -.1160E-02   D at   28  2
       a = -2.500      CL =  0.3487
      Cm = -0.1473     CD =  0.00919   =>   CDf =  0.00637    CDp =  0.00282
 plradd ia,ip,cpol            4           0  1.52109759E-02

 Point added to stored polar  1
 Point written to save file  goe496_Re400k.base.pol                          
 Dump file unspecified or not available
 Calculating wake trajectory ...
 Calculating source influence matrix ...

 Solving BL system ...

 Side 1  free  transition at x/c =  0.8310   65
 Side 2  free  transition at x/c =  0.1317   27

   1   rms: 0.9856E-01   max: 0.6687E+00   D at   27  2   RLX: 0.864
       a = -2.000      CL =  0.3953
      Cm = -0.1468     CD =  0.00907   =>   CDf =  0.00639    CDp =  0.00268

 Side 1  free  transition at x/c =  0.8136   65
 Side 2  free  transition at x/c =  0.1472   27

   2   rms: 0.2294E-01   max: -.1364E+00   D at   65  1
       a = -2.000      CL =  0.4043
      Cm = -0.1469     CD =  0.00906   =>   CDf =  0.00649    CDp =  0.00257

 Side 1  free  transition at x/c =  0.8130   65
 Side 2  free  transition at x/c =  0.1505   27

   3   rms: 0.1780E-02   max: -.2345E-01   C at   27  2
       a = -2.000      CL =  0.4042
      Cm = -0.1469     CD =  0.00909   =>   CDf =  0.00645    CDp =  0.00264

 Side 1  free  transition at x/c =  0.8127   65
 Side 2  free  transition at x/c =  0.1506   27

   4   rms: 0.1700E-04   max: 0.2272E-03   C at   27  2
       a = -2.000      CL =  0.4042
      Cm = -0.1469     CD =  0.00909   =>   CDf =  0.00645    CDp =  0.00264
 plradd ia,ip,cpol            5           0  1.52109759E-02

 Point added to stored polar  1
 Point written to save file  goe496_Re400k.base.pol                          
 Dump file unspecified or not available
 Calculating wake trajectory ...
 Calculating source influence matrix ...

 Solving BL system ...

 Side 1  free  transition at x/c =  0.8127   65
 Side 2  free  transition at x/c =  0.1506   27

   1   rms: 0.8678E-01   max: -.4219E+00   T at   27  2
       a = -1.500      CL =  0.4590
      Cm = -0.1463     CD =  0.00906   =>   CDf =  0.00646    CDp =  0.00260

 Side 1  free  transition at x/c =  0.7944   65
 Side 2  free  transition at x/c =  0.1651   27

   2   rms: 0.2638E-01   max: -.2830E+00   D at   27  2
       a = -1.500      CL =  0.4595
      Cm = -0.1465     CD =  0.00898   =>   CDf =  0.00658    CDp =  0.00240

 Side 1  free  transition at x/c =  0.7951   65
 Side 2  free  transition at x/c =  0.1694   28

   3   rms: 0.8830E-02   max: -.1178E+00   D at   27  2
       a = -1.500      CL =  0.4594
      Cm = -0.1465     CD =  0.00894   =>   CDf =  0.00649    CDp =  0.00245

 Side 1  free  transition at x/c =  0.7946   65
 Side 2  free  transition at x/c =  0.1705   28

   4   rms: 0.1119E-02   max: 0.1424E-01   C at   28  2
       a = -1.500      CL =  0.4594
      Cm = -0.1465     CD =  0.00895   =>   CDf =  0.00647    CDp =  0.00248

 Side 1  free  transition at x/c =  0.7946   65
 Side 2  free  transition at x/c =  0.1701   28

   5   rms: 0.6038E-05   max: -.1211E-03   D at   29  2
       a = -1.500      CL =  0.4594
      Cm = -0.1465     CD =  0.00895   =>   CDf =  0.00647    CDp =  0.00247
 plradd ia,ip,cpol            6           0  1.93077568E-02

 Point added to stored polar  1
 Point written to save file  goe496_Re400k.base.pol                          
 Dump file unspecified or not available
 Calculating wake trajectory ...
 Calculating source influence matrix ...

 Solving BL system ...

 Side 1  free  transition at x/c =  0.7946   65
 Side 2  free  transition at x/c =  0.1701   28

   1   rms: 0.1036E+00   max: 0.5761E+00   D at   28  2   RLX: 0.995
       a = -1.000      CL =  0.5144
      Cm = -0.1462     CD =  0.00872   =>   CDf =  0.00648    CDp =  0.00225

 Side 1  free  transition at x/c =  0.7778   64
 Side 2  free  transition at x/c =  0.1838   29

   2   rms: 0.8629E-01   max: -.6034E+00   D at   28  2   RLX: 0.829
       a = -1.000      CL =  0.5144
      Cm = -0.1461     CD =  0.00862   =>   CDf =  0.00662    CDp =  0.00200

 Side 1  free  transition at x/c =  0.7769   64
 Side 2  free  transition at x/c =  0.2217   31

   3   rms: 0.1713E-01   max: 0.2756E+00   C at   31  2
       a = -1.000      CL =  0.5144
      Cm = -0.1461     CD =  0.00875   =>   CDf =  0.00636    CDp =  0.00240

 Side 1  free  transition at x/c =  0.7766   64
 Side 2  free  transition at x/c =  0.2166   31

   4   rms: 0.1183E-01   max: 0.2287E+00   C at   31  2
       a = -1.000      CL =  0.5144
      Cm = -0.1461     CD =  0.00876   =>   CDf =  0.00636    CDp =  0.00240

 Side 1  free  transition at x/c =  0.7766   64
 Side 2  free  transition at x/c =  0.2114   30

   5   rms: 0.6153E-03   max: -.1051E-01   D at   32  2
       a = -1.000      CL =  0.5144
      Cm = -0.1461     CD =  0.00876   =>   CDf =  0.00639    CDp =  0.00237

 Side 1  free  transition at x/c =  0.7766   64
 Side 2  free  transition at x/c =  0.2111   30

   6   rms: 0.2374E-05   max: -.3558E-04   D at   32  2
       a = -1.000      CL =  0.5144
      Cm = -0.1461     CD =  0.00876   =>   CDf =  0.00639    CDp =  0.00237
 plradd ia,ip,cpol            7           0  0.33398068    

 Point added to stored polar  1
 Point written to save file  goe496_Re400k.base.pol                          
 Dump file unspecified or not available
 Calculating wake trajectory ...
 Calculating source influence matrix ...

 Solving BL system ...

 Side 1  free  transition at x/c =  0.7766   64
 Side 2  free  transition at x/c =  0.2111   30

   1   rms: 0.1465E+00   max: -.2426E+01   C at   30  2   RLX: 0.206
       a = -0.500      CL =  0.5259
      Cm = -0.1461     CD =  0.00873   =>   CDf =  0.00639    CDp =  0.00234

 Side 1  free  transition at x/c =  0.7733   64
 Side 2  free  transition at x/c =  0.2295   32

   2   rms: 0.1659E+00   max: -.2538E+01   C at   32  2   RLX: 0.197
       a = -0.500      CL =  0.5349
      Cm = -0.1461     CD =  0.00869   =>   CDf =  0.00636    CDp =  0.00232

 Side 1  free  transition at x/c =  0.7711   64
 Side 2  free  transition at x/c =  0.2430   32

   3   rms: 0.1363E+00   max: -.1782E+01   C at   32  2   RLX: 0.281
       a = -0.500      CL =  0.5448
      Cm = -0.1460     CD =  0.00860   =>   CDf =  0.00635    CDp =  0.00225

 Side 1  free  transition at x/c =  0.7668   64
 Side 2  free  transition at x/c =  0.2579   33

   4   rms: 0.1077E+00   max: -.1211E+01   C at   33  2   RLX: 0.413
       a = -0.500      CL =  0.5549
      Cm = -0.1459     CD =  0.00854   =>   CDf =  0.00633    CDp =  0.00220

 Side 1  free  transition at x/c =  0.7627   64
 Side 2  free  transition at x/c =  0.2789   34

   5   rms: 0.7051E-01   max: -.1138E+01   C at   34  2   RLX: 0.439
       a = -0.500      CL =  0.5612
      Cm = -0.1458     CD =  0.00858   =>   CDf =  0.00625    CDp =  0.00232

 Side 1  free  transition at x/c =  0.7607   64
 Side 2  free  transition at x/c =  0.2912   35

   6   rms: 0.4947E-01   max: -.6801E+00   C at   35  2   RLX: 0.735
       a = -0.500      CL =  0.5671
      Cm = -0.1458     CD =  0.00852   =>   CDf =  0.00624    CDp =  0.00228

 Side 1  free  transition at x/c =  0.7590   64
 Side 2  free  transition at x/c =  0.3053   36

   7   rms: 0.3783E-01   max: -.4073E+00   C at   36  2
       a = -0.500      CL =  0.5689
      Cm = -0.1458     CD =  0.00847   =>   CDf =  0.00627    CDp =  0.00220

 Side 1  free  transition at x/c =  0.7585   64
 Side 2  free  transition at x/c =  0.3257   37

   8   rms: 0.4063E-02   max: 0.6018E-01   C at   37  2
       a = -0.500      CL =  0.5691
      Cm = -0.1458     CD =  0.00856   =>   CDf =  0.00614    CDp =  0.00242

 Side 1  free  transition at x/c =  0.7585   64
 Side 2  free  transition at x/c =  0.3229   37

   9   rms: 0.6931E-04   max: -.1008E-02   D at   38  2
       a = -0.500      CL =  0.5691
      Cm = -0.1458     CD =  0.00856   =>   CDf =  0.00615    CDp =  0.00241
 plradd ia,ip,cpol            8           0  0.31866807    

 Point added to stored polar  1
 Point written to save file  goe496_Re400k.base.pol                          
 Dump file unspecified or not available
 Calculating wake trajectory ...
 Calculating source influence matrix ...

 Solving BL system ...

 Side 1  free  transition at x/c =  0.7585   64
 Side 2  free  transition at x/c =  0.3229   37

   1   rms: 0.1505E+00   max: -.1829E+01   C at   37  2   RLX: 0.273
       a =  0.000      CL =  0.5843
      Cm = -0.1457     CD =  0.00852   =>   CDf =  0.00615    CDp =  0.00237

 Side 1  free  transition at x/c =  0.7542   63
 Side 2  free  transition at x/c =  0.3378   38

   2   rms: 0.1083E+00   max: -.8784E+00   C at   38  2   RLX: 0.569
       a =  0.000      CL =  0.6059
      Cm = -0.1454     CD =  0.00838   =>   CDf =  0.00616    CDp =  0.00222

 Side 1  free  transition at x/c =  0.7427   64
 Side 2  free  transition at x/c =  0.3540   38

   3   rms: 0.9297E-01   max: -.7847E+00   C at   38  2   RLX: 0.637
       a =  0.000      CL =  0.6166
      Cm = -0.1452     CD =  0.00840   =>   CDf =  0.00633    CDp =  0.00206

 Side 1  free  transition at x/c =  0.7404   63
 Side 2  free  transition at x/c =  0.3785   39

   4   rms: 0.3450E-01   max: -.5682E+00   C at   39  2   RLX: 0.880
       a =  0.000      CL =  0.6219
      Cm = -0.1451     CD =  0.00847   =>   CDf =  0.00611    CDp =  0.00236

 Side 1  free  transition at x/c =  0.7382   63
 Side 2  free  transition at x/c =  0.3884   40

   5   rms: 0.1559E-01   max: -.2478E+00   C at   40  2
       a =  0.000      CL =  0.6229
      Cm = -0.1451     CD =  0.00848   =>   CDf =  0.00607    CDp =  0.00241

 Side 1  free  transition at x/c =  0.7381   63
 Side 2  free  transition at x/c =  0.3957   40

   6   rms: 0.8896E-03   max: -.1213E-01   D at   40  2
       a =  0.000      CL =  0.6229
      Cm = -0.1451     CD =  0.00849   =>   CDf =  0.00602    CDp =  0.00247

 Side 1  free  transition at x/c =  0.7381   63
 Side 2  free  transition at x/c =  0.3956   40

   7   rms: 0.1816E-05   max: 0.1495E-04   C at   40  2
       a =  0.000      CL =  0.6229
      Cm = -0.1451     CD =  0.00849   =>   CDf =  0.00602    CDp =  0.00247
 plradd ia,ip,cpol            9           0  0.15037982    

 Point added to stored polar  1
 Point written to save file  goe496_Re400k.base.pol                          
 Dump file unspecified or not available
 Calculating wake trajectory ...
 Calculating source influence matrix ...

 Solving BL system ...

 Side 1  free  transition at x/c =  0.7381   63
 Side 2  free  transition at x/c =  0.3956   40

   1   rms: 0.1031E+00   max: -.1016E+01   C at   40  2   RLX: 0.492
       a =  0.500      CL =  0.6487
      Cm = -0.1446     CD =  0.00846   =>   CDf =  0.00602    CDp =  0.00244

 Side 1  free  transition at x/c =  0.7245   62
 Side 2  free  transition at x/c =  0.4171   41

   2   rms: 0.4752E-01   max: -.2031E+00   T at   41  2
       a =  0.500      CL =  0.6759
      Cm = -0.1442     CD =  0.00851   =>   CDf =  0.00610    CDp =  0.00241

 Side 1  free  transition at x/c =  0.7139   62
 Side 2  free  transition at x/c =  0.4535   44

   3   rms: 0.7371E-02   max: 0.1001E+00   D at   44  2
       a =  0.500      CL =  0.6762
      Cm = -0.1443     CD =  0.00848   =>   CDf =  0.00601    CDp =  0.00247

 Side 1  free  transition at x/c =  0.7153   62
 Side 2  free  transition at x/c =  0.4543   44

   4   rms: 0.4353E-03   max: 0.6901E-02   C at   44  2
       a =  0.500      CL =  0.6762
      Cm = -0.1443     CD =  0.00848   =>   CDf =  0.00596    CDp =  0.00252

 Side 1  free  transition at x/c =  0.7153   62
 Side 2  free  transition at x/c =  0.4541   44

   5   rms: 0.2441E-05   max: -.2338E-04   C at   44  2
       a =  0.500      CL =  0.6762
      Cm = -0.1443     CD =  0.00848   =>   CDf =  0.00596    CDp =  0.00252
 plradd ia,ip,cpol           10           0  0.13616182    

 Point added to stored polar  1
 Point written to save file  goe496_Re400k.base.pol                          
 Dump file unspecified or not available
 Calculating wake trajectory ...
 Calculating source influence matrix ...

 Solving BL system ...

 Side 1  free  transition at x/c =  0.7153   62
 Side 2  free  transition at x/c =  0.4541   44

   1   rms: 0.1112E+00   max: -.1145E+01   C at   44  2   RLX: 0.437
       a =  1.000      CL =  0.6995
      Cm = -0.1439     CD =  0.00848   =>   CDf =  0.00591    CDp =  0.00257

 Side 1  free  transition at x/c =  0.7065   62
 Side 2  free  transition at x/c =  0.4735   44

   2   rms: 0.5892E-01   max: -.5280E+00   C at   44  2   RLX: 0.947
       a =  1.000      CL =  0.7276
      Cm = -0.1434     CD =  0.00846   =>   CDf =  0.00600    CDp =  0.00247

 Side 1  free  transition at x/c =  0.6912   61
 Side 2  free  transition at x/c =  0.5055   46

   3   rms: 0.2312E-01   max: -.3782E+00   C at   46  2
       a =  1.000      CL =  0.7294
      Cm = -0.1434     CD =  0.00847   =>   CDf =  0.00599    CDp =  0.00248

 Side 1  free  transition at x/c =  0.6940   61
 Side 2  free  transition at x/c =  0.5153   47

   4   rms: 0.9955E-02   max: -.1743E+00   C at   47  2
       a =  1.000      CL =  0.7294
      Cm = -0.1435     CD =  0.00847   =>   CDf =  0.00592    CDp =  0.00255

 Side 1  free  transition at x/c =  0.6937   61
 Side 2  free  transition at x/c =  0.5189   47

   5   rms: 0.3413E-03   max: 0.5419E-02   C at   47  2
       a =  1.000      CL =  0.7295
      Cm = -0.1435     CD =  0.00848   =>   CDf =  0.00589    CDp =  0.00259

 Side 1  free  transition at x/c =  0.6937   61
 Side 2  free  transition at x/c =  0.5188   47

   6   rms: 0.1466E-05   max: 0.2028E-04   C at   47  2
       a =  1.000      CL =  0.7295
      Cm = -0.1435     CD =  0.00848   =>   CDf =  0.00589    CDp =  0.00258
 plradd ia,ip,cpol           11           0  0.13616182    

 Point added to stored polar  1
 Point written to save file  goe496_Re400k.base.pol                          
 Dump file unspecified or not available
 Calculating wake trajectory ...
 Calculating source influence matrix ...

 Solving BL system ...

 Side 1  free  transition at x/c =  0.6937   61
 Side 2  free  transition at x/c =  0.5188   47

   1   rms: 0.1288E+00   max: -.1791E+01   C at   47  2   RLX: 0.279
       a =  1.500      CL =  0.7439
      Cm = -0.1432     CD =  0.00841   =>   CDf =  0.00589    CDp =  0.00252

 Side 1  free  transition at x/c =  0.6857   61
 Side 2  free  transition at x/c =  0.5361   48

   2   rms: 0.1067E+00   max: -.1637E+01   C at   48  2   RLX: 0.305
       a =  1.500      CL =  0.7555
      Cm = -0.1430     CD =  0.00845   =>   CDf =  0.00578    CDp =  0.00267

 Side 1  free  transition at x/c =  0.6807   62
 Side 2  free  transition at x/c =  0.5514   48

   3   rms: 0.1022E+00   max: -.1724E+01   C at   48  2   RLX: 0.290
       a =  1.500      CL =  0.7632
      Cm = -0.1429     CD =  0.00847   =>   CDf =  0.00585    CDp =  0.00262

 Side 1  free  transition at x/c =  0.6781   61
 Side 2  free  transition at x/c =  0.5633   49

   4   rms: 0.9160E-01   max: -.1567E+01   C at   49  2   RLX: 0.319
       a =  1.500      CL =  0.7692
      Cm = -0.1428     CD =  0.00843   =>   CDf =  0.00585    CDp =  0.00258

 Side 1  free  transition at x/c =  0.6752   61
 Side 2  free  transition at x/c =  0.5774   49

   5   rms: 0.6012E-01   max: -.1069E+01   C at   49  2   RLX: 0.468
       a =  1.500      CL =  0.7752
      Cm = -0.1427     CD =  0.00842   =>   CDf =  0.00579    CDp =  0.00264

 Side 1  free  transition at x/c =  0.6725   61
 Side 2  free  transition at x/c =  0.6120   52

   6   rms: 0.7374E-01   max: -.1340E+01   C at   52  2   RLX: 0.373
       a =  1.500      CL =  0.7770
      Cm = -0.1425     CD =  0.00833   =>   CDf =  0.00566    CDp =  0.00268

 Side 1  free  transition at x/c =  0.6715   61
 Side 2  free  transition at x/c =  0.6280   53

   7   rms: 0.5173E-01   max: -.9362E+00   C at   53  2   RLX: 0.534
       a =  1.500      CL =  0.7790
      Cm = -0.1424     CD =  0.00829   =>   CDf =  0.00560    CDp =  0.00269

 Side 1  free  transition at x/c =  0.6706   61
 Side 2  free  transition at x/c =  0.6487   54

   8   rms: 0.2315E-01   max: -.4154E+00   C at   54  2
       a =  1.500      CL =  0.7805
      Cm = -0.1422     CD =  0.00826   =>   CDf =  0.00555    CDp =  0.00271

 Side 1  free  transition at x/c =  0.6698   61
 Side 2  free  transition at x/c =  0.6730   55

   9   rms: 0.1901E-02   max: 0.2649E-01   D at   54  2
       a =  1.500      CL =  0.7804
      Cm = -0.1422     CD =  0.00826   =>   CDf =  0.00550    CDp =  0.00276

 Side 1  free  transition at x/c =  0.6698   61
 Side 2  free  transition at x/c =  0.6736   55

  10   rms: 0.1893E-04   max: 0.2833E-03   C at   55  2
       a =  1.500      CL =  0.7804
      Cm = -0.1422     CD =  0.00826   =>   CDf =  0.00549    CDp =  0.00276
 plradd ia,ip,cpol           12           0  0.12233811    

 Point added to stored polar  1
 Point written to save file  goe496_Re400k.base.pol                          
 Dump file unspecified or not available
 Calculating wake trajectory ...
 Calculating source influence matrix ...

 Solving BL system ...

 Side 1  free  transition at x/c =  0.6698   61
 Side 2  free  transition at x/c =  0.6736   55

   1   rms: 0.2061E+00   max: -.3370E+01   C at   55  2   RLX: 0.148
       a =  2.000      CL =  0.7878
      Cm = -0.1420     CD =  0.00823   =>   CDf =  0.00550    CDp =  0.00273

 Side 1  free  transition at x/c =  0.6662   61
 Side 2  free  transition at x/c =  0.7171   58

   2   rms: 0.1669E+00   max: -.2715E+01   C at   58  2   RLX: 0.184
       a =  2.000      CL =  0.7951
      Cm = -0.1415     CD =  0.00816   =>   CDf =  0.00540    CDp =  0.00275

 Side 1  free  transition at x/c =  0.6630   61
 Side 2  free  transition at x/c =  0.8496   67

   3   rms: 0.1646E+01   max: -.2738E+02   C at   67  2   RLX: 0.018
       a =  2.000      CL =  0.7940
      Cm = -0.1408     CD =  0.00780   =>   CDf =  0.00505    CDp =  0.00275

 Side 1  free  transition at x/c =  0.6628   61
 Side 2  free  transition at x/c =  0.8640   67

   4   rms: 0.3759E+01   max: -.5391E+02   C at   67  2   RLX: 0.009
       a =  2.000      CL =  0.7942
      Cm = -0.1407     CD =  0.00777   =>   CDf =  0.00501    CDp =  0.00276

 Side 1  free  transition at x/c =  0.6627   60
 Side 2  free  transition at x/c =  0.8759   68

   5   rms: 0.6847E+01   max: -.9742E+02   C at   68  2   RLX: 0.005
       a =  2.000      CL =  0.7951
      Cm = -0.1409     CD =  0.00776   =>   CDf =  0.00500    CDp =  0.00276

 Side 1  free  transition at x/c =  0.6626   60
 Side 2  free  transition at x/c =  0.8979   70

   6   rms: 0.2424E+02   max: 0.3426E+03   C at   70  2   RLX: 0.004
       a =  2.000      CL =  0.7911
      Cm = -0.1401     CD =  0.00785   =>   CDf =  0.00497    CDp =  0.00288

 Side 1  free  transition at x/c =  0.6627   60
 Side 2  free  transition at x/c =  0.8450   66

   7   rms: 0.1463E+01   max: -.2348E+02   C at   66  2   RLX: 0.021
       a =  2.000      CL =  0.7912
      Cm = -0.1399     CD =  0.00781   =>   CDf =  0.00507    CDp =  0.00275

 Side 1  free  transition at x/c =  0.6624   60
 Side 2  free  transition at x/c =  0.8725   68

   8   rms: 0.4866E+01   max: -.7166E+02   C at   68  2   RLX: 0.007
       a =  2.000      CL =  0.7917
      Cm = -0.1399     CD =  0.00775   =>   CDf =  0.00500    CDp =  0.00275

 Side 1  free  transition at x/c =  0.6623   60
 Side 2  free  transition at x/c =  0.8917   69

   9   rms: 0.2838E+02   max: 0.3860E+03   C at   69  2   RLX: 0.004
       a =  2.000      CL =  0.7880
      Cm = -0.1392     CD =  0.00784   =>   CDf =  0.00497    CDp =  0.00287

 Side 1  free  transition at x/c =  0.6625   60
 Side 2  free  transition at x/c =  0.8422   66

  10   rms: 0.1426E+01   max: -.2318E+02   C at   66  2   RLX: 0.022
       a =  2.000      CL =  0.7881
      Cm = -0.1391     CD =  0.00781   =>   CDf =  0.00507    CDp =  0.00274

 Side 1  free  transition at x/c =  0.6622   60
 Side 2  free  transition at x/c =  0.8681   68

  11   rms: 0.3839E+01   max: -.5880E+02   C at   68  2   RLX: 0.009
       a =  2.000      CL =  0.7886
      Cm = -0.1391     CD =  0.00775   =>   CDf =  0.00501    CDp =  0.00274

 Side 1  free  transition at x/c =  0.6621   60
 Side 2  free  transition at x/c =  0.8857   69

  12   rms: 0.2559E+03   max: -.3634E+04   C at   69  2   RLX: 0.000
       a =  2.000      CL =  0.7898
      Cm = -0.1393     CD =  0.00772   =>   CDf =  0.00498    CDp =  0.00274

 Side 1  free  transition at x/c =  0.6620   60
 Side 2  free  transition at x/c =  0.9034   70

  13   rms: 0.6743E+01   max: 0.8858E+02   C at   70  2   RLX: 0.017
       a =  2.000      CL =  0.7849
      Cm = -0.1382     CD =  0.00780   =>   CDf =  0.00496    CDp =  0.00284

 Side 1  free  transition at x/c =  0.6620   60
 Side 2  free  transition at x/c =  0.8504   67

  14   rms: 0.1825E+01   max: -.3034E+02   C at   67  2   RLX: 0.016
       a =  2.000      CL =  0.7852
      Cm = -0.1382     CD =  0.00778   =>   CDf =  0.00505    CDp =  0.00273

 Side 1  free  transition at x/c =  0.6618   60
 Side 2  free  transition at x/c =  0.8680   68

  15   rms: 0.4092E+01   max: -.6346E+02   C at   68  2   RLX: 0.008
       a =  2.000      CL =  0.7858
      Cm = -0.1382     CD =  0.00774   =>   CDf =  0.00501    CDp =  0.00274

 Side 1  free  transition at x/c =  0.6617   60
 Side 2  free  transition at x/c =  0.8848   69

  16   rms: 0.3783E+02   max: 0.5427E+03   C at   69  2   RLX: 0.003
       a =  2.000      CL =  0.7822
      Cm = -0.1375     CD =  0.00785   =>   CDf =  0.00498    CDp =  0.00287

 Side 1  free  transition at x/c =  0.6619   60
 Side 2  free  transition at x/c =  0.8376   66

  17   rms: 0.1359E+01   max: -.2272E+02   C at   66  2   RLX: 0.022
       a =  2.000      CL =  0.7823
      Cm = -0.1374     CD =  0.00780   =>   CDf =  0.00508    CDp =  0.00272

 Side 1  free  transition at x/c =  0.6616   60
 Side 2  free  transition at x/c =  0.8622   67

  18   rms: 0.3299E+01   max: -.5000E+02   C at   67  2   RLX: 0.010
       a =  2.000      CL =  0.7827
      Cm = -0.1374     CD =  0.00775   =>   CDf =  0.00502    CDp =  0.00273

 Side 1  free  transition at x/c =  0.6615   60
 Side 2  free  transition at x/c =  0.8793   68

  19   rms: 0.3421E+02   max: 0.4763E+03   C at   68  2   RLX: 0.003
       a =  2.000      CL =  0.7792
      Cm = -0.1367     CD =  0.00785   =>   CDf =  0.00498    CDp =  0.00287

 Side 1  free  transition at x/c =  0.6616   60
 Side 2  free  transition at x/c =  0.8360   66

  20   rms: 0.1421E+01   max: -.2395E+02   C at   66  2   RLX: 0.021
       a =  2.000      CL =  0.7794
      Cm = -0.1366     CD =  0.00779   =>   CDf =  0.00508    CDp =  0.00271

 Side 1  free  transition at x/c =  0.6613   60
 Side 2  free  transition at x/c =  0.8579   67

  21   rms: 0.2602E+01   max: -.4078E+02   C at   67  2   RLX: 0.012
       a =  2.000      CL =  0.7798
      Cm = -0.1366     CD =  0.00775   =>   CDf =  0.00502    CDp =  0.00272

 Side 1  free  transition at x/c =  0.6612   60
 Side 2  free  transition at x/c =  0.8723   68

  22   rms: 0.8815E+01   max: -.1308E+03   C at   68  2   RLX: 0.004
       a =  2.000      CL =  0.7809
      Cm = -0.1368     CD =  0.00772   =>   CDf =  0.00499    CDp =  0.00273

 Side 1  free  transition at x/c =  0.6611   60
 Side 2  free  transition at x/c =  0.8831   69

  23   rms: 0.1657E+02   max: 0.2341E+03   C at   69  2   RLX: 0.006
       a =  2.000      CL =  0.7761
      Cm = -0.1358     CD =  0.00783   =>   CDf =  0.00497    CDp =  0.00286

 Side 1  free  transition at x/c =  0.6613   60
 Side 2  free  transition at x/c =  0.8207   65

  24   rms: 0.1133E+01   max: -.1925E+02   C at   65  2   RLX: 0.026
       a =  2.000      CL =  0.7767
      Cm = -0.1358     CD =  0.00782   =>   CDf =  0.00511    CDp =  0.00271

 Side 1  free  transition at x/c =  0.6609   60
 Side 2  free  transition at x/c =  0.8423   66

  25   rms: 0.1563E+01   max: -.2541E+02   C at   66  2   RLX: 0.020
       a =  2.000      CL =  0.7771
      Cm = -0.1357     CD =  0.00777   =>   CDf =  0.00506    CDp =  0.00272

 Side 1  free  transition at x/c =  0.6607   60
 Side 2  free  transition at x/c =  0.8525   67

  26   rms: 0.1675E+01   max: -.2737E+02   C at   67  2   RLX: 0.018
       a =  2.000      CL =  0.7777
      Cm = -0.1357     CD =  0.00775   =>   CDf =  0.00503    CDp =  0.00272

 Side 1  free  transition at x/c =  0.6605   60
 Side 2  free  transition at x/c =  0.8673   68

  27   rms: 0.3345E+01   max: -.5200E+02   C at   68  2   RLX: 0.010
       a =  2.000      CL =  0.7787
      Cm = -0.1359     CD =  0.00772   =>   CDf =  0.00500    CDp =  0.00273

 Side 1  free  transition at x/c =  0.6603   60
 Side 2  free  transition at x/c =  0.8803   68

  28   rms: 0.3934E+03   max: 0.5282E+04   C at   68  2   RLX: 0.000
       a =  2.000      CL =  0.7737
      Cm = -0.1349     CD =  0.00782   =>   CDf =  0.00497    CDp =  0.00285

 Side 1  free  transition at x/c =  0.6606   60
 Side 2  free  transition at x/c =  0.8345   66

  29   rms: 0.1082E+01   max: -.1852E+02   C at   66  2   RLX: 0.027
       a =  2.000      CL =  0.7744
      Cm = -0.1349     CD =  0.00778   =>   CDf =  0.00508    CDp =  0.00271

 Side 1  free  transition at x/c =  0.6603   60
 Side 2  free  transition at x/c =  0.8418   66

  30   rms: 0.1002E+01   max: -.1643E+02   C at   66  2   RLX: 0.030
       a =  2.000      CL =  0.7755
      Cm = -0.1349     CD =  0.00778   =>   CDf =  0.00506    CDp =  0.00272

 Side 1  free  transition at x/c =  0.6599   60
 Side 2  free  transition at x/c =  0.8746   68

  31   rms: 0.3325E+02   max: -.4722E+03   C at   68  2   RLX: 0.001
       a =  2.000      CL =  0.7769
      Cm = -0.1352     CD =  0.00770   =>   CDf =  0.00498    CDp =  0.00273

 Side 1  free  transition at x/c =  0.6598   60
 Side 2  free  transition at x/c =  0.8880   69

  32   rms: 0.5611E+01   max: 0.7369E+02   C at   69  2   RLX: 0.020
       a =  2.000      CL =  0.7707
      Cm = -0.1338     CD =  0.00778   =>   CDf =  0.00495    CDp =  0.00283

 Side 1  free  transition at x/c =  0.6599   60
 Side 2  free  transition at x/c =  0.8602   67

  33   rms: 0.2813E+01   max: -.4332E+02   C at   67  2   RLX: 0.012
       a =  2.000      CL =  0.7717
      Cm = -0.1339     CD =  0.00772   =>   CDf =  0.00501    CDp =  0.00271

 Side 1  free  transition at x/c =  0.6598   60
 Side 2  free  transition at x/c =  0.8767   68

  34   rms: 0.2964E+02   max: 0.4157E+03   C at   68  2   RLX: 0.004
       a =  2.000      CL =  0.7666
      Cm = -0.1328     CD =  0.00782   =>   CDf =  0.00497    CDp =  0.00284

 Side 1  free  transition at x/c =  0.6600   60
 Side 2  free  transition at x/c =  0.8335   66

  35   rms: 0.1182E+01   max: -.2036E+02   C at   66  2   RLX: 0.025
       a =  2.000      CL =  0.7674
      Cm = -0.1329     CD =  0.00776   =>   CDf =  0.00508    CDp =  0.00269

 Side 1  free  transition at x/c =  0.6597   60
 Side 2  free  transition at x/c =  0.8415   66

  36   rms: 0.1111E+01   max: -.1821E+02   C at   66  2   RLX: 0.027
       a =  2.000      CL =  0.7687
      Cm = -0.1330     CD =  0.00775   =>   CDf =  0.00506    CDp =  0.00270

 Side 1  free  transition at x/c =  0.6594   60
 Side 2  free  transition at x/c =  0.8741   68

  37   rms: 0.1063E+02   max: 0.1509E+03   C at   68  2   RLX: 0.010
       a =  2.000      CL =  0.7636
      Cm = -0.1319     CD =  0.00781   =>   CDf =  0.00497    CDp =  0.00284

 Side 1  free  transition at x/c =  0.6595   60
 Side 2  free  transition at x/c =  0.8531   67

  38   rms: 0.2200E+01   max: -.3562E+02   C at   67  2   RLX: 0.014
       a =  2.000      CL =  0.7645
      Cm = -0.1319     CD =  0.00771   =>   CDf =  0.00502    CDp =  0.00269

 Side 1  free  transition at x/c =  0.6593   60
 Side 2  free  transition at x/c =  0.8697   68

  39   rms: 0.5244E+02   max: -.7847E+03   C at   68  2   RLX: 0.001
       a =  2.000      CL =  0.7661
      Cm = -0.1322     CD =  0.00768   =>   CDf =  0.00498    CDp =  0.00270

 Side 1  free  transition at x/c =  0.6593   60
 Side 2  free  transition at x/c =  0.8819   69

  40   rms: 0.4074E+01   max: 0.5623E+02   C at   69  2   RLX: 0.027
       a =  2.000      CL =  0.7593
      Cm = -0.1307     CD =  0.00777   =>   CDf =  0.00495    CDp =  0.00281

 Side 1  free  transition at x/c =  0.6594   60
 Side 2  free  transition at x/c =  0.8440   66

  41   rms: 0.1809E+01   max: -.2909E+02   C at   66  2   RLX: 0.017
       a =  2.000      CL =  0.7604
      Cm = -0.1308     CD =  0.00772   =>   CDf =  0.00505    CDp =  0.00268

 Side 1  free  transition at x/c =  0.6592   60
 Side 2  free  transition at x/c =  0.8591   67

  42   rms: 0.3616E+01   max: -.5597E+02   C at   67  2   RLX: 0.009
       a =  2.000      CL =  0.7617
      Cm = -0.1310     CD =  0.00769   =>   CDf =  0.00501    CDp =  0.00269

 Side 1  free  transition at x/c =  0.6590   60
 Side 2  free  transition at x/c =  0.8751   68

  43   rms: 0.6379E+01   max: 0.8967E+02   C at   68  2   RLX: 0.017
       a =  2.000      CL =  0.7555
      Cm = -0.1297     CD =  0.00778   =>   CDf =  0.00497    CDp =  0.00282

 Side 1  free  transition at x/c =  0.6592   60
 Side 2  free  transition at x/c =  0.8275   65

  44   rms: 0.1551E+01   max: -.2555E+02   C at   65  2   RLX: 0.020
       a =  2.000      CL =  0.7566
      Cm = -0.1298     CD =  0.00775   =>   CDf =  0.00508    CDp =  0.00266

 Side 1  free  transition at x/c =  0.6590   60
 Side 2  free  transition at x/c =  0.8473   66

  45   rms: 0.2095E+01   max: -.3301E+02   C at   66  2   RLX: 0.015
       a =  2.000      CL =  0.7578
      Cm = -0.1300     CD =  0.00771   =>   CDf =  0.00504    CDp =  0.00267

 Side 1  free  transition at x/c =  0.6588   60
 Side 2  free  transition at x/c =  0.8667   68

  46   rms: 0.3488E+02   max: -.5398E+03   C at   68  2   RLX: 0.001
       a =  2.000      CL =  0.7595
      Cm = -0.1303     CD =  0.00767   =>   CDf =  0.00499    CDp =  0.00268

 Side 1  free  transition at x/c =  0.6587   60
 Side 2  free  transition at x/c =  0.8770   68

  47   rms: 0.4044E+01   max: 0.5456E+02   C at   68  2   RLX: 0.027
       a =  2.000      CL =  0.7524
      Cm = -0.1287     CD =  0.00776   =>   CDf =  0.00496    CDp =  0.00280

 Side 1  free  transition at x/c =  0.6588   60
 Side 2  free  transition at x/c =  0.8183   65

  48   rms: 0.1377E+01   max: -.2367E+02   C at   65  2   RLX: 0.021
       a =  2.000      CL =  0.7537
      Cm = -0.1289     CD =  0.00776   =>   CDf =  0.00510    CDp =  0.00265

 Side 1  free  transition at x/c =  0.6586   60
 Side 2  free  transition at x/c =  0.8408   66

  49   rms: 0.2019E+01   max: -.3305E+02   C at   66  2   RLX: 0.015
       a =  2.000      CL =  0.7548
      Cm = -0.1291     CD =  0.00771   =>   CDf =  0.00505    CDp =  0.00266

 Side 1  free  transition at x/c =  0.6585   60
 Side 2  free  transition at x/c =  0.8468   66

  50   rms: 0.1708E+01   max: -.2694E+02   C at   66  2   RLX: 0.019
       a =  2.000      CL =  0.7565
      Cm = -0.1294     CD =  0.00771   =>   CDf =  0.00503    CDp =  0.00267

 Side 1  free  transition at x/c =  0.6583   60
 Side 2  free  transition at x/c =  0.8725   68

  51   rms: 0.6606E+01   max: 0.9375E+02   C at   68  2   RLX: 0.016
       a =  2.000      CL =  0.7490
      Cm = -0.1277     CD =  0.00777   =>   CDf =  0.00497    CDp =  0.00281

 Side 1  free  transition at x/c =  0.6585   60
 Side 2  free  transition at x/c =  0.8011   64

  52   rms: 0.1057E+01   max: -.1828E+02   C at   64  2   RLX: 0.027
       a =  2.000      CL =  0.7507
      Cm = -0.1280     CD =  0.00779   =>   CDf =  0.00514    CDp =  0.00265

 Side 1  free  transition at x/c =  0.6582   60
 Side 2  free  transition at x/c =  0.8212   65

  53   rms: 0.1392E+01   max: -.2358E+02   C at   65  2   RLX: 0.021
       a =  2.000      CL =  0.7520
      Cm = -0.1282     CD =  0.00775   =>   CDf =  0.00509    CDp =  0.00265

 Side 1  free  transition at x/c =  0.6580   60
 Side 2  free  transition at x/c =  0.8268   65

  54   rms: 0.1065E+01   max: -.1756E+02   C at   65  2   RLX: 0.028
       a =  2.000      CL =  0.7540
      Cm = -0.1286     CD =  0.00774   =>   CDf =  0.00508    CDp =  0.00266

 Side 1  free  transition at x/c =  0.6577   60
 Side 2  free  transition at x/c =  0.8538   67

  55   rms: 0.4347E+01   max: -.6841E+02   C at   67  2   RLX: 0.007
       a =  2.000      CL =  0.7554
      Cm = -0.1288     CD =  0.00768   =>   CDf =  0.00501    CDp =  0.00267

 Side 1  free  transition at x/c =  0.6576   60
 Side 2  free  transition at x/c =  0.8692   68

  56   rms: 0.4531E+01   max: 0.6511E+02   C at   68  2   RLX: 0.023
       a =  2.000      CL =  0.7484
      Cm = -0.1273     CD =  0.00778   =>   CDf =  0.00497    CDp =  0.00281

 Side 1  free  transition at x/c =  0.6578   60
 Side 2  free  transition at x/c =  0.8337   66

  57   rms: 0.1678E+01   max: -.2850E+02   C at   66  2   RLX: 0.018
       a =  2.000      CL =  0.7498
      Cm = -0.1275     CD =  0.00771   =>   CDf =  0.00506    CDp =  0.00265

 Side 1  free  transition at x/c =  0.6576   60
 Side 2  free  transition at x/c =  0.8480   66

  58   rms: 0.3346E+01   max: -.5138E+02   C at   66  2   RLX: 0.010
       a =  2.000      CL =  0.7512
      Cm = -0.1277     CD =  0.00769   =>   CDf =  0.00502    CDp =  0.00267

 Side 1  free  transition at x/c =  0.6575   60
 Side 2  free  transition at x/c =  0.8643   67

  59   rms: 0.8817E+01   max: 0.1250E+03   C at   67  2   RLX: 0.012
       a =  2.000      CL =  0.7446
      Cm = -0.1263     CD =  0.00778   =>   CDf =  0.00498    CDp =  0.00281

 Side 1  free  transition at x/c =  0.6577   60
 Side 2  free  transition at x/c =  0.8063   64

  60   rms: 0.1172E+01   max: -.1987E+02   C at   64  2   RLX: 0.025
       a =  2.000      CL =  0.7463
      Cm = -0.1266     CD =  0.00777   =>   CDf =  0.00513    CDp =  0.00264

 Side 1  free  transition at x/c =  0.6575   60
 Side 2  free  transition at x/c =  0.8193   65

  61   rms: 0.1075E+01   max: -.1837E+02   C at   65  2   RLX: 0.027
       a =  2.000      CL =  0.7483
      Cm = -0.1269     CD =  0.00774   =>   CDf =  0.00510    CDp =  0.00264

 Side 1  free  transition at x/c =  0.6572   60
 Side 2  free  transition at x/c =  0.8282   65

  62   rms: 0.1054E+01   max: -.1713E+02   C at   65  2   RLX: 0.029
       a =  2.000      CL =  0.7506
      Cm = -0.1273     CD =  0.00773   =>   CDf =  0.00507    CDp =  0.00266

 Side 1  free  transition at x/c =  0.6570   60
 Side 2  free  transition at x/c =  0.8697   68

  63   rms: 0.2785E+01   max: 0.3888E+02   C at   68  2   RLX: 0.039
       a =  2.000      CL =  0.7421
      Cm = -0.1252     CD =  0.00775   =>   CDf =  0.00496    CDp =  0.00279

 Side 1  free  transition at x/c =  0.6571   60
 Side 2  free  transition at x/c =  0.8375   66

  64   rms: 0.2865E+01   max: -.4690E+02   C at   66  2   RLX: 0.011
       a =  2.000      CL =  0.7435
      Cm = -0.1255     CD =  0.00768   =>   CDf =  0.00505    CDp =  0.00263

 Side 1  free  transition at x/c =  0.6570   60
 Side 2  free  transition at x/c =  0.8500   67

  65   rms: 0.8503E+01   max: -.1366E+03   C at   67  2   RLX: 0.004
       a =  2.000      CL =  0.7454
      Cm = -0.1259     CD =  0.00766   =>   CDf =  0.00501    CDp =  0.00264

 Side 1  free  transition at x/c =  0.6569   60
 Side 2  free  transition at x/c =  0.8609   67

  66   rms: 0.5464E+01   max: 0.7828E+02   C at   67  2   RLX: 0.019
       a =  2.000      CL =  0.7382
      Cm = -0.1243     CD =  0.00777   =>   CDf =  0.00498    CDp =  0.00279

 Side 1  free  transition at x/c =  0.6571   60
 Side 2  free  transition at x/c =  0.7933   63

  67   rms: 0.1126E+01   max: -.1886E+02   C at   63  2   RLX: 0.027
       a =  2.000      CL =  0.7403
      Cm = -0.1248     CD =  0.00778   =>   CDf =  0.00516    CDp =  0.00262

 Side 1  free  transition at x/c =  0.6569   60
 Side 2  free  transition at x/c =  0.8053   64

  68   rms: 0.1072E+01   max: -.1824E+02   C at   64  2   RLX: 0.027
       a =  2.000      CL =  0.7423
      Cm = -0.1251     CD =  0.00776   =>   CDf =  0.00513    CDp =  0.00263

 Side 1  free  transition at x/c =  0.6567   60
 Side 2  free  transition at x/c =  0.8169   65

  69   rms: 0.1220E+01   max: -.2109E+02   C at   65  2   RLX: 0.024
       a =  2.000      CL =  0.7442
      Cm = -0.1255     CD =  0.00773   =>   CDf =  0.00510    CDp =  0.00263

 Side 1  free  transition at x/c =  0.6565   60
 Side 2  free  transition at x/c =  0.8258   65

  70   rms: 0.1273E+01   max: -.2077E+02   C at   65  2   RLX: 0.024
       a =  2.000      CL =  0.7463
      Cm = -0.1259     CD =  0.00772   =>   CDf =  0.00508    CDp =  0.00264

 Side 1  free  transition at x/c =  0.6562   60
 Side 2  free  transition at x/c =  0.8501   67

  71   rms: 0.2139E+02   max: -.3344E+03   C at   67  2   RLX: 0.001
       a =  2.000      CL =  0.7480
      Cm = -0.1262     CD =  0.00766   =>   CDf =  0.00501    CDp =  0.00266

 Side 1  free  transition at x/c =  0.6562   60
 Side 2  free  transition at x/c =  0.8670   68

  72   rms: 0.1661E+01   max: 0.2323E+02   C at   68  2   RLX: 0.065
       a =  2.000      CL =  0.7403
      Cm = -0.1243     CD =  0.00775   =>   CDf =  0.00496    CDp =  0.00279

 Side 1  free  transition at x/c =  0.6562   60
 Side 2  free  transition at x/c =  0.9178   71

  73   rms: 0.2307E+01   max: 0.2714E+02   C at   71  2   RLX: 0.055
       a =  2.000      CL =  0.7317
      Cm = -0.1217     CD =  0.00746   =>   CDf =  0.00493    CDp =  0.00253

 Side 1  free  transition at x/c =  0.6563   60
 Side 2  free  transition at x/c =  0.7969   63

  74   rms: 0.1139E+01   max: -.1871E+02   C at   63  2   RLX: 0.027
       a =  2.000      CL =  0.7342
      Cm = -0.1223     CD =  0.00763   =>   CDf =  0.00517    CDp =  0.00247

 Side 1  free  transition at x/c =  0.6561   60
 Side 2  free  transition at x/c =  0.8166   64

  75   rms: 0.9406E-01   max: -.1985E+00   D at   78  2
       a =  2.000      CL =  0.8277
      Cm = -0.1400     CD =  0.00800   =>   CDf =  0.00502    CDp =  0.00298

 Side 1  free  transition at x/c =  0.6457   60
 Side 2 forced transition at x/c =  1.0000   77

  76   rms: 0.8571E-02   max: 0.7833E-01   C at   77  2
       a =  2.000      CL =  0.8311
      Cm = -0.1405     CD =  0.00786   =>   CDf =  0.00505    CDp =  0.00280

 Side 1  free  transition at x/c =  0.6469   60
 Side 2 forced transition at x/c =  1.0000   77

  77   rms: 0.5413E-03   max: -.5953E-02   D at    4  1
       a =  2.000      CL =  0.8311
      Cm = -0.1405     CD =  0.00786   =>   CDf =  0.00504    CDp =  0.00281

 Side 1  free  transition at x/c =  0.6469   60
 Side 2 forced transition at x/c =  1.0000   77

  78   rms: 0.9470E-06   max: 0.7053E-05   C at   77  2
       a =  2.000      CL =  0.8311
      Cm = -0.1405     CD =  0.00786   =>   CDf =  0.00504    CDp =  0.00281
 plradd ia,ip,cpol           13           0  0.12233811    

 Point added to stored polar  1
 Point written to save file  goe496_Re400k.base.pol                          
 Dump file unspecified or not available
 Calculating wake trajectory ...
 Calculating source influence matrix ...

 Solving BL system ...

 Side 1  free  transition at x/c =  0.6469   60
 Side 2 forced transition at x/c =  1.0000   77

   1   rms: 0.9035E-01   max: -.1773E+00   n at   62  2
       a =  2.500      CL =  0.8846
      Cm = -0.1399     CD =  0.00797   =>   CDf =  0.00505    CDp =  0.00292

 Side 1  free  transition at x/c =  0.6200   59
 Side 2 forced transition at x/c =  1.0000   77

   2   rms: 0.1795E-01   max: -.2073E+00   D at   59  1
       a =  2.500      CL =  0.8839
      Cm = -0.1397     CD =  0.00807   =>   CDf =  0.00524    CDp =  0.00282

 Side 1  free  transition at x/c =  0.6263   59
 Side 2 forced transition at x/c =  1.0000   77

   3   rms: 0.3462E-02   max: 0.4835E-01   C at   59  1
       a =  2.500      CL =  0.8843
      Cm = -0.1398     CD =  0.00810   =>   CDf =  0.00512    CDp =  0.00298

 Side 1  free  transition at x/c =  0.6246   59
 Side 2 forced transition at x/c =  1.0000   77

   4   rms: 0.9630E-04   max: -.1380E-02   D at   61  1
       a =  2.500      CL =  0.8843
      Cm = -0.1398     CD =  0.00810   =>   CDf =  0.00514    CDp =  0.00296
 plradd ia,ip,cpol           14           0  0.12233811    

 Point added to stored polar  1
 Point written to save file  goe496_Re400k.base.pol                          
 Dump file unspecified or not available
 Calculating wake trajectory ...
 Calculating source influence matrix ...

 Solving BL system ...

 Side 1  free  transition at x/c =  0.6246   59
 Side 2 forced transition at x/c =  1.0000   77

   1   rms: 0.8606E-01   max: -.1290E+00   n at   70  2
       a =  3.000      CL =  0.9374
      Cm = -0.1390     CD =  0.00835   =>   CDf =  0.00506    CDp =  0.00329

 Side 1  free  transition at x/c =  0.6025   59
 Side 2 forced transition at x/c =  1.0000   76

   2   rms: 0.1512E-01   max: -.2314E+00   D at   59  1
       a =  3.000      CL =  0.9370
      Cm = -0.1389     CD =  0.00837   =>   CDf =  0.00529    CDp =  0.00307

 Side 1  free  transition at x/c =  0.6052   59
 Side 2 forced transition at x/c =  1.0000   76

   3   rms: 0.3324E-02   max: 0.4861E-01   C at   59  1
       a =  3.000      CL =  0.9373
      Cm = -0.1390     CD =  0.00839   =>   CDf =  0.00522    CDp =  0.00317

 Side 1  free  transition at x/c =  0.6040   59
 Side 2 forced transition at x/c =  1.0000   76

   4   rms: 0.7526E-04   max: -.1268E-02   D at   61  1
       a =  3.000      CL =  0.9373
      Cm = -0.1390     CD =  0.00839   =>   CDf =  0.00524    CDp =  0.00315
 plradd ia,ip,cpol           15           0  0.10890948    

 Point added to stored polar  1
 Point written to save file  goe496_Re400k.base.pol                          
 Dump file unspecified or not available
 Calculating wake trajectory ...
 Calculating source influence matrix ...

 Solving BL system ...

 Side 1  free  transition at x/c =  0.6040   59
 Side 2 forced transition at x/c =  1.0000   76

   1   rms: 0.8623E-01   max: -.1008E+00   n at   59  2
       a =  3.500      CL =  0.9896
      Cm = -0.1381     CD =  0.00874   =>   CDf =  0.00514    CDp =  0.00361

 Side 1  free  transition at x/c =  0.5818   58
 Side 2 forced transition at x/c =  1.0000   75

   2   rms: 0.2159E-01   max: -.3471E+00   D at   59  1
       a =  3.500      CL =  0.9893
      Cm = -0.1380     CD =  0.00868   =>   CDf =  0.00535    CDp =  0.00333

 Side 1  free  transition at x/c =  0.5835   58
 Side 2 forced transition at x/c =  1.0000   75

   3   rms: 0.6104E-02   max: -.1007E+00   C at   58  1
       a =  3.500      CL =  0.9894
      Cm = -0.1381     CD =  0.00871   =>   CDf =  0.00537    CDp =  0.00334

 Side 1  free  transition at x/c =  0.5827   58
 Side 2 forced transition at x/c =  1.0000   75

   4   rms: 0.2198E-03   max: -.3060E-02   D at   60  1
       a =  3.500      CL =  0.9895
      Cm = -0.1381     CD =  0.00872   =>   CDf =  0.00533    CDp =  0.00339

 Side 1  free  transition at x/c =  0.5826   58
 Side 2 forced transition at x/c =  1.0000   75

   5   rms: 0.8525E-06   max: -.9352E-05   D at   60  1
       a =  3.500      CL =  0.9895
      Cm = -0.1381     CD =  0.00872   =>   CDf =  0.00533    CDp =  0.00339
 plradd ia,ip,cpol           16           0  0.10890948    

 Point added to stored polar  1
 Point written to save file  goe496_Re400k.base.pol                          
 Dump file unspecified or not available
 Calculating wake trajectory ...
 Calculating source influence matrix ...

 Solving BL system ...

 Side 1  free  transition at x/c =  0.5826   58
 Side 2 forced transition at x/c =  1.0000   75

   1   rms: 0.8390E-01   max: -.1086E+00   n at   59  2
       a =  4.000      CL =  1.0424
      Cm = -0.1373     CD =  0.00892   =>   CDf =  0.00533    CDp =  0.00359

 Side 1  free  transition at x/c =  0.5574   57
 Side 2 forced transition at x/c =  1.0000   75

   2   rms: 0.1582E-01   max: -.1983E+00   D at   57  1
       a =  4.000      CL =  1.0411
      Cm = -0.1370     CD =  0.00902   =>   CDf =  0.00546    CDp =  0.00356

 Side 1  free  transition at x/c =  0.5623   57
 Side 2 forced transition at x/c =  1.0000   75

   3   rms: 0.3014E-02   max: 0.4506E-01   C at   57  1
       a =  4.000      CL =  1.0415
      Cm = -0.1371     CD =  0.00904   =>   CDf =  0.00535    CDp =  0.00369

 Side 1  free  transition at x/c =  0.5610   57
 Side 2 forced transition at x/c =  1.0000   75

   4   rms: 0.5907E-04   max: -.1050E-02   D at   59  1
       a =  4.000      CL =  1.0415
      Cm = -0.1371     CD =  0.00904   =>   CDf =  0.00537    CDp =  0.00367
 plradd ia,ip,cpol           17           0  0.10890948    

 Point added to stored polar  1
 Point written to save file  goe496_Re400k.base.pol                          
 Dump file unspecified or not available
 Calculating wake trajectory ...
 Calculating source influence matrix ...

 Solving BL system ...

 Side 1  free  transition at x/c =  0.5610   57
 Side 2 forced transition at x/c =  1.0000   75

   1   rms: 0.8325E-01   max: -.8165E-01   n at   66  2
       a =  4.500      CL =  1.0932
      Cm = -0.1362     CD =  0.00937   =>   CDf =  0.00523    CDp =  0.00414

 Side 1  free  transition at x/c =  0.5356   56
 Side 2 forced transition at x/c =  1.0000   74

   2   rms: 0.2068E-01   max: -.3668E+00   D at   57  1
       a =  4.500      CL =  1.0919
      Cm = -0.1359     CD =  0.00944   =>   CDf =  0.00548    CDp =  0.00396

 Side 1  free  transition at x/c =  0.5398   57
 Side 2 forced transition at x/c =  1.0000   74

   3   rms: 0.3079E-02   max: 0.4107E-01   D at   57  1
       a =  4.500      CL =  1.0925
      Cm = -0.1360     CD =  0.00942   =>   CDf =  0.00542    CDp =  0.00401

 Side 1  free  transition at x/c =  0.5384   57
 Side 2 forced transition at x/c =  1.0000   74

   4   rms: 0.2158E-03   max: 0.2791E-02   C at   57  1
       a =  4.500      CL =  1.0925
      Cm = -0.1360     CD =  0.00942   =>   CDf =  0.00542    CDp =  0.00400

 Side 1  free  transition at x/c =  0.5383   57
 Side 2 forced transition at x/c =  1.0000   74

   5   rms: 0.1201E-05   max: -.1006E-04   C at   57  1
       a =  4.500      CL =  1.0925
      Cm = -0.1360     CD =  0.00942   =>   CDf =  0.00542    CDp =  0.00400
 plradd ia,ip,cpol           18           0  9.58660245E-02

 Point added to stored polar  1
 Point written to save file  goe496_Re400k.base.pol                          
 Dump file unspecified or not available
 Calculating wake trajectory ...
 Calculating source influence matrix ...

 Solving BL system ...

 Side 1  free  transition at x/c =  0.5383   57
 Side 2 forced transition at x/c =  1.0000   74

   1   rms: 0.8680E-01   max: 0.3896E+00   C at   57  1
       a =  5.000      CL =  1.1419
      Cm = -0.1347     CD =  0.00996   =>   CDf =  0.00527    CDp =  0.00469

 Side 1  free  transition at x/c =  0.5141   56
 Side 2 forced transition at x/c =  1.0000   73
 idif Ue xi dudx           1  0.14810528      2.87532806E-03   51.509003    
 Uenew xinew           2  2.27193013E-04  4.41074371E-06

   2   rms: 0.5362E-01   max: -.9214E+00   T at    2  1   RLX: 0.543
       a =  5.000      CL =  1.1423
      Cm = -0.1347     CD =  0.00980   =>   CDf =  0.00561    CDp =  0.00420

 Side 1  free  transition at x/c =  0.5139   55
 Side 2 forced transition at x/c =  1.0000   74

   3   rms: 0.1471E-01   max: 0.2331E+00   T at    2  2
       a =  5.000      CL =  1.1428
      Cm = -0.1348     CD =  0.00980   =>   CDf =  0.00527    CDp =  0.00453

 Side 1  free  transition at x/c =  0.5133   56
 Side 2 forced transition at x/c =  1.0000   73

   4   rms: 0.5911E-02   max: 0.1038E+00   T at    2  1
       a =  5.000      CL =  1.1428
      Cm = -0.1348     CD =  0.00980   =>   CDf =  0.00542    CDp =  0.00438

 Side 1  free  transition at x/c =  0.5132   56
 Side 2 forced transition at x/c =  1.0000   73

   5   rms: 0.1540E-04   max: -.1676E-03   D at    6  1
       a =  5.000      CL =  1.1428
      Cm = -0.1348     CD =  0.00980   =>   CDf =  0.00542    CDp =  0.00438
 plradd ia,ip,cpol           19           0  4.23579803E-03

 Point added to stored polar  1
 Point written to save file  goe496_Re400k.base.pol                          
 Dump file unspecified or not available
 Calculating wake trajectory ...
 Calculating source influence matrix ...

 Solving BL system ...

 Side 1  free  transition at x/c =  0.5132   56
 Side 2 forced transition at x/c =  1.0000   73

   1   rms: 0.8512E-01   max: 0.3313E+00   C at   56  1
       a =  5.500      CL =  1.1926
      Cm = -0.1335     CD =  0.01020   =>   CDf =  0.00543    CDp =  0.00478

 Side 1  free  transition at x/c =  0.4791   54
 Side 2 forced transition at x/c =  1.0000   73

   2   rms: 0.1725E-01   max: 0.2722E+00   D at   55  1
       a =  5.500      CL =  1.1912
      Cm = -0.1333     CD =  0.01026   =>   CDf =  0.00554    CDp =  0.00472

 Side 1  free  transition at x/c =  0.4846   54
 Side 2 forced transition at x/c =  1.0000   73

   3   rms: 0.2946E-02   max: 0.4998E-01   C at   54  1
       a =  5.500      CL =  1.1914
      Cm = -0.1333     CD =  0.01025   =>   CDf =  0.00545    CDp =  0.00480

 Side 1  free  transition at x/c =  0.4829   54
 Side 2 forced transition at x/c =  1.0000   73

   4   rms: 0.6417E-04   max: -.9587E-03   C at   54  1
       a =  5.500      CL =  1.1914
      Cm = -0.1333     CD =  0.01025   =>   CDf =  0.00546    CDp =  0.00479
 plradd ia,ip,cpol           20           0  2.83190212E-03

 Point added to stored polar  1
 Point written to save file  goe496_Re400k.base.pol                          
 Dump file unspecified or not available
 Calculating wake trajectory ...
 Calculating source influence matrix ...

 Solving BL system ...

 Side 1  free  transition at x/c =  0.4829   54
 Side 2 forced transition at x/c =  1.0000   73

   1   rms: 0.8856E-01   max: 0.4698E+00   C at   54  1
       a =  6.000      CL =  1.2386
      Cm = -0.1315     CD =  0.01070   =>   CDf =  0.00528    CDp =  0.00542

 Side 1  free  transition at x/c =  0.4243   51
 Side 2 forced transition at x/c =  1.0000   72

   2   rms: 0.2552E-01   max: -.3343E+00   D at   52  1
       a =  6.000      CL =  1.2342
      Cm = -0.1308     CD =  0.01093   =>   CDf =  0.00570    CDp =  0.00523

 Side 1  free  transition at x/c =  0.4359   52
 Side 2 forced transition at x/c =  1.0000   72

   3   rms: 0.1013E-01   max: 0.1817E+00   C at   52  1
       a =  6.000      CL =  1.2355
      Cm = -0.1310     CD =  0.01087   =>   CDf =  0.00556    CDp =  0.00530

 Side 1  free  transition at x/c =  0.4306   52
 Side 2 forced transition at x/c =  1.0000   72

   4   rms: 0.4735E-03   max: -.5592E-02   C at   52  1
       a =  6.000      CL =  1.2354
      Cm = -0.1310     CD =  0.01088   =>   CDf =  0.00561    CDp =  0.00526

 Side 1  free  transition at x/c =  0.4307   52
 Side 2 forced transition at x/c =  1.0000   72

   5   rms: 0.2809E-05   max: -.2392E-04   D at   53  1
       a =  6.000      CL =  1.2354
      Cm = -0.1310     CD =  0.01088   =>   CDf =  0.00561    CDp =  0.00527
 plradd ia,ip,cpol           21           0  1.73694175E-03

 Point added to stored polar  1
 Point written to save file  goe496_Re400k.base.pol                          
 Dump file unspecified or not available
 Calculating wake trajectory ...
 Calculating source influence matrix ...

 Solving BL system ...

 Side 1  free  transition at x/c =  0.4307   52
 Side 2 forced transition at x/c =  1.0000   72

   1   rms: 0.1139E+00   max: 0.1306E+01   C at   52  1   RLX: 0.689
       a =  6.500      CL =  1.2623
      Cm = -0.1288     CD =  0.01152   =>   CDf =  0.00561    CDp =  0.00591

 Side 1  free  transition at x/c =  0.3711   48
 Side 2 forced transition at x/c =  1.0000   72

   2   rms: 0.3404E-01   max: 0.2568E+00   C at   48  1
       a =  6.500      CL =  1.2731
      Cm = -0.1277     CD =  0.01193   =>   CDf =  0.00591    CDp =  0.00603

 Side 1  free  transition at x/c =  0.3427   46
 Side 2 forced transition at x/c =  1.0000   72

   3   rms: 0.7464E-02   max: -.1435E+00   C at   46  1
       a =  6.500      CL =  1.2719
      Cm = -0.1275     CD =  0.01200   =>   CDf =  0.00604    CDp =  0.00595

 Side 1  free  transition at x/c =  0.3466   46
 Side 2 forced transition at x/c =  1.0000   72

   4   rms: 0.2237E-03   max: 0.4269E-02   C at   46  1
       a =  6.500      CL =  1.2719
      Cm = -0.1275     CD =  0.01200   =>   CDf =  0.00601    CDp =  0.00598

 Side 1  free  transition at x/c =  0.3465   46
 Side 2 forced transition at x/c =  1.0000   72

   5   rms: 0.1636E-05   max: 0.1512E-04   C at   46  1
       a =  6.500      CL =  1.2719
      Cm = -0.1275     CD =  0.01200   =>   CDf =  0.00601    CDp =  0.00598
 plradd ia,ip,cpol           22           0  1.73694175E-03

 Point added to stored polar  1
 Point written to save file  goe496_Re400k.base.pol                          
 Dump file unspecified or not available
 Calculating wake trajectory ...
 Calculating source influence matrix ...

 Solving BL system ...

 Side 1  free  transition at x/c =  0.3465   46
 Side 2 forced transition at x/c =  1.0000   72

   1   rms: 0.1402E+00   max: 0.2347E+01   C at   46  1   RLX: 0.639
       a =  7.000      CL =  1.2960
      Cm = -0.1256     CD =  0.01277   =>   CDf =  0.00602    CDp =  0.00676

 Side 1  free  transition at x/c =  0.2838   42
 Side 2 forced transition at x/c =  1.0000   72

   2   rms: 0.2904E-01   max: -.1775E+00   D at   42  1
       a =  7.000      CL =  1.3069
      Cm = -0.1241     CD =  0.01335   =>   CDf =  0.00641    CDp =  0.00694

 Side 1  free  transition at x/c =  0.2690   41
 Side 2 forced transition at x/c =  1.0000   72

   3   rms: 0.4804E-02   max: -.9037E-01   C at   41  1
       a =  7.000      CL =  1.3053
      Cm = -0.1238     CD =  0.01345   =>   CDf =  0.00647    CDp =  0.00698

 Side 1  free  transition at x/c =  0.2712   41
 Side 2 forced transition at x/c =  1.0000   72

   4   rms: 0.8656E-04   max: -.9463E-03   D at   43  1
       a =  7.000      CL =  1.3053
      Cm = -0.1238     CD =  0.01345   =>   CDf =  0.00645    CDp =  0.00700
 plradd ia,ip,cpol           23           0  9.12793912E-04

 Point added to stored polar  1
 Point written to save file  goe496_Re400k.base.pol                          
 Dump file unspecified or not available
 Calculating wake trajectory ...
 Calculating source influence matrix ...

 Solving BL system ...

 Side 1  free  transition at x/c =  0.2712   41
 Side 2 forced transition at x/c =  1.0000   72

   1   rms: 0.1012E+00   max: 0.1329E+01   C at   41  1
       a =  7.500      CL =  1.3465
      Cm = -0.1214     CD =  0.01447   =>   CDf =  0.00623    CDp =  0.00824

 Side 1  free  transition at x/c =  0.2271   40
 Side 2 forced transition at x/c =  1.0000   71

   2   rms: 0.2150E-01   max: 0.2431E+00   D at   41  1
       a =  7.500      CL =  1.3439
      Cm = -0.1210     CD =  0.01451   =>   CDf =  0.00668    CDp =  0.00783

 Side 1  free  transition at x/c =  0.2335   40
 Side 2 forced transition at x/c =  1.0000   71

   3   rms: 0.2356E-02   max: -.4913E-01   D at   41  1
       a =  7.500      CL =  1.3433
      Cm = -0.1209     CD =  0.01458   =>   CDf =  0.00659    CDp =  0.00799

 Side 1  free  transition at x/c =  0.2331   40
 Side 2 forced transition at x/c =  1.0000   71

   4   rms: 0.6215E-04   max: -.1217E-02   D at   41  1
       a =  7.500      CL =  1.3433
      Cm = -0.1209     CD =  0.01458   =>   CDf =  0.00659    CDp =  0.00798
 plradd ia,ip,cpol           24           0  9.12793912E-04

 Point added to stored polar  1
 Point written to save file  goe496_Re400k.base.pol                          
 Dump file unspecified or not available
 Calculating wake trajectory ...
 Calculating source influence matrix ...

 Solving BL system ...

 Side 1  free  transition at x/c =  0.2330   40
 Side 2 forced transition at x/c =  1.0000   71

   1   rms: 0.9102E-01   max: 0.8199E+00   C at   40  1
       a =  8.000      CL =  1.3815
      Cm = -0.1180     CD =  0.01571   =>   CDf =  0.00660    CDp =  0.00912

 Side 1  free  transition at x/c =  0.2011   38
 Side 2 forced transition at x/c =  1.0000   71

   2   rms: 0.1804E-01   max: 0.2524E+00   D at   39  1
       a =  8.000      CL =  1.3811
      Cm = -0.1179     CD =  0.01561   =>   CDf =  0.00670    CDp =  0.00891

 Side 1  free  transition at x/c =  0.2053   38
 Side 2 forced transition at x/c =  1.0000   71

   3   rms: 0.2023E-02   max: -.3624E-01   D at   39  1
       a =  8.000      CL =  1.3814
      Cm = -0.1179     CD =  0.01561   =>   CDf =  0.00665    CDp =  0.00895

 Side 1  free  transition at x/c =  0.2045   38
 Side 2 forced transition at x/c =  1.0000   71

   4   rms: 0.3956E-04   max: -.6410E-03   D at   39  1
       a =  8.000      CL =  1.3813
      Cm = -0.1179     CD =  0.01561   =>   CDf =  0.00666    CDp =  0.00894
 plradd ia,ip,cpol           25           0  9.12793912E-04

 Point added to stored polar  1
 Point written to save file  goe496_Re400k.base.pol                          
 Dump file unspecified or not available
 Calculating wake trajectory ...
 Calculating source influence matrix ...

 Solving BL system ...

 Side 1  free  transition at x/c =  0.2045   38
 Side 2 forced transition at x/c =  1.0000   71

   1   rms: 0.8387E-01   max: 0.5480E+00   C at   38  1
       a =  8.500      CL =  1.4208
      Cm = -0.1153     CD =  0.01656   =>   CDf =  0.00643    CDp =  0.01013

 Side 1  free  transition at x/c =  0.1655   37
 Side 2 forced transition at x/c =  1.0000   70

   2   rms: 0.2174E-01   max: 0.2623E+00   D at   38  1
       a =  8.500      CL =  1.4173
      Cm = -0.1147     CD =  0.01662   =>   CDf =  0.00679    CDp =  0.00983

 Side 1  free  transition at x/c =  0.1716   37
 Side 2 forced transition at x/c =  1.0000   70

   3   rms: 0.2461E-02   max: -.4683E-01   D at   38  1
       a =  8.500      CL =  1.4164
      Cm = -0.1145     CD =  0.01667   =>   CDf =  0.00672    CDp =  0.00995

 Side 1  free  transition at x/c =  0.1712   37
 Side 2 forced transition at x/c =  1.0000   70

   4   rms: 0.5796E-04   max: -.1136E-02   D at   38  1
       a =  8.500      CL =  1.4163
      Cm = -0.1145     CD =  0.01667   =>   CDf =  0.00673    CDp =  0.00994
 plradd ia,ip,cpol           26           0  9.12793912E-04

 Point added to stored polar  1
 Point written to save file  goe496_Re400k.base.pol                          
 Dump file unspecified or not available
 Calculating wake trajectory ...
 Calculating source influence matrix ...

 Solving BL system ...

 Side 1  free  transition at x/c =  0.1712   37
 Side 2 forced transition at x/c =  1.0000   70

   1   rms: 0.9726E-01   max: 0.1019E+01   C at   37  1   RLX: 0.804
       a =  9.000      CL =  1.4409
      Cm = -0.1112     CD =  0.01770   =>   CDf =  0.00673    CDp =  0.01097

 Side 1  free  transition at x/c =  0.1230   34
 Side 2 forced transition at x/c =  1.0000   70

   2   rms: 0.2668E-01   max: -.2194E+00   D at   34  1
       a =  9.000      CL =  1.4382
      Cm = -0.1092     CD =  0.01836   =>   CDf =  0.00699    CDp =  0.01137

 Side 1  free  transition at x/c =  0.1080   32
 Side 2 forced transition at x/c =  1.0000   70

   3   rms: 0.4180E-02   max: -.6222E-01   C at   32  1
       a =  9.000      CL =  1.4374
      Cm = -0.1091     CD =  0.01838   =>   CDf =  0.00709    CDp =  0.01129

 Side 1  free  transition at x/c =  0.1084   32
 Side 2 forced transition at x/c =  1.0000   70

   4   rms: 0.2950E-03   max: 0.6883E-02   C at   32  1
       a =  9.000      CL =  1.4374
      Cm = -0.1091     CD =  0.01838   =>   CDf =  0.00708    CDp =  0.01130

 Side 1  free  transition at x/c =  0.1083   32
 Side 2 forced transition at x/c =  1.0000   70

   5   rms: 0.3839E-05   max: -.7452E-04   C at   32  1
       a =  9.000      CL =  1.4374
      Cm = -0.1091     CD =  0.01838   =>   CDf =  0.00708    CDp =  0.01129
 plradd ia,ip,cpol           27           0  3.37533944E-04

 Point added to stored polar  1
 Point written to save file  goe496_Re400k.base.pol                          
 Dump file unspecified or not available
 Calculating wake trajectory ...
 Calculating source influence matrix ...

 Solving BL system ...

 Side 1  free  transition at x/c =  0.1083   32
 Side 2 forced transition at x/c =  1.0000   70

   1   rms: 0.2068E+00   max: 0.4471E+01   C at   32  1   RLX: 0.336
       a =  9.500      CL =  1.4417
      Cm = -0.1069     CD =  0.01918   =>   CDf =  0.00708    CDp =  0.01210

 Side 1  free  transition at x/c =  0.0796   30
 Side 2 forced transition at x/c =  1.0000   70

   2   rms: 0.9222E-01   max: 0.1715E+01   C at   30  1   RLX: 0.875
       a =  9.500      CL =  1.4468
      Cm = -0.1029     CD =  0.02073   =>   CDf =  0.00731    CDp =  0.01341

 Side 1  free  transition at x/c =  0.0566   28
 Side 2 forced transition at x/c =  1.0000   70

   3   rms: 0.1445E-01   max: -.1810E+00   D at   28  1
       a =  9.500      CL =  1.4452
      Cm = -0.1020     CD =  0.02100   =>   CDf =  0.00746    CDp =  0.01354

 Side 1  free  transition at x/c =  0.0521   28
 Side 2 forced transition at x/c =  1.0000   70

   4   rms: 0.1519E-02   max: 0.6300E-02   D at   88  1
       a =  9.500      CL =  1.4440
      Cm = -0.1018     CD =  0.02106   =>   CDf =  0.00748    CDp =  0.01358

 Side 1  free  transition at x/c =  0.0522   28
 Side 2 forced transition at x/c =  1.0000   70

   5   rms: 0.9034E-05   max: 0.1223E-03   D at   87  1
       a =  9.500      CL =  1.4440
      Cm = -0.1018     CD =  0.02106   =>   CDf =  0.00748    CDp =  0.01358
 plradd ia,ip,cpol           28           0  3.37533944E-04

 Point added to stored polar  1
 Point written to save file  goe496_Re400k.base.pol                          
 Dump file unspecified or not available
 Calculating wake trajectory ...
 Calculating source influence matrix ...

 Solving BL system ...

 Side 1  free  transition at x/c =  0.0522   28
 Side 2 forced transition at x/c =  1.0000   70

   1   rms: 0.1282E+00   max: 0.1422E+01   C at   28  1   RLX: 0.466
       a = 10.000      CL =  1.4469
      Cm = -0.0986     CD =  0.02249   =>   CDf =  0.00748    CDp =  0.01501

 Side 1  free  transition at x/c =  0.0417   27
 Side 2 forced transition at x/c =  1.0000   70

   2   rms: 0.6501E-01   max: -.6995E+00   D at   27  1   RLX: 0.715
       a = 10.000      CL =  1.4523
      Cm = -0.0966     CD =  0.02334   =>   CDf =  0.00719    CDp =  0.01615

 Side 1  free  transition at x/c =  0.0353   27
 Side 2 forced transition at x/c =  1.0000   69

   3   rms: 0.2975E-01   max: -.3784E+00   D at   27  1
       a = 10.000      CL =  1.4606
      Cm = -0.0964     CD =  0.02323   =>   CDf =  0.00745    CDp =  0.01578

 Side 1  free  transition at x/c =  0.0323   27
 Side 2 forced transition at x/c =  1.0000   69

   4   rms: 0.6601E-02   max: 0.2340E-01   D at   86  1
       a = 10.000      CL =  1.4547
      Cm = -0.0956     CD =  0.02365   =>   CDf =  0.00755    CDp =  0.01610

 Side 1  free  transition at x/c =  0.0325   27
 Side 2 forced transition at x/c =  1.0000   69

   5   rms: 0.7735E-04   max: 0.1388E-02   D at   86  1
       a = 10.000      CL =  1.4547
      Cm = -0.0956     CD =  0.02365   =>   CDf =  0.00755    CDp =  0.01610
 plradd ia,ip,cpol           29           0  3.37533944E-04

 Point added to stored polar  1
 Point written to save file  goe496_Re400k.base.pol                          
 Dump file unspecified or not available

.OPERva   c>  
 Solving BL system ...

[...]
      Cm = -0.0726     CD =  0.04535   =>   CDf =  0.00662    CDp =  0.03873

 Side 1  free  transition at x/c =  0.0171   25
 Side 2 forced transition at x/c =  1.0000   68

   2   rms: 0.1013E-01   max: 0.4513E-01   D at   73  1
       a = 13.000      CL =  1.4991
      Cm = -0.0723     CD =  0.04605   =>   CDf =  0.00655    CDp =  0.03950

 Side 1  free  transition at x/c =  0.0170   25
 Side 2 forced transition at x/c =  1.0000   68

   3   rms: 0.1020E-02   max: 0.7852E-02   D at   81  2
       a = 13.000      CL =  1.4984
      Cm = -0.0723     CD =  0.04600   =>   CDf =  0.00652    CDp =  0.03948

 Side 1  free  transition at x/c =  0.0170   25
 Side 2 forced transition at x/c =  1.0000   68

   4   rms: 0.3153E-04   max: 0.3090E-03   D at   81  2
       a = 13.000      CL =  1.4984
      Cm = -0.0723     CD =  0.04599   =>   CDf =  0.00652    CDp =  0.03947
 plradd ia,ip,cpol           42           0  1.21858670E-06

 Point added to stored polar  1
 Point written to save file  goe496_Re400k.base.pol                          
 Dump file unspecified or not available
 Calculating wake trajectory ...
 Calculating source influence matrix ...

 Solving BL system ...

 Side 1  free  transition at x/c =  0.0170   25
 Side 2 forced transition at x/c =  1.0000   68

   1   rms: 0.3389E-01   max: 0.1069E+00   D at   70  1   RLX: 0.697
       a = 13.250      CL =  1.5008
      Cm = -0.0717     CD =  0.04789   =>   CDf =  0.00652    CDp =  0.04137

 Side 1  free  transition at x/c =  0.0167   25
 Side 2 forced transition at x/c =  1.0000   68

   2   rms: 0.1078E-01   max: 0.4580E-01   D at   72  1
       a = 13.250      CL =  1.5000
      Cm = -0.0714     CD =  0.04870   =>   CDf =  0.00646    CDp =  0.04225

 Side 1  free  transition at x/c =  0.0166   25
 Side 2 forced transition at x/c =  1.0000   68

   3   rms: 0.1062E-02   max: 0.6636E-02   D at   82  2
       a = 13.250      CL =  1.4993
      Cm = -0.0714     CD =  0.04865   =>   CDf =  0.00643    CDp =  0.04222

 Side 1  free  transition at x/c =  0.0166   25
 Side 2 forced transition at x/c =  1.0000   68

   4   rms: 0.3891E-04   max: 0.3793E-03   D at   82  2
       a = 13.250      CL =  1.4993
      Cm = -0.0714     CD =  0.04864   =>   CDf =  0.00643    CDp =  0.04221
 plradd ia,ip,cpol           43           0  1.21858670E-06

 Point added to stored polar  1
 Point written to save file  goe496_Re400k.base.pol                          
 Dump file unspecified or not available
 Calculating wake trajectory ...
 Calculating source influence matrix ...

 Solving BL system ...

 Side 1  free  transition at x/c =  0.0166   25
 Side 2 forced transition at x/c =  1.0000   68

   1   rms: 0.3350E-01   max: 0.1065E+00   D at   69  1   RLX: 0.672
       a = 13.500      CL =  1.5014
      Cm = -0.0710     CD =  0.05057   =>   CDf =  0.00643    CDp =  0.04414

 Side 1  free  transition at x/c =  0.0162   25
 Side 2 forced transition at x/c =  1.0000   68

   2   rms: 0.1146E-01   max: 0.4368E-01   D at   71  1
       a = 13.500      CL =  1.5007
      Cm = -0.0707     CD =  0.05150   =>   CDf =  0.00638    CDp =  0.04512

 Side 1  free  transition at x/c =  0.0161   25
 Side 2 forced transition at x/c =  1.0000   68

   3   rms: 0.1357E-02   max: 0.8483E-02   D at   82  2
       a = 13.500      CL =  1.4998
      Cm = -0.0707     CD =  0.05144   =>   CDf =  0.00635    CDp =  0.04510

 Side 1  free  transition at x/c =  0.0161   25
 Side 2 forced transition at x/c =  1.0000   68

   4   rms: 0.5068E-04   max: 0.5473E-03   D at   82  2
       a = 13.500      CL =  1.4997
      Cm = -0.0707     CD =  0.05143   =>   CDf =  0.00634    CDp =  0.04509
 plradd ia,ip,cpol           44           0  1.21858670E-06

 Point added to stored polar  1
 Point written to save file  goe496_Re400k.base.pol                          
 Dump file unspecified or not available
 Calculating wake trajectory ...
 Calculating source influence matrix ...

 Solving BL system ...

 Side 1  free  transition at x/c =  0.0161   25
 Side 2 forced transition at x/c =  1.0000   68

   1   rms: 0.3383E-01   max: 0.1099E+00   D at   68  1   RLX: 0.647
       a = 13.750      CL =  1.5012
      Cm = -0.0704     CD =  0.05346   =>   CDf =  0.00635    CDp =  0.04711

 Side 1  free  transition at x/c =  0.0158   25
 Side 2 forced transition at x/c =  1.0000   68

   2   rms: 0.1270E-01   max: 0.4652E-01   D at   69  1
       a = 13.750      CL =  1.4999
      Cm = -0.0701     CD =  0.05457   =>   CDf =  0.00630    CDp =  0.04827

 Side 1  free  transition at x/c =  0.0157   25
 Side 2 forced transition at x/c =  1.0000   68

   3   rms: 0.1841E-02   max: 0.1226E-01   D at   82  2
       a = 13.750      CL =  1.4987
      Cm = -0.0701     CD =  0.05451   =>   CDf =  0.00627    CDp =  0.04825

 Side 1  free  transition at x/c =  0.0157   25
 Side 2 forced transition at x/c =  1.0000   68

   4   rms: 0.8550E-04   max: 0.8188E-03   D at   82  2
       a = 13.750      CL =  1.4987
      Cm = -0.0701     CD =  0.05449   =>   CDf =  0.00626    CDp =  0.04823
 plradd ia,ip,cpol           45           0  1.21858670E-06

 Point added to stored polar  1
 Point written to save file  goe496_Re400k.base.pol                          
 Dump file unspecified or not available
 Calculating wake trajectory ...
 Calculating source influence matrix ...

 Solving BL system ...

 Side 1  free  transition at x/c =  0.0157   25
 Side 2 forced transition at x/c =  1.0000   68

   1   rms: 0.3458E-01   max: 0.1154E+00   T at   25  1   RLX: 0.622
       a = 14.000      CL =  1.4992
      Cm = -0.0698     CD =  0.05663   =>   CDf =  0.00626    CDp =  0.05036

 Side 1  free  transition at x/c =  0.0154   25
 Side 2 forced transition at x/c =  1.0000   68

   2   rms: 0.1482E-01   max: 0.5216E-01   D at   68  1
       a = 14.000      CL =  1.4969
      Cm = -0.0696     CD =  0.05800   =>   CDf =  0.00622    CDp =  0.05179

 Side 1  free  transition at x/c =  0.0153   25
 Side 2 forced transition at x/c =  1.0000   68

   3   rms: 0.2171E-02   max: 0.1117E-01   D at   83  2
       a = 14.000      CL =  1.4954
      Cm = -0.0695     CD =  0.05795   =>   CDf =  0.00618    CDp =  0.05177

 Side 1  free  transition at x/c =  0.0153   25
 Side 2 forced transition at x/c =  1.0000   68

   4   rms: 0.8950E-04   max: 0.8935E-03   D at   83  2
       a = 14.000      CL =  1.4954
      Cm = -0.0695     CD =  0.05793   =>   CDf =  0.00618    CDp =  0.05176
 plradd ia,ip,cpol           46           0  1.21858670E-06

 Point added to stored polar  1
 Point written to save file  goe496_Re400k.base.pol                          
 Dump file unspecified or not available
 Calculating wake trajectory ...
 Calculating source influence matrix ...

 Solving BL system ...

 Side 1  free  transition at x/c =  0.0153   25
 Side 2 forced transition at x/c =  1.0000   68

   1   rms: 0.3932E-01   max: 0.1241E+00   T at   25  1   RLX: 0.597
       a = 14.250      CL =  1.4942
      Cm = -0.0692     CD =  0.06032   =>   CDf =  0.00570    CDp =  0.05461

 Side 1  free  transition at x/c =  0.0150   26
 Side 2 forced transition at x/c =  1.0000   67

   2   rms: 0.2097E-01   max: -.6863E-01   C at   67  2
       a = 14.250      CL =  1.4902
      Cm = -0.0686     CD =  0.06209   =>   CDf =  0.00611    CDp =  0.05598

 Side 1  free  transition at x/c =  0.0148   25
 Side 2 forced transition at x/c =  1.0000   67

   3   rms: 0.3862E-02   max: -.3739E-01   D at   25  1
       a = 14.250      CL =  1.4899
      Cm = -0.0688     CD =  0.06187   =>   CDf =  0.00606    CDp =  0.05581

 Side 1  free  transition at x/c =  0.0148   25
 Side 2 forced transition at x/c =  1.0000   67

   4   rms: 0.2448E-03   max: -.1651E-02   C at   67  2
       a = 14.250      CL =  1.4900
      Cm = -0.0688     CD =  0.06180   =>   CDf =  0.00606    CDp =  0.05574

 Side 1  free  transition at x/c =  0.0148   25
 Side 2 forced transition at x/c =  1.0000   67

   5   rms: 0.1661E-04   max: 0.2622E-03   C at   67  2
       a = 14.250      CL =  1.4900
      Cm = -0.0688     CD =  0.06180   =>   CDf =  0.00606    CDp =  0.05574
 plradd ia,ip,cpol           47           0  1.21858670E-06

 Point added to stored polar  1
 Point written to save file  goe496_Re400k.base.pol                          
 Dump file unspecified or not available
 Calculating wake trajectory ...
 Calculating source influence matrix ...

 Solving BL system ...

 Side 1  free  transition at x/c =  0.0148   25
 Side 2 forced transition at x/c =  1.0000   67

   1   rms: 0.3015E-01   max: 0.1303E+00   T at   25  1   RLX: 0.579
       a = 14.500      CL =  1.4932
      Cm = -0.0688     CD =  0.06352   =>   CDf =  0.00606    CDp =  0.05746

 Side 1  free  transition at x/c =  0.0147   25
 Side 2 forced transition at x/c =  1.0000   67

   2   rms: 0.1296E-01   max: 0.4521E-01   T at   25  1
       a = 14.500      CL =  1.4939
      Cm = -0.0688     CD =  0.06477   =>   CDf =  0.00598    CDp =  0.05879

 Side 1  free  transition at x/c =  0.0146   25
 Side 2 forced transition at x/c =  1.0000   67

   3   rms: 0.1849E-02   max: 0.1079E-01   D at   82  2
       a = 14.500      CL =  1.4927
      Cm = -0.0687     CD =  0.06471   =>   CDf =  0.00592    CDp =  0.05879

 Side 1  free  transition at x/c =  0.0146   25
 Side 2 forced transition at x/c =  1.0000   67

   4   rms: 0.1220E-03   max: 0.9331E-03   D at   82  2
       a = 14.500      CL =  1.4926
      Cm = -0.0687     CD =  0.06469   =>   CDf =  0.00592    CDp =  0.05877

 Side 1  free  transition at x/c =  0.0146   25
 Side 2 forced transition at x/c =  1.0000   67

   5   rms: 0.6036E-05   max: -.9539E-04   C at   67  2
       a = 14.500      CL =  1.4926
      Cm = -0.0687     CD =  0.06469   =>   CDf =  0.00592    CDp =  0.05877
 plradd ia,ip,cpol           48           0  1.21858670E-06

 Point added to stored polar  1
 Point written to save file  goe496_Re400k.base.pol                          
 Dump file unspecified or not available
 Calculating wake trajectory ...
 Calculating source influence matrix ...

 Solving BL system ...

 Side 1  free  transition at x/c =  0.0146   25
 Side 2 forced transition at x/c =  1.0000   67

   1   rms: 0.3019E-01   max: 0.1219E+00   T at   25  1   RLX: 0.562
       a = 14.750      CL =  1.4952
      Cm = -0.0688     CD =  0.06652   =>   CDf =  0.00592    CDp =  0.06059

 Side 1  free  transition at x/c =  0.0144   25
 Side 2 forced transition at x/c =  1.0000   67

   2   rms: 0.1376E-01   max: 0.4588E-01   D at   66  1
       a = 14.750      CL =  1.4955
      Cm = -0.0688     CD =  0.06793   =>   CDf =  0.00585    CDp =  0.06208

 Side 1  free  transition at x/c =  0.0143   25
 Side 2 forced transition at x/c =  1.0000   67

   3   rms: 0.2021E-02   max: 0.9975E-02   D at   83  2
       a = 14.750      CL =  1.4942
      Cm = -0.0688     CD =  0.06784   =>   CDf =  0.00579    CDp =  0.06206

 Side 1  free  transition at x/c =  0.0143   25
 Side 2 forced transition at x/c =  1.0000   67

   4   rms: 0.1524E-03   max: 0.1065E-02   D at   82  2
       a = 14.750      CL =  1.4941
      Cm = -0.0688     CD =  0.06782   =>   CDf =  0.00578    CDp =  0.06204

 Side 1  free  transition at x/c =  0.0143   25
 Side 2 forced transition at x/c =  1.0000   67

   5   rms: 0.8163E-05   max: -.1270E-03   C at   67  2
       a = 14.750      CL =  1.4941
      Cm = -0.0688     CD =  0.06782   =>   CDf =  0.00578    CDp =  0.06203
 plradd ia,ip,cpol           49           0  1.21858670E-06

 Point added to stored polar  1
 Point written to save file  goe496_Re400k.base.pol                          
 Dump file unspecified or not available
 Calculating wake trajectory ...
 Calculating source influence matrix ...

 Solving BL system ...

 Side 1  free  transition at x/c =  0.0143   25
 Side 2 forced transition at x/c =  1.0000   67

   1   rms: 0.3029E-01   max: 0.9234E-01   D at   63  1   RLX: 0.546
       a = 15.000      CL =  1.4962
      Cm = -0.0688     CD =  0.06970   =>   CDf =  0.00579    CDp =  0.06391

 Side 1  free  transition at x/c =  0.0141   25
 Side 2 forced transition at x/c =  1.0000   67

   2   rms: 0.1456E-01   max: 0.4858E-01   D at   65  1
       a = 15.000      CL =  1.4964
      Cm = -0.0689     CD =  0.07126   =>   CDf =  0.00571    CDp =  0.06555

 Side 1  free  transition at x/c =  0.0140   25
 Side 2 forced transition at x/c =  1.0000   67

   3   rms: 0.2225E-02   max: 0.1172E-01   D at   83  2
       a = 15.000      CL =  1.4949
      Cm = -0.0689     CD =  0.07117   =>   CDf =  0.00565    CDp =  0.06552

 Side 1  free  transition at x/c =  0.0140   25
 Side 2 forced transition at x/c =  1.0000   67

   4   rms: 0.1363E-03   max: 0.1233E-02   D at   83  2
       a = 15.000      CL =  1.4948
      Cm = -0.0689     CD =  0.07114   =>   CDf =  0.00565    CDp =  0.06549

 Side 1  free  transition at x/c =  0.0140   25
 Side 2 forced transition at x/c =  1.0000   67

   5   rms: 0.4077E-05   max: -.6968E-04   C at   67  2
       a = 15.000      CL =  1.4948
      Cm = -0.0689     CD =  0.07114   =>   CDf =  0.00565    CDp =  0.06549
 plradd ia,ip,cpol           50           0  1.21858670E-06

 Point added to stored polar  1
 Point written to save file  goe496_Re400k.base.pol                          
 Dump file unspecified or not available
 Calculating wake trajectory ...
 Calculating source influence matrix ...

 Solving BL system ...

 Side 1  free  transition at x/c =  0.0140   25
 Side 2 forced transition at x/c =  1.0000   67

   1   rms: 0.3033E-01   max: 0.9232E-01   D at   62  1   RLX: 0.530
       a = 15.250      CL =  1.4967
      Cm = -0.0689     CD =  0.07305   =>   CDf =  0.00565    CDp =  0.06740

 Side 1  free  transition at x/c =  0.0139   25
 Side 2 forced transition at x/c =  1.0000   67

   2   rms: 0.1490E-01   max: 0.5161E-01   D at   65  1
       a = 15.250      CL =  1.4966
      Cm = -0.0691     CD =  0.07477   =>   CDf =  0.00558    CDp =  0.06919

 Side 1  free  transition at x/c =  0.0138   25
 Side 2 forced transition at x/c =  1.0000   67

   3   rms: 0.2422E-02   max: 0.1284E-01   D at   83  2
       a = 15.250      CL =  1.4950
      Cm = -0.0691     CD =  0.07467   =>   CDf =  0.00552    CDp =  0.06915

 Side 1  free  transition at x/c =  0.0138   25
 Side 2 forced transition at x/c =  1.0000   67

   4   rms: 0.1892E-03   max: 0.2275E-02   D at   83  2
       a = 15.250      CL =  1.4949
      Cm = -0.0691     CD =  0.07463   =>   CDf =  0.00551    CDp =  0.06911

 Side 1  free  transition at x/c =  0.0138   25
 Side 2 forced transition at x/c =  1.0000   67

   5   rms: 0.5197E-05   max: 0.7832E-04   D at   83  2
       a = 15.250      CL =  1.4949
      Cm = -0.0691     CD =  0.07463   =>   CDf =  0.00551    CDp =  0.06911
 plradd ia,ip,cpol           51           0  1.21858670E-06

 Point added to stored polar  1
 Point written to save file  goe496_Re400k.base.pol                          
 Dump file unspecified or not available
 Calculating wake trajectory ...
 Calculating source influence matrix ...

 Solving BL system ...

 Side 1  free  transition at x/c =  0.0138   25
 Side 2 forced transition at x/c =  1.0000   67

   1   rms: 0.2999E-01   max: 0.9263E-01   D at   61  1   RLX: 0.514
       a = 15.500      CL =  1.4965
      Cm = -0.0692     CD =  0.07657   =>   CDf =  0.00552    CDp =  0.07105

 Side 1  free  transition at x/c =  0.0136   25
 Side 2 forced transition at x/c =  1.0000   67

   2   rms: 0.1524E-01   max: 0.5471E-01   D at   64  1
       a = 15.500      CL =  1.4962
      Cm = -0.0695     CD =  0.07843   =>   CDf =  0.00545    CDp =  0.07299

 Side 1  free  transition at x/c =  0.0135   25
 Side 2 forced transition at x/c =  1.0000   67

   3   rms: 0.2718E-02   max: 0.1475E-01   D at   83  2
       a = 15.500      CL =  1.4944
      Cm = -0.0695     CD =  0.07831   =>   CDf =  0.00538    CDp =  0.07293

 Side 1  free  transition at x/c =  0.0135   25
 Side 2 forced transition at x/c =  1.0000   67

   4   rms: 0.1848E-03   max: -.1726E-02   C at   67  2
       a = 15.500      CL =  1.4943
      Cm = -0.0695     CD =  0.07826   =>   CDf =  0.00538    CDp =  0.07288

 Side 1  free  transition at x/c =  0.0135   25
 Side 2 forced transition at x/c =  1.0000   67

   5   rms: 0.5059E-05   max: -.7609E-04   C at   67  2
       a = 15.500      CL =  1.4943
      Cm = -0.0695     CD =  0.07826   =>   CDf =  0.00538    CDp =  0.07288
 plradd ia,ip,cpol           52           0  1.21858670E-06

 Point added to stored polar  1
 Point written to save file  goe496_Re400k.base.pol                          
 Dump file unspecified or not available
 Calculating wake trajectory ...
 Calculating source influence matrix ...

 Solving BL system ...

 Side 1  free  transition at x/c =  0.0135   25
 Side 2 forced transition at x/c =  1.0000   67

   1   rms: 0.2993E-01   max: 0.9348E-01   D at   60  1   RLX: 0.500
       a = 15.750      CL =  1.4957
      Cm = -0.0697     CD =  0.08025   =>   CDf =  0.00538    CDp =  0.07487

 Side 1  free  transition at x/c =  0.0134   25
 Side 2 forced transition at x/c =  1.0000   67

   2   rms: 0.1559E-01   max: 0.5423E-01   D at   63  1
       a = 15.750      CL =  1.4953
      Cm = -0.0700     CD =  0.08226   =>   CDf =  0.00532    CDp =  0.07694

 Side 1  free  transition at x/c =  0.0133   25
 Side 2 forced transition at x/c =  1.0000   67

   3   rms: 0.2966E-02   max: 0.1320E-01   D at   83  2
       a = 15.750      CL =  1.4934
      Cm = -0.0700     CD =  0.08212   =>   CDf =  0.00525    CDp =  0.07688

 Side 1  free  transition at x/c =  0.0133   25
 Side 2 forced transition at x/c =  1.0000   67

   4   rms: 0.2229E-03   max: -.1987E-02   C at   67  2
       a = 15.750      CL =  1.4933
      Cm = -0.0700     CD =  0.08206   =>   CDf =  0.00524    CDp =  0.07682

 Side 1  free  transition at x/c =  0.0133   25
 Side 2 forced transition at x/c =  1.0000   67

   5   rms: 0.6465E-05   max: -.9901E-04   C at   67  2
       a = 15.750      CL =  1.4933
      Cm = -0.0700     CD =  0.08206   =>   CDf =  0.00524    CDp =  0.07681
 plradd ia,ip,cpol           53           0  1.21858670E-06

 Point added to stored polar  1
 Point written to save file  goe496_Re400k.base.pol                          
 Dump file unspecified or not available
 Calculating wake trajectory ...
 Calculating source influence matrix ...

 Solving BL system ...

 Side 1  free  transition at x/c =  0.0133   25
 Side 2 forced transition at x/c =  1.0000   67

   1   rms: 0.2967E-01   max: 0.9550E-01   D at   59  1   RLX: 0.485
       a = 16.000      CL =  1.4943
      Cm = -0.0703     CD =  0.08408   =>   CDf =  0.00525    CDp =  0.07883

 Side 1  free  transition at x/c =  0.0132   25
 Side 2 forced transition at x/c =  1.0000   67

   2   rms: 0.1578E-01   max: 0.5406E-01   D at   62  1
       a = 16.000      CL =  1.4939
      Cm = -0.0707     CD =  0.08618   =>   CDf =  0.00518    CDp =  0.08100

 Side 1  free  transition at x/c =  0.0131   25
 Side 2 forced transition at x/c =  1.0000   67

   3   rms: 0.3293E-02   max: 0.1509E-01   D at   84  2
       a = 16.000      CL =  1.4918
      Cm = -0.0707     CD =  0.08609   =>   CDf =  0.00511    CDp =  0.08098

 Side 1  free  transition at x/c =  0.0131   25
 Side 2 forced transition at x/c =  1.0000   67

   4   rms: 0.2706E-03   max: -.2372E-02   C at   67  2
       a = 16.000      CL =  1.4917
      Cm = -0.0707     CD =  0.08602   =>   CDf =  0.00511    CDp =  0.08091

 Side 1  free  transition at x/c =  0.0131   25
 Side 2 forced transition at x/c =  1.0000   67

   5   rms: 0.9341E-05   max: -.1548E-03   C at   67  2
       a = 16.000      CL =  1.4917
      Cm = -0.0707     CD =  0.08601   =>   CDf =  0.00511    CDp =  0.08091
 plradd ia,ip,cpol           54           0  1.21858670E-06

 Point added to stored polar  1
 Point written to save file  goe496_Re400k.base.pol                          
 Dump file unspecified or not available

.OPERva   c>  
 Polar accumulation disabled

.OPERv   c>  
 XFOIL   c>  
 XFOIL   c>  