  
       XFOIL         Version 6.99
  
 Calculated polar for: GOE 493 AIRFOIL                                 
  
 1 1 Reynolds number fixed          Mach number fixed         
  
 xtrf =   1.000 (top)        1.000 (bottom)  
 Mach =   0.000     Re =     0.600 e 6     Ncrit =   9.000
  
   alpha    CL        CD       CDp       CM     Top_Xtr  Bot_Xtr
  ------ -------- --------- --------- -------- -------- --------
  -4.000   0.0049   0.00841   0.00271  -0.1060   0.8176   0.2849
  -3.500   0.0554   0.00805   0.00250  -0.1051   0.8055   0.3457
  -3.000   0.1064   0.00780   0.00236  -0.1042   0.7931   0.3974
  -2.500   0.1585   0.00764   0.00226  -0.1034   0.7803   0.4416
  -2.000   0.2113   0.00755   0.00218  -0.1028   0.7671   0.4757
  -1.500   0.2636   0.00748   0.00212  -0.1020   0.7524   0.5079
  -1.000   0.3151   0.00743   0.00208  -0.1010   0.7357   0.5355
  -0.500   0.3664   0.00741   0.00207  -0.1000   0.7190   0.5658
   0.500   0.4671   0.00741   0.00210  -0.0977   0.6837   0.6256
   1.000   0.5169   0.00741   0.00217  -0.0964   0.6676   0.6604
   1.500   0.5657   0.00741   0.00230  -0.0949   0.6526   0.7060
   2.000   0.6137   0.00744   0.00245  -0.0932   0.6378   0.7569
   2.500   0.6606   0.00747   0.00261  -0.0913   0.6230   0.8105
   3.000   0.7072   0.00747   0.00279  -0.0892   0.6082   0.8732
   3.500   0.7890   0.00765   0.00308  -0.0949   0.5866   0.9512
   4.000   0.8802   0.00800   0.00338  -0.1030   0.5636   0.9927
   4.500   0.9245   0.00829   0.00360  -0.1010   0.5394   1.0000
   5.000   0.9592   0.00860   0.00384  -0.0968   0.5159   1.0000
   5.500   0.9907   0.00899   0.00413  -0.0919   0.4855   1.0000
   6.000   1.0172   0.00943   0.00447  -0.0861   0.4498   1.0000
   6.500   1.0401   0.01007   0.00493  -0.0797   0.4061   1.0000
   7.000   1.0602   0.01100   0.00562  -0.0733   0.3522   1.0000
   7.500   1.0839   0.01201   0.00643  -0.0678   0.3086   1.0000
   8.000   1.1058   0.01322   0.00740  -0.0624   0.2538   1.0000
   8.500   1.0997   0.01590   0.00939  -0.0533   0.1372   1.0000
   9.000   1.1031   0.01847   0.01153  -0.0464   0.0640   1.0000
   9.500   1.1245   0.02025   0.01325  -0.0423   0.0485   1.0000
  10.000   1.1471   0.02209   0.01510  -0.0387   0.0431   1.0000
  10.000   1.1471   0.02209   0.01510  -0.0387   0.0431   1.0000
  10.250   1.1580   0.02306   0.01612  -0.0370   0.0414   1.0000
  10.500   1.1710   0.02393   0.01705  -0.0356   0.0402   1.0000
  10.750   1.1824   0.02493   0.01810  -0.0341   0.0389   1.0000
  11.000   1.1925   0.02605   0.01926  -0.0326   0.0378   1.0000
  11.250   1.2006   0.02732   0.02057  -0.0309   0.0366   1.0000
  11.500   1.2046   0.02894   0.02224  -0.0290   0.0351   1.0000
  11.750   1.2093   0.03057   0.02395  -0.0273   0.0344   1.0000
  12.000   1.2207   0.03175   0.02519  -0.0263   0.0337   1.0000
  12.250   1.2298   0.03312   0.02663  -0.0251   0.0329   1.0000
  12.500   1.2388   0.03454   0.02810  -0.0241   0.0320   1.0000
  12.750   1.2453   0.03622   0.02984  -0.0229   0.0312   1.0000
  13.000   1.2520   0.03791   0.03157  -0.0220   0.0301   1.0000
  13.250   1.2538   0.04007   0.03378  -0.0208   0.0293   1.0000
  13.500   1.2477   0.04298   0.03677  -0.0192   0.0283   1.0000
  13.750   1.2581   0.04450   0.03836  -0.0187   0.0278   1.0000
  14.000   1.2674   0.04612   0.04006  -0.0182   0.0270   1.0000
  14.250   1.2748   0.04796   0.04197  -0.0177   0.0263   1.0000
  14.500   1.2807   0.04998   0.04404  -0.0172   0.0254   1.0000
  14.750   1.2862   0.05207   0.04618  -0.0168   0.0247   1.0000
  15.000   1.2887   0.05449   0.04864  -0.0163   0.0240   1.0000
  15.250   1.2837   0.05755   0.05175  -0.0154   0.0232   1.0000
  15.500   1.2890   0.05977   0.05406  -0.0152   0.0227   1.0000
  15.750   1.2963   0.06188   0.05626  -0.0152   0.0220   1.0000
  16.000   1.3006   0.06429   0.05875  -0.0151   0.0214   1.0000
