
 ===================================================
  XFOIL Version 6.99
  Copyright (C) 2000   Mark Drela, Harold Youngren

  This software comes with ABSOLUTELY NO WARRANTY,
    subject to the GNU General Public License.

  Caveat computor
 ===================================================

 File  xfoil.def  not found

   QUIT    Exit program

  .OPER    Direct operating point(s)
  .MDES    Complex mapping design routine
  .QDES    Surface speed design routine
  .GDES    Geometry design routine

   SAVE f  Write airfoil to labeled coordinate file
   PSAV f  Write airfoil to plain coordinate file
   ISAV f  Write airfoil to ISES coordinate file
   MSAV f  Write airfoil to MSES coordinate file
   REVE    Reverse written-airfoil node ordering

   LOAD f  Read buffer airfoil from coordinate file
   NACA i  Set NACA 4,5-digit airfoil and buffer airfoil
   INTE    Set buffer airfoil by interpolating two airfoils
   NORM    Buffer airfoil normalization toggle
   XYCM rr Change CM reference location, currently  0.25000 0.00000

   BEND    Display structural properties of current airfoil

   PCOP    Set current-airfoil panel nodes directly from buffer airfoil points
   PANE    Set current-airfoil panel nodes ( 160 ) based on curvature
  .PPAR    Show/change paneling

  .PLOP    Plotting options

   WDEF f  Write  current-settings file
   RDEF f  Reread current-settings file
   NAME s  Specify new airfoil name
   NINC    Increment name version number

   Z       Zoom    | (available in all menus)
   U       Unzoom  | 

 XFOIL   c>  
 Labeled airfoil file.  Name:  GOE 460 AIRFOIL                                 

 Number of input coordinate points:  33
 Counterclockwise ordering
 Max thickness =     0.205000  at x =   0.300
 Max camber    =     0.000000  at x =   0.050

  LE  x,y  =   0.00000   0.00000  |   Chord =   1.00000
  TE  x,y  =   1.00000   0.00000  |

 Current airfoil nodes set from buffer airfoil nodes (  33 )

 WARNING: Poor input coordinate distribution
          Excessive panel angle   48.9  at i =  17
          Repaneling with PANE and/or PPAR suggested
           (doing GDES,CADD before repaneling _may_
            improve excessively coarse LE spacing

 XFOIL   c>  
 XFOIL   c>  
 Sharp trailing edge

 Paneling parameters used...
   Number of panel nodes       160
   Panel bunching parameter    1.000
   TE/LE panel density ratio   0.150
   Refined-area/LE panel density ratio    0.200
   Top    side refined area x/c limits  1.000 1.000
   Bottom side refined area x/c limits  1.000 1.000

 XFOIL   c>  
.OPERi   c>  
 Xtr/c     =  1.0000    top    side
 Xtr/c     =  1.0000    bottom side
 Ncrit     =    9.00   ( 0.070 % turb. level )
 Vacc      =  0.0100

 Klag  =  5.6000     Uxwt  =    1.00
 A     =  6.7000     B     =  0.7500       KCt = 0.01485
 CtiniK=  1.8000     CtiniX=  3.3000

..VPAR   c>  
..VPAR   c>  
.OPERi   c>  
 M  =    0.0000
 Re =    400000

.OPERv   c>  
.OPERv   c>  
.OPERv   c>  
 Polar  1 newly created for accumulation
 Airfoil archived with polar: GOE 460 AIRFOIL                                 

Enter  polar save filename  OR  <return> for no file   s>  
 New polar save file available

Enter  polar dump filename  OR  <return> for no file   s>  
 Polar dump file will NOT be written

 Polar accumulation enabled

.OPERva   c>   Calculating unit vorticity distributions ...
 Calculating wake trajectory ...
 Calculating source influence matrix ...

 Solving BL system ...

 Initializing BL ...
    side            1  ...
 MRCHUE: Inverse mode at  52     Hk =   4.504
 MRCHUE: Inverse mode at  53     Hk =   5.217
 MRCHUE: Inverse mode at  54     Hk =   5.907
 MRCHUE: Inverse mode at  55     Hk =   6.578
 MRCHUE: Inverse mode at  56     Hk =   7.234
 MRCHUE: Inverse mode at  57     Hk =   7.880
 MRCHUE: Inverse mode at  58     Hk =   8.522
 MRCHUE: Inverse mode at  59     Hk =   6.368
 MRCHUE: Inverse mode at  60     Hk =   4.199
 MRCHUE: Inverse mode at  61     Hk =   2.762
 MRCHUE: Inverse mode at  74     Hk =   2.500
    side            2  ...
 MRCHUE: Inverse mode at  43     Hk =   4.009
 MRCHUE: Inverse mode at  44     Hk =   5.166
 MRCHUE: Inverse mode at  45     Hk =   6.343
 MRCHUE: Inverse mode at  46     Hk =   7.524
 MRCHUE: Inverse mode at  47     Hk =   8.685
 MRCHUE: Inverse mode at  48     Hk =   6.494
 MRCHUE: Inverse mode at  49     Hk =   2.751
 MRCHUE: Inverse mode at  84     Hk =   2.500
 MRCHUE: Inverse mode at  85     Hk =   2.500
 MRCHUE: Inverse mode at  86     Hk =   2.500
 MRCHUE: Inverse mode at  87     Hk =   2.500
 MRCHUE: Convergence failed at  88  side 2    Res =  0.1057E+02

 MRCHDU: Convergence failed at  88  side 2    Res =  0.1981E+01
 Side 1  free  transition at x/c =  0.7287   59
 Side 2  free  transition at x/c =  0.2619   48

   1   rms: 0.3258E+00   max: -.1586E+01   T at   48  2   RLX: 0.315
       a = -4.000      CL = -0.4257
      Cm = -0.0009     CD =  0.00797   =>   CDf =  0.00777    CDp =  0.00020

 Side 1  free  transition at x/c =  0.7442   60
 Side 2  free  transition at x/c =  0.2775   49

   2   rms: 0.2720E+00   max: -.2416E+01   T at   60  1   RLX: 0.207
       a = -4.000      CL = -0.4063
      Cm = -0.0055     CD =  0.00822   =>   CDf =  0.00756    CDp =  0.00065

 Side 1  free  transition at x/c =  0.7542   60
 Side 2  free  transition at x/c =  0.2874   50

   3   rms: 0.2764E+00   max: 0.2443E+01   D at    3  2   RLX: 0.317
       a = -4.000      CL = -0.3542
      Cm = -0.0175     CD =  0.00910   =>   CDf =  0.00761    CDp =  0.00149

 Side 1  free  transition at x/c =  0.7759   62
 Side 2  free  transition at x/c =  0.3360   51

   4   rms: 0.5714E+00   max: -.1235E+02   C at   51  2   RLX: 0.041
       a = -4.000      CL = -0.3556
      Cm = -0.0183     CD =  0.00828   =>   CDf =  0.00682    CDp =  0.00145

 Side 1  free  transition at x/c =  0.7775   62
 Side 2  free  transition at x/c =  0.3359   51

   5   rms: 0.1569E+00   max: -.1434E+01   T at   51  2   RLX: 0.349
       a = -4.000      CL = -0.3206
      Cm = -0.0258     CD =  0.00882   =>   CDf =  0.00693    CDp =  0.00189

 MRCHDU: Convergence failed at  57  side 2    Res =  0.2036E+01
 Side 1  free  transition at x/c =  0.7941   63
 Side 2  free  transition at x/c =  0.4453   57

   6   rms: 0.8997E-01   max: -.6625E+00   C at   63  1   RLX: 0.755
       a = -4.000      CL = -0.3373
      Cm = -0.0239     CD =  0.00979   =>   CDf =  0.00621    CDp =  0.00358

 Side 1  free  transition at x/c =  0.8148   64
 Side 2  free  transition at x/c =  0.4757   59

   7   rms: 0.3137E-01   max: -.2524E+00   T at   64  1
       a = -4.000      CL = -0.3121
      Cm = -0.0294     CD =  0.01024   =>   CDf =  0.00593    CDp =  0.00431

 Side 1  free  transition at x/c =  0.8337   65
 Side 2  free  transition at x/c =  0.4657   58

   8   rms: 0.1001E-01   max: 0.1022E+00   D at   65  1
       a = -4.000      CL = -0.3150
      Cm = -0.0289     CD =  0.01028   =>   CDf =  0.00582    CDp =  0.00446

 Side 1  free  transition at x/c =  0.8317   65
 Side 2  free  transition at x/c =  0.4614   58

   9   rms: 0.1515E-02   max: 0.1171E-01   C at   65  1
       a = -4.000      CL = -0.3164
      Cm = -0.0286     CD =  0.01031   =>   CDf =  0.00584    CDp =  0.00447

 Side 1  free  transition at x/c =  0.8312   65
 Side 2  free  transition at x/c =  0.4613   58

  10   rms: 0.2382E-04   max: -.1710E-03   D at   67  1
       a = -4.000      CL = -0.3164
      Cm = -0.0286     CD =  0.01031   =>   CDf =  0.00584    CDp =  0.00447
 plradd ia,ip,cpol            1           0  7.72844926E-02

 Point added to stored polar  1
 Point written to save file  goe460_Re400k.base.pol                          
 Dump file unspecified or not available
 Calculating wake trajectory ...
 Calculating source influence matrix ...

 Solving BL system ...

 Side 1  free  transition at x/c =  0.8312   65
 Side 2  free  transition at x/c =  0.4613   58

   1   rms: 0.6701E-01   max: 0.3114E+00   T at   65  1
       a = -3.500      CL = -0.2833
      Cm = -0.0237     CD =  0.01016   =>   CDf =  0.00590    CDp =  0.00425

 Side 1  free  transition at x/c =  0.8073   65
 Side 2  free  transition at x/c =  0.4781   58

   2   rms: 0.1837E-01   max: -.2464E+00   D at   65  1
       a = -3.500      CL = -0.2771
      Cm = -0.0249     CD =  0.01011   =>   CDf =  0.00594    CDp =  0.00417

 Side 1  free  transition at x/c =  0.8092   65
 Side 2  free  transition at x/c =  0.4822   58

   3   rms: 0.2737E-02   max: 0.2887E-01   C at   65  1
       a = -3.500      CL = -0.2791
      Cm = -0.0245     CD =  0.01014   =>   CDf =  0.00586    CDp =  0.00428

 Side 1  free  transition at x/c =  0.8081   65
 Side 2  free  transition at x/c =  0.4821   58

   4   rms: 0.6341E-04   max: -.8778E-03   D at   67  1
       a = -3.500      CL = -0.2791
      Cm = -0.0245     CD =  0.01014   =>   CDf =  0.00587    CDp =  0.00427
 plradd ia,ip,cpol            2           0  7.72844926E-02

 Point added to stored polar  1
 Point written to save file  goe460_Re400k.base.pol                          
 Dump file unspecified or not available
 Calculating wake trajectory ...
 Calculating source influence matrix ...

 Solving BL system ...

 Side 1  free  transition at x/c =  0.8081   65
 Side 2  free  transition at x/c =  0.4821   58

   1   rms: 0.7113E-01   max: -.2259E+00   C at   58  2
       a = -3.000      CL = -0.2355
      Cm = -0.0218     CD =  0.01000   =>   CDf =  0.00593    CDp =  0.00407

 Side 1  free  transition at x/c =  0.7854   65
 Side 2  free  transition at x/c =  0.5003   58
 idif Ue xi dudx           1  9.29402411E-02  2.40147114E-03   38.701378    
 Uenew xinew           2  1.53631670E-03  3.96966934E-05

   2   rms: 0.1952E-01   max: -.2638E+00   D at   65  1
       a = -3.000      CL = -0.2395
      Cm = -0.0209     CD =  0.00998   =>   CDf =  0.00587    CDp =  0.00410

 Side 1  free  transition at x/c =  0.7851   64
 Side 2  free  transition at x/c =  0.5026   59

   3   rms: 0.1880E-02   max: 0.2172E-01   C at   64  1
       a = -3.000      CL = -0.2396
      Cm = -0.0209     CD =  0.01000   =>   CDf =  0.00591    CDp =  0.00409

 Side 1  free  transition at x/c =  0.7844   64
 Side 2  free  transition at x/c =  0.5027   59

   4   rms: 0.3519E-03   max: -.4499E-02   D at    4  2
       a = -3.000      CL = -0.2396
      Cm = -0.0209     CD =  0.01000   =>   CDf =  0.00592    CDp =  0.00408

 Side 1  free  transition at x/c =  0.7844   64
 Side 2  free  transition at x/c =  0.5027   59

   5   rms: 0.8134E-06   max: 0.8831E-05   D at   65  1
       a = -3.000      CL = -0.2396
      Cm = -0.0209     CD =  0.01000   =>   CDf =  0.00592    CDp =  0.00408
 plradd ia,ip,cpol            3           0  0.15495406    

 Point added to stored polar  1
 Point written to save file  goe460_Re400k.base.pol                          
 Dump file unspecified or not available
 Calculating wake trajectory ...
 Calculating source influence matrix ...

 Solving BL system ...

 Side 1  free  transition at x/c =  0.7844   64
 Side 2  free  transition at x/c =  0.5027   59

   1   rms: 0.7566E-01   max: -.3514E+00   D at   65  1
       a = -2.500      CL = -0.1915
      Cm = -0.0191     CD =  0.00993   =>   CDf =  0.00597    CDp =  0.00396

 Side 1  free  transition at x/c =  0.7629   64
 Side 2  free  transition at x/c =  0.5253   59

   2   rms: 0.2481E-01   max: -.2996E+00   D at   64  1
       a = -2.500      CL = -0.2012
      Cm = -0.0171     CD =  0.00984   =>   CDf =  0.00589    CDp =  0.00396

 Side 1  free  transition at x/c =  0.7609   63
 Side 2  free  transition at x/c =  0.5244   59

   3   rms: 0.2426E-02   max: 0.3449E-01   D at   64  1
       a = -2.500      CL = -0.2015
      Cm = -0.0170     CD =  0.00989   =>   CDf =  0.00595    CDp =  0.00394

 Side 1  free  transition at x/c =  0.7590   63
 Side 2  free  transition at x/c =  0.5240   59

   4   rms: 0.1278E-03   max: -.1439E-02   C at   63  1
       a = -2.500      CL = -0.2015
      Cm = -0.0171     CD =  0.00989   =>   CDf =  0.00595    CDp =  0.00394

 Side 1  free  transition at x/c =  0.7590   63
 Side 2  free  transition at x/c =  0.5240   59

   5   rms: 0.1318E-05   max: 0.6309E-05   D at    4  2
       a = -2.500      CL = -0.2015
      Cm = -0.0171     CD =  0.00989   =>   CDf =  0.00595    CDp =  0.00394
 plradd ia,ip,cpol            4           0  0.15495406    

 Point added to stored polar  1
 Point written to save file  goe460_Re400k.base.pol                          
 Dump file unspecified or not available
 Calculating wake trajectory ...
 Calculating source influence matrix ...

 Solving BL system ...

 Side 1  free  transition at x/c =  0.7590   63
 Side 2  free  transition at x/c =  0.5240   59

   1   rms: 0.6481E-01   max: -.1914E+00   T at   59  2
       a = -2.000      CL = -0.1698
      Cm = -0.0119     CD =  0.00985   =>   CDf =  0.00600    CDp =  0.00385

 Side 1  free  transition at x/c =  0.7282   63
 Side 2  free  transition at x/c =  0.5461   59

   2   rms: 0.2004E-01   max: -.2265E+00   D at   63  1
       a = -2.000      CL = -0.1627
      Cm = -0.0133     CD =  0.00976   =>   CDf =  0.00599    CDp =  0.00377

 Side 1  free  transition at x/c =  0.7349   63
 Side 2  free  transition at x/c =  0.5464   59

   3   rms: 0.3841E-02   max: 0.5523E-01   C at   63  1
       a = -2.000      CL = -0.1637
      Cm = -0.0131     CD =  0.00980   =>   CDf =  0.00595    CDp =  0.00385

 Side 1  free  transition at x/c =  0.7327   63
 Side 2  free  transition at x/c =  0.5459   59

   4   rms: 0.1102E-03   max: -.1729E-02   D at   65  1
       a = -2.000      CL = -0.1637
      Cm = -0.0131     CD =  0.00980   =>   CDf =  0.00597    CDp =  0.00383

 Side 1  free  transition at x/c =  0.7327   63
 Side 2  free  transition at x/c =  0.5459   59

   5   rms: 0.1022E-05   max: -.6886E-05   D at   77  1
       a = -2.000      CL = -0.1637
      Cm = -0.0131     CD =  0.00980   =>   CDf =  0.00597    CDp =  0.00383
 plradd ia,ip,cpol            5           0  0.15495406    

 Point added to stored polar  1
 Point written to save file  goe460_Re400k.base.pol                          
 Dump file unspecified or not available
 Calculating wake trajectory ...
 Calculating source influence matrix ...

 Solving BL system ...

 Side 1  free  transition at x/c =  0.7327   63
 Side 2  free  transition at x/c =  0.5459   59

   1   rms: 0.6749E-01   max: -.2233E+00   T at   59  2
       a = -1.500      CL = -0.1249
      Cm = -0.0093     CD =  0.00983   =>   CDf =  0.00601    CDp =  0.00383

 Side 1  free  transition at x/c =  0.7019   62
 Side 2  free  transition at x/c =  0.5661   59

   2   rms: 0.2210E-01   max: -.3718E+00   D at   63  1
       a = -1.500      CL = -0.1229
      Cm = -0.0097     CD =  0.00973   =>   CDf =  0.00614    CDp =  0.00360

 Side 1  free  transition at x/c =  0.7068   63
 Side 2  free  transition at x/c =  0.5669   59

   3   rms: 0.5573E-02   max: -.8707E-01   C at   59  2
       a = -1.500      CL = -0.1237
      Cm = -0.0096     CD =  0.00974   =>   CDf =  0.00608    CDp =  0.00367

 Side 1  free  transition at x/c =  0.7049   63
 Side 2  free  transition at x/c =  0.5671   59

   4   rms: 0.3138E-03   max: 0.2542E-02   C at   63  1
       a = -1.500      CL = -0.1239
      Cm = -0.0095     CD =  0.00974   =>   CDf =  0.00605    CDp =  0.00370

 Side 1  free  transition at x/c =  0.7048   63
 Side 2  free  transition at x/c =  0.5670   59

   5   rms: 0.1357E-05   max: 0.1198E-04   C at   63  1
       a = -1.500      CL = -0.1239
      Cm = -0.0095     CD =  0.00974   =>   CDf =  0.00605    CDp =  0.00369
 plradd ia,ip,cpol            6           0  0.15495406    

 Point added to stored polar  1
 Point written to save file  goe460_Re400k.base.pol                          
 Dump file unspecified or not available
 Calculating wake trajectory ...
 Calculating source influence matrix ...

 Solving BL system ...

 Side 1  free  transition at x/c =  0.7048   63
 Side 2  free  transition at x/c =  0.5670   59

   1   rms: 0.7423E-01   max: -.3878E+00   D at   64  1
       a = -1.000      CL = -0.0802
      Cm = -0.0068     CD =  0.00988   =>   CDf =  0.00605    CDp =  0.00383

 Side 1  free  transition at x/c =  0.6802   61
 Side 2  free  transition at x/c =  0.5880   61

   2   rms: 0.1321E-01   max: 0.1923E+00   D at   62  1
       a = -1.000      CL = -0.0837
      Cm = -0.0061     CD =  0.00971   =>   CDf =  0.00611    CDp =  0.00360

 Side 1  free  transition at x/c =  0.6776   61
 Side 2  free  transition at x/c =  0.5867   60

   3   rms: 0.8112E-03   max: 0.1043E-01   C at   61  1
       a = -1.000      CL = -0.0834
      Cm = -0.0062     CD =  0.00969   =>   CDf =  0.00609    CDp =  0.00361

 Side 1  free  transition at x/c =  0.6771   61
 Side 2  free  transition at x/c =  0.5864   60

   4   rms: 0.4474E-05   max: -.3856E-04   D at   61  1
       a = -1.000      CL = -0.0834
      Cm = -0.0062     CD =  0.00969   =>   CDf =  0.00609    CDp =  0.00361
 plradd ia,ip,cpol            7           0  0.15495406    

 Point added to stored polar  1
 Point written to save file  goe460_Re400k.base.pol                          
 Dump file unspecified or not available
 Calculating wake trajectory ...
 Calculating source influence matrix ...

 Solving BL system ...

 Side 1  free  transition at x/c =  0.6771   61
 Side 2  free  transition at x/c =  0.5864   60

   1   rms: 0.6696E-01   max: -.2106E+00   T at   60  2
       a = -0.500      CL = -0.0426
      Cm = -0.0029     CD =  0.00978   =>   CDf =  0.00610    CDp =  0.00367

 Side 1  free  transition at x/c =  0.6492   61
 Side 2  free  transition at x/c =  0.6076   61

   2   rms: 0.1729E-01   max: -.2858E+00   D at   61  1
       a = -0.500      CL = -0.0425
      Cm = -0.0029     CD =  0.00967   =>   CDf =  0.00623    CDp =  0.00343

 Side 1  free  transition at x/c =  0.6539   61
 Side 2  free  transition at x/c =  0.6065   60

   3   rms: 0.4096E-02   max: 0.6873E-01   C at   61  1
       a = -0.500      CL = -0.0417
      Cm = -0.0031     CD =  0.00967   =>   CDf =  0.00611    CDp =  0.00356

 Side 1  free  transition at x/c =  0.6520   61
 Side 2  free  transition at x/c =  0.6062   60

   4   rms: 0.1074E-03   max: -.1575E-02   D at   63  1
       a = -0.500      CL = -0.0416
      Cm = -0.0031     CD =  0.00968   =>   CDf =  0.00614    CDp =  0.00354

 Side 1  free  transition at x/c =  0.6519   61
 Side 2  free  transition at x/c =  0.6062   60

   5   rms: 0.1070E-05   max: -.7136E-05   D at   79  1
       a = -0.500      CL = -0.0416
      Cm = -0.0031     CD =  0.00968   =>   CDf =  0.00614    CDp =  0.00354
 plradd ia,ip,cpol            8           0  0.15495406    

 Point added to stored polar  1
 Point written to save file  goe460_Re400k.base.pol                          
 Dump file unspecified or not available
 Calculating wake trajectory ...
 Calculating source influence matrix ...

 Solving BL system ...

 Side 1  free  transition at x/c =  0.6519   61
 Side 2  free  transition at x/c =  0.6062   60

   1   rms: 0.7023E-01   max: 0.3720E+00   C at   61  1
       a =  0.000      CL = -0.0002
      Cm =  0.0001     CD =  0.00983   =>   CDf =  0.00614    CDp =  0.00368

 Side 1  free  transition at x/c =  0.6275   61
 Side 2  free  transition at x/c =  0.6295   61

   2   rms: 0.1947E-01   max: -.3142E+00   D at   61  1
       a =  0.000      CL = -0.0002
      Cm =  0.0001     CD =  0.00965   =>   CDf =  0.00621    CDp =  0.00344

 Side 1  free  transition at x/c =  0.6291   61
 Side 2  free  transition at x/c =  0.6279   61

   3   rms: 0.3575E-02   max: 0.5116E-01   C at   61  1
       a =  0.000      CL = -0.0001
      Cm =  0.0000     CD =  0.00969   =>   CDf =  0.00615    CDp =  0.00354

 Side 1  free  transition at x/c =  0.6276   61
 Side 2  free  transition at x/c =  0.6277   61

   4   rms: 0.1155E-03   max: -.1946E-02   D at   62  1
       a =  0.000      CL = -0.0000
      Cm =  0.0000     CD =  0.00969   =>   CDf =  0.00618    CDp =  0.00351

 Side 1  free  transition at x/c =  0.6276   61
 Side 2  free  transition at x/c =  0.6277   61

   5   rms: 0.8969E-06   max: -.9326E-05   D at   62  1
       a =  0.000      CL = -0.0000
      Cm =  0.0000     CD =  0.00969   =>   CDf =  0.00618    CDp =  0.00351
 plradd ia,ip,cpol            9           0  0.15495406    

 Point added to stored polar  1
 Point written to save file  goe460_Re400k.base.pol                          
 Dump file unspecified or not available
 Calculating wake trajectory ...
 Calculating source influence matrix ...

 Solving BL system ...

 Side 1  free  transition at x/c =  0.6276   61
 Side 2  free  transition at x/c =  0.6277   61

   1   rms: 0.7784E-01   max: -.3398E+00   D at   61  1
       a =  0.500      CL =  0.0462
      Cm =  0.0021     CD =  0.00969   =>   CDf =  0.00618    CDp =  0.00351

 Side 1  free  transition at x/c =  0.6076   61
 Side 2  free  transition at x/c =  0.6451   60

   2   rms: 0.2475E-01   max: -.2527E+00   D at   61  1
       a =  0.500      CL =  0.0400
      Cm =  0.0034     CD =  0.00970   =>   CDf =  0.00630    CDp =  0.00339

 Side 1  free  transition at x/c =  0.6074   61
 Side 2  free  transition at x/c =  0.6549   61

   3   rms: 0.7064E-02   max: 0.8097E-01   C at   61  2
       a =  0.500      CL =  0.0418
      Cm =  0.0031     CD =  0.00969   =>   CDf =  0.00610    CDp =  0.00358

 Side 1  free  transition at x/c =  0.6063   60
 Side 2  free  transition at x/c =  0.6519   61

   4   rms: 0.7917E-03   max: -.9577E-02   C at   60  1
       a =  0.500      CL =  0.0417
      Cm =  0.0031     CD =  0.00968   =>   CDf =  0.00614    CDp =  0.00354

 Side 1  free  transition at x/c =  0.6062   60
 Side 2  free  transition at x/c =  0.6517   61

   5   rms: 0.4881E-05   max: -.3711E-04   D at   63  2
       a =  0.500      CL =  0.0417
      Cm =  0.0031     CD =  0.00968   =>   CDf =  0.00614    CDp =  0.00354
 plradd ia,ip,cpol           10           0  0.15495422    

 Point added to stored polar  1
 Point written to save file  goe460_Re400k.base.pol                          
 Dump file unspecified or not available
 Calculating wake trajectory ...
 Calculating source influence matrix ...

 Solving BL system ...

 Side 1  free  transition at x/c =  0.6062   60
 Side 2  free  transition at x/c =  0.6517   61

   1   rms: 0.7075E-01   max: -.3746E+00   C at   61  2
       a =  1.000      CL =  0.0830
      Cm =  0.0063     CD =  0.00953   =>   CDf =  0.00613    CDp =  0.00340

 Side 1  free  transition at x/c =  0.5833   60
 Side 2  free  transition at x/c =  0.6668   61

   2   rms: 0.3729E-01   max: -.3570E+00   T at   61  2
       a =  1.000      CL =  0.0897
      Cm =  0.0047     CD =  0.00949   =>   CDf =  0.00635    CDp =  0.00314

 Side 1  free  transition at x/c =  0.5865   60
 Side 2  free  transition at x/c =  0.6802   61

   3   rms: 0.1114E-01   max: -.1545E+00   C at   61  2
       a =  1.000      CL =  0.0836
      Cm =  0.0061     CD =  0.00968   =>   CDf =  0.00612    CDp =  0.00356

 Side 1  free  transition at x/c =  0.5864   60
 Side 2  free  transition at x/c =  0.6768   61

   4   rms: 0.6532E-03   max: 0.9375E-02   D at   63  2
       a =  1.000      CL =  0.0834
      Cm =  0.0062     CD =  0.00969   =>   CDf =  0.00609    CDp =  0.00360

 Side 1  free  transition at x/c =  0.5864   60
 Side 2  free  transition at x/c =  0.6772   61

   5   rms: 0.6228E-05   max: -.9112E-04   C at   61  2
       a =  1.000      CL =  0.0834
      Cm =  0.0062     CD =  0.00969   =>   CDf =  0.00609    CDp =  0.00361
 plradd ia,ip,cpol           11           0  0.15495422    

 Point added to stored polar  1
 Point written to save file  goe460_Re400k.base.pol                          
 Dump file unspecified or not available
 Calculating wake trajectory ...
 Calculating source influence matrix ...

 Solving BL system ...

 Side 1  free  transition at x/c =  0.5864   60
 Side 2  free  transition at x/c =  0.6772   61

   1   rms: 0.6701E-01   max: -.2942E+00   C at   61  2
       a =  1.500      CL =  0.1243
      Cm =  0.0094     CD =  0.00962   =>   CDf =  0.00609    CDp =  0.00353

 Side 1  free  transition at x/c =  0.5633   59
 Side 2  free  transition at x/c =  0.7029   62

   2   rms: 0.1422E-01   max: -.1612E+00   C at   62  2
       a =  1.500      CL =  0.1228
      Cm =  0.0098     CD =  0.00973   =>   CDf =  0.00617    CDp =  0.00356

 Side 1  free  transition at x/c =  0.5672   59
 Side 2  free  transition at x/c =  0.7059   63

   3   rms: 0.2272E-02   max: -.4136E-01   D at   62  2
       a =  1.500      CL =  0.1238
      Cm =  0.0096     CD =  0.00974   =>   CDf =  0.00606    CDp =  0.00368

 Side 1  free  transition at x/c =  0.5668   59
 Side 2  free  transition at x/c =  0.7052   63

   4   rms: 0.1359E-03   max: 0.1963E-02   C at   63  2
       a =  1.500      CL =  0.1238
      Cm =  0.0096     CD =  0.00974   =>   CDf =  0.00605    CDp =  0.00370

 Side 1  free  transition at x/c =  0.5668   59
 Side 2  free  transition at x/c =  0.7051   63

   5   rms: 0.8865E-06   max: -.1026E-04   D at   64  2
       a =  1.500      CL =  0.1238
      Cm =  0.0096     CD =  0.00974   =>   CDf =  0.00605    CDp =  0.00370
 plradd ia,ip,cpol           12           0  0.15495422    

 Point added to stored polar  1
 Point written to save file  goe460_Re400k.base.pol                          
 Dump file unspecified or not available
 Calculating wake trajectory ...
 Calculating source influence matrix ...

 Solving BL system ...

 Side 1  free  transition at x/c =  0.5668   59
 Side 2  free  transition at x/c =  0.7051   63

   1   rms: 0.7398E-01   max: 0.3853E+00   D at   64  2
       a =  2.000      CL =  0.1673
      Cm =  0.0124     CD =  0.00962   =>   CDf =  0.00602    CDp =  0.00360

 Side 1  free  transition at x/c =  0.5413   59
 Side 2  free  transition at x/c =  0.7220   62

   2   rms: 0.3164E-01   max: -.4662E+00   D at   63  2
       a =  2.000      CL =  0.1554
      Cm =  0.0148     CD =  0.00990   =>   CDf =  0.00623    CDp =  0.00367

 Side 1  free  transition at x/c =  0.5472   59
 Side 2  free  transition at x/c =  0.7437   64

   3   rms: 0.1603E-01   max: 0.2032E+00   C at   64  2
       a =  2.000      CL =  0.1592
      Cm =  0.0140     CD =  0.00981   =>   CDf =  0.00595    CDp =  0.00386

 Side 1  free  transition at x/c =  0.5464   59
 Side 2  free  transition at x/c =  0.7356   63

   4   rms: 0.5151E-02   max: -.5694E-01   D at   65  2
       a =  2.000      CL =  0.1638
      Cm =  0.0131     CD =  0.00980   =>   CDf =  0.00597    CDp =  0.00383

 Side 1  free  transition at x/c =  0.5460   59
 Side 2  free  transition at x/c =  0.7326   63

   5   rms: 0.4491E-03   max: -.6665E-02   C at   63  2
       a =  2.000      CL =  0.1637
      Cm =  0.0131     CD =  0.00980   =>   CDf =  0.00597    CDp =  0.00383

 Side 1  free  transition at x/c =  0.5460   59
 Side 2  free  transition at x/c =  0.7328   63

   6   rms: 0.1916E-05   max: -.1754E-04   D at   65  2
       a =  2.000      CL =  0.1637
      Cm =  0.0131     CD =  0.00980   =>   CDf =  0.00597    CDp =  0.00383
 plradd ia,ip,cpol           13           0  0.15495422    

 Point added to stored polar  1
 Point written to save file  goe460_Re400k.base.pol                          
 Dump file unspecified or not available
 Calculating wake trajectory ...
 Calculating source influence matrix ...

 Solving BL system ...

 Side 1  free  transition at x/c =  0.5460   59
 Side 2  free  transition at x/c =  0.7328   63

   1   rms: 0.6706E-01   max: 0.2381E+00   D at   64  2
       a =  2.500      CL =  0.2025
      Cm =  0.0169     CD =  0.00978   =>   CDf =  0.00593    CDp =  0.00385

 Side 1  free  transition at x/c =  0.5190   59
 Side 2  free  transition at x/c =  0.7570   63

   2   rms: 0.1343E-01   max: -.1570E+00   D at   59  1
       a =  2.500      CL =  0.2000
      Cm =  0.0174     CD =  0.00987   =>   CDf =  0.00602    CDp =  0.00386

 Side 1  free  transition at x/c =  0.5246   59
 Side 2  free  transition at x/c =  0.7592   63

   3   rms: 0.1572E-02   max: -.1734E-01   D at   61  1
       a =  2.500      CL =  0.2011
      Cm =  0.0171     CD =  0.00989   =>   CDf =  0.00595    CDp =  0.00394

 Side 1  free  transition at x/c =  0.5236   59
 Side 2  free  transition at x/c =  0.7593   63

   4   rms: 0.2567E-04   max: -.3918E-03   C at   59  1
       a =  2.500      CL =  0.2011
      Cm =  0.0171     CD =  0.00989   =>   CDf =  0.00595    CDp =  0.00394
 plradd ia,ip,cpol           14           0  0.15495422    

 Point added to stored polar  1
 Point written to save file  goe460_Re400k.base.pol                          
 Dump file unspecified or not available
 Calculating wake trajectory ...
 Calculating source influence matrix ...

 Solving BL system ...

 Side 1  free  transition at x/c =  0.5236   59
 Side 2  free  transition at x/c =  0.7593   63

   1   rms: 0.6436E-01   max: -.2763E+00   T at   63  2
       a =  3.000      CL =  0.2325
      Cm =  0.0224     CD =  0.00996   =>   CDf =  0.00595    CDp =  0.00400

 MRCHDU: Convergence failed at  65  side 2    Res =  0.6091E+01
 MRCHDU: Convergence failed at  66  side 2    Res =  0.1361E+01
 MRCHDU: Convergence failed at  67  side 2    Res =  0.2142E+01
 MRCHDU: Convergence failed at  68  side 2    Res =  0.3503E+01
 MRCHDU: Convergence failed at  69  side 2    Res =  0.5254E+01
 MRCHDU: Convergence failed at  70  side 2    Res =  0.6762E+01
 MRCHDU: Convergence failed at  71  side 2    Res =  0.7828E+01
 MRCHDU: Convergence failed at  72  side 2    Res =  0.7973E+01
 MRCHDU: Convergence failed at  73  side 2    Res =  0.7579E+01
 MRCHDU: Convergence failed at  74  side 2    Res =  0.6924E+01
 MRCHDU: Convergence failed at  75  side 2    Res =  0.6072E+01
 MRCHDU: Convergence failed at  76  side 2    Res =  0.6089E+01
 MRCHDU: Convergence failed at  77  side 2    Res =  0.4753E+02
 Side 1  free  transition at x/c =  0.5014   58
 Side 2  free  transition at x/c =  0.7911   65

   2   rms: 0.2712E+00   max: 0.2108E+01   D at   77  2   RLX: 0.712
       a =  3.000      CL =  0.3645
      Cm =  0.0019     CD =  0.00885   =>   CDf =  0.00543    CDp =  0.00342

 Side 1  free  transition at x/c =  0.4879   58
 Side 2  free  transition at x/c =  0.7684   63

   3   rms: 0.1254E+00   max: -.7484E+00   D at   75  2   RLX: 0.668
       a =  3.000      CL =  0.2610
      Cm =  0.0184     CD =  0.01021   =>   CDf =  0.00621    CDp =  0.00399

 Side 1  free  transition at x/c =  0.5005   59
 Side 2  free  transition at x/c =  0.7817   64

   4   rms: 0.3034E-01   max: -.2253E+00   D at   75  2
       a =  3.000      CL =  0.2362
      Cm =  0.0216     CD =  0.00991   =>   CDf =  0.00606    CDp =  0.00385

 Side 1  free  transition at x/c =  0.5027   59
 Side 2  free  transition at x/c =  0.7862   64

   5   rms: 0.4424E-02   max: -.4280E-01   D at   65  2
       a =  3.000      CL =  0.2396
      Cm =  0.0210     CD =  0.01000   =>   CDf =  0.00590    CDp =  0.00410

 Side 1  free  transition at x/c =  0.5026   59
 Side 2  free  transition at x/c =  0.7845   64

   6   rms: 0.1667E-03   max: -.2287E-02   D at   65  2
       a =  3.000      CL =  0.2396
      Cm =  0.0209     CD =  0.01000   =>   CDf =  0.00592    CDp =  0.00408

 Side 1  free  transition at x/c =  0.5026   59
 Side 2  free  transition at x/c =  0.7844   64

   7   rms: 0.3365E-05   max: 0.3824E-04   D at    4  1
       a =  3.000      CL =  0.2396
      Cm =  0.0209     CD =  0.01000   =>   CDf =  0.00592    CDp =  0.00408
 plradd ia,ip,cpol           15           0  0.15495422    

 Point added to stored polar  1
 Point written to save file  goe460_Re400k.base.pol                          
 Dump file unspecified or not available
 Calculating wake trajectory ...
 Calculating source influence matrix ...

 Solving BL system ...

 Side 1  free  transition at x/c =  0.5026   59
 Side 2  free  transition at x/c =  0.7844   64

   1   rms: 0.7556E-01   max: 0.3432E+00   D at   65  2
       a =  3.500      CL =  0.2879
      Cm =  0.0228     CD =  0.01008   =>   CDf =  0.00592    CDp =  0.00417

 Side 1  free  transition at x/c =  0.4795   58
 Side 2  free  transition at x/c =  0.8005   64

   2   rms: 0.3354E-01   max: -.3992E+00   D at   65  2
       a =  3.500      CL =  0.2648
      Cm =  0.0275     CD =  0.01017   =>   CDf =  0.00605    CDp =  0.00412

 MRCHDU: Convergence failed at  65  side 2    Res =  0.2549E+01
 MRCHDU: Convergence failed at  66  side 2    Res =  0.2839E+01
 MRCHDU: Convergence failed at  67  side 2    Res =  0.1756E+01
 MRCHDU: Convergence failed at  68  side 2    Res =  0.3026E+01
 MRCHDU: Convergence failed at  69  side 2    Res =  0.4773E+01
 MRCHDU: Convergence failed at  70  side 2    Res =  0.6628E+01
 MRCHDU: Convergence failed at  71  side 2    Res =  0.7922E+01
 MRCHDU: Convergence failed at  72  side 2    Res =  0.8314E+01
 MRCHDU: Convergence failed at  73  side 2    Res =  0.8036E+01
 MRCHDU: Convergence failed at  74  side 2    Res =  0.7188E+01
 MRCHDU: Convergence failed at  75  side 2    Res =  0.6117E+01
 MRCHDU: Convergence failed at  76  side 2    Res =  0.1928E+02
 Side 1  free  transition at x/c =  0.4840   58
 Side 2  free  transition at x/c =  0.8152   65

   3   rms: 0.2733E+00   max: 0.1966E+01   D at   76  2   RLX: 0.763
       a =  3.500      CL =  0.4359
      Cm = -0.0034     CD =  0.00934   =>   CDf =  0.00543    CDp =  0.00391

 Side 1  free  transition at x/c =  0.4635   58
 Side 2  free  transition at x/c =  0.7868   63

   4   rms: 0.1382E+00   max: -.7845E+00   D at   74  2   RLX: 0.637
       a =  3.500      CL =  0.3242
      Cm =  0.0162     CD =  0.01060   =>   CDf =  0.00615    CDp =  0.00445

 Side 1  free  transition at x/c =  0.4757   59
 Side 2  free  transition at x/c =  0.8017   63
 idif Ue xi dudx           1  0.11552823      3.36956978E-03   34.285751    
 Uenew xinew           2  2.69304290E-02  7.85470009E-04

   5   rms: 0.5015E-01   max: -.3174E+00   D at   64  2
       a =  3.500      CL =  0.2652
      Cm =  0.0274     CD =  0.01010   =>   CDf =  0.00617    CDp =  0.00393

 MRCHDU: Convergence failed at  65  side 2    Res =  0.1725E+01
 MRCHDU: Convergence failed at  66  side 2    Res =  0.2339E+01
 MRCHDU: Convergence failed at  67  side 2    Res =  0.2030E+01
 MRCHDU: Convergence failed at  68  side 2    Res =  0.3678E+01
 MRCHDU: Convergence failed at  69  side 2    Res =  0.5967E+01
 MRCHDU: Convergence failed at  70  side 2    Res =  0.7968E+01
 MRCHDU: Convergence failed at  71  side 2    Res =  0.9328E+01
 MRCHDU: Convergence failed at  72  side 2    Res =  0.9526E+01
 MRCHDU: Convergence failed at  73  side 2    Res =  0.9063E+01
 MRCHDU: Convergence failed at  74  side 2    Res =  0.8207E+01
 MRCHDU: Convergence failed at  75  side 2    Res =  0.8447E+01
 MRCHDU: Convergence failed at  76  side 2    Res =  0.1646E+02
 Side 1  free  transition at x/c =  0.4826   58
 Side 2  free  transition at x/c =  0.8150   65

   6   rms: 0.2721E+00   max: 0.1952E+01   D at   76  2   RLX: 0.769
       a =  3.500      CL =  0.4357
      Cm = -0.0035     CD =  0.00932   =>   CDf =  0.00544    CDp =  0.00388

 Side 1  free  transition at x/c =  0.4636   58
 Side 2  free  transition at x/c =  0.7867   63

   7   rms: 0.1379E+00   max: -.7849E+00   D at   74  2   RLX: 0.637
       a =  3.500      CL =  0.3247
      Cm =  0.0161     CD =  0.01062   =>   CDf =  0.00615    CDp =  0.00447

 Side 1  free  transition at x/c =  0.4756   59
 Side 2  free  transition at x/c =  0.8016   63
 idif Ue xi dudx           1  0.11549959      3.36873531E-03   34.285744    
 Uenew xinew           2  2.69018132E-02  7.84635544E-04

   8   rms: 0.5052E-01   max: -.3183E+00   D at   64  2
       a =  3.500      CL =  0.2653
      Cm =  0.0274     CD =  0.01010   =>   CDf =  0.00617    CDp =  0.00393

 MRCHDU: Convergence failed at  65  side 2    Res =  0.1727E+01
 MRCHDU: Convergence failed at  66  side 2    Res =  0.2334E+01
 MRCHDU: Convergence failed at  67  side 2    Res =  0.2029E+01
 MRCHDU: Convergence failed at  68  side 2    Res =  0.3695E+01
 MRCHDU: Convergence failed at  69  side 2    Res =  0.6001E+01
 MRCHDU: Convergence failed at  70  side 2    Res =  0.8006E+01
 MRCHDU: Convergence failed at  71  side 2    Res =  0.9354E+01
 MRCHDU: Convergence failed at  72  side 2    Res =  0.9539E+01
 MRCHDU: Convergence failed at  73  side 2    Res =  0.9067E+01
 MRCHDU: Convergence failed at  74  side 2    Res =  0.8202E+01
 MRCHDU: Convergence failed at  75  side 2    Res =  0.8461E+01
 MRCHDU: Convergence failed at  76  side 2    Res =  0.1645E+02
 Side 1  free  transition at x/c =  0.4826   58
 Side 2  free  transition at x/c =  0.8151   65

   9   rms: 0.2720E+00   max: 0.1951E+01   D at   76  2   RLX: 0.769
       a =  3.500      CL =  0.4357
      Cm = -0.0034     CD =  0.00932   =>   CDf =  0.00544    CDp =  0.00388

 Side 1  free  transition at x/c =  0.4636   58
 Side 2  free  transition at x/c =  0.7867   63

  10   rms: 0.1379E+00   max: -.7849E+00   D at   74  2   RLX: 0.637
       a =  3.500      CL =  0.3247
      Cm =  0.0161     CD =  0.01062   =>   CDf =  0.00615    CDp =  0.00447

 Side 1  free  transition at x/c =  0.4756   59
 Side 2  free  transition at x/c =  0.8016   63
 idif Ue xi dudx           1  0.11549754      3.36873531E-03   34.285133    
 Uenew xinew           2  2.69013345E-02  7.84635544E-04

  11   rms: 0.5050E-01   max: -.3183E+00   D at   64  2
       a =  3.500      CL =  0.2653
      Cm =  0.0274     CD =  0.01010   =>   CDf =  0.00617    CDp =  0.00393

 MRCHDU: Convergence failed at  65  side 2    Res =  0.1727E+01
 MRCHDU: Convergence failed at  66  side 2    Res =  0.2334E+01
 MRCHDU: Convergence failed at  67  side 2    Res =  0.2029E+01
 MRCHDU: Convergence failed at  68  side 2    Res =  0.3694E+01
 MRCHDU: Convergence failed at  69  side 2    Res =  0.5999E+01
 MRCHDU: Convergence failed at  70  side 2    Res =  0.8003E+01
 MRCHDU: Convergence failed at  71  side 2    Res =  0.9352E+01
 MRCHDU: Convergence failed at  72  side 2    Res =  0.9538E+01
 MRCHDU: Convergence failed at  73  side 2    Res =  0.9066E+01
 MRCHDU: Convergence failed at  74  side 2    Res =  0.8201E+01
 MRCHDU: Convergence failed at  75  side 2    Res =  0.8461E+01
 MRCHDU: Convergence failed at  76  side 2    Res =  0.1645E+02
 Side 1  free  transition at x/c =  0.4826   58
 Side 2  free  transition at x/c =  0.8151   65

  12   rms: 0.2720E+00   max: 0.1951E+01   D at   76  2   RLX: 0.769
       a =  3.500      CL =  0.4357
      Cm = -0.0034     CD =  0.00932   =>   CDf =  0.00544    CDp =  0.00388

 Side 1  free  transition at x/c =  0.4636   58
 Side 2  free  transition at x/c =  0.7867   63

  13   rms: 0.1379E+00   max: -.7849E+00   D at   74  2   RLX: 0.637
       a =  3.500      CL =  0.3247
      Cm =  0.0161     CD =  0.01062   =>   CDf =  0.00615    CDp =  0.00447

 Side 1  free  transition at x/c =  0.4756   59
 Side 2  free  transition at x/c =  0.8016   63
 idif Ue xi dudx           1  0.11549786      3.36873531E-03   34.285229    
 Uenew xinew           2  2.69014090E-02  7.84635544E-04

  14   rms: 0.5050E-01   max: -.3183E+00   D at   64  2
       a =  3.500      CL =  0.2653
      Cm =  0.0274     CD =  0.01010   =>   CDf =  0.00617    CDp =  0.00393

 MRCHDU: Convergence failed at  65  side 2    Res =  0.1728E+01
 MRCHDU: Convergence failed at  66  side 2    Res =  0.2334E+01
 MRCHDU: Convergence failed at  67  side 2    Res =  0.2029E+01
 MRCHDU: Convergence failed at  68  side 2    Res =  0.3694E+01
 MRCHDU: Convergence failed at  69  side 2    Res =  0.5999E+01
 MRCHDU: Convergence failed at  70  side 2    Res =  0.8004E+01
 MRCHDU: Convergence failed at  71  side 2    Res =  0.9353E+01
 MRCHDU: Convergence failed at  72  side 2    Res =  0.9538E+01
 MRCHDU: Convergence failed at  73  side 2    Res =  0.9066E+01
 MRCHDU: Convergence failed at  74  side 2    Res =  0.8202E+01
 MRCHDU: Convergence failed at  75  side 2    Res =  0.8461E+01
 MRCHDU: Convergence failed at  76  side 2    Res =  0.1645E+02
 Side 1  free  transition at x/c =  0.4826   58
 Side 2  free  transition at x/c =  0.8151   65

  15   rms: 0.2720E+00   max: 0.1951E+01   D at   76  2   RLX: 0.769
       a =  3.500      CL =  0.4357
      Cm = -0.0034     CD =  0.00932   =>   CDf =  0.00544    CDp =  0.00388

 Side 1  free  transition at x/c =  0.4636   58
 Side 2  free  transition at x/c =  0.7867   63

  16   rms: 0.1379E+00   max: -.7849E+00   D at   74  2   RLX: 0.637
       a =  3.500      CL =  0.3247
      Cm =  0.0161     CD =  0.01062   =>   CDf =  0.00615    CDp =  0.00447

 Side 1  free  transition at x/c =  0.4756   59
 Side 2  free  transition at x/c =  0.8016   63
 idif Ue xi dudx           1  0.11549787      3.36873531E-03   34.285233    
 Uenew xinew           2  2.69014128E-02  7.84635544E-04

  17   rms: 0.5050E-01   max: -.3183E+00   D at   64  2
       a =  3.500      CL =  0.2653
      Cm =  0.0274     CD =  0.01010   =>   CDf =  0.00617    CDp =  0.00393

 MRCHDU: Convergence failed at  65  side 2    Res =  0.1728E+01
 MRCHDU: Convergence failed at  66  side 2    Res =  0.2334E+01
 MRCHDU: Convergence failed at  67  side 2    Res =  0.2029E+01
 MRCHDU: Convergence failed at  68  side 2    Res =  0.3694E+01
 MRCHDU: Convergence failed at  69  side 2    Res =  0.5999E+01
 MRCHDU: Convergence failed at  70  side 2    Res =  0.8004E+01
 MRCHDU: Convergence failed at  71  side 2    Res =  0.9353E+01
 MRCHDU: Convergence failed at  72  side 2    Res =  0.9538E+01
 MRCHDU: Convergence failed at  73  side 2    Res =  0.9066E+01
 MRCHDU: Convergence failed at  74  side 2    Res =  0.8202E+01
 MRCHDU: Convergence failed at  75  side 2    Res =  0.8461E+01
 MRCHDU: Convergence failed at  76  side 2    Res =  0.1645E+02
 Side 1  free  transition at x/c =  0.4826   58
 Side 2  free  transition at x/c =  0.8151   65

  18   rms: 0.2720E+00   max: 0.1951E+01   D at   76  2   RLX: 0.769
       a =  3.500      CL =  0.4357
      Cm = -0.0034     CD =  0.00932   =>   CDf =  0.00544    CDp =  0.00388

 Side 1  free  transition at x/c =  0.4636   58
 Side 2  free  transition at x/c =  0.7867   63

  19   rms: 0.1379E+00   max: -.7849E+00   D at   74  2   RLX: 0.637
       a =  3.500      CL =  0.3247
      Cm =  0.0161     CD =  0.01062   =>   CDf =  0.00615    CDp =  0.00447

 Side 1  free  transition at x/c =  0.4756   59
 Side 2  free  transition at x/c =  0.8016   63
 idif Ue xi dudx           1  0.11549790      3.36873531E-03   34.285240    
 Uenew xinew           2  2.69014183E-02  7.84635544E-04

  20   rms: 0.5050E-01   max: -.3183E+00   D at   64  2
       a =  3.500      CL =  0.2653
      Cm =  0.0274     CD =  0.01010   =>   CDf =  0.00617    CDp =  0.00393

 MRCHDU: Convergence failed at  65  side 2    Res =  0.1728E+01
 MRCHDU: Convergence failed at  66  side 2    Res =  0.2334E+01
 MRCHDU: Convergence failed at  67  side 2    Res =  0.2029E+01
 MRCHDU: Convergence failed at  68  side 2    Res =  0.3694E+01
 MRCHDU: Convergence failed at  69  side 2    Res =  0.5999E+01
 MRCHDU: Convergence failed at  70  side 2    Res =  0.8003E+01
 MRCHDU: Convergence failed at  71  side 2    Res =  0.9353E+01
 MRCHDU: Convergence failed at  72  side 2    Res =  0.9538E+01
 MRCHDU: Convergence failed at  73  side 2    Res =  0.9066E+01
 MRCHDU: Convergence failed at  74  side 2    Res =  0.8202E+01
 MRCHDU: Convergence failed at  75  side 2    Res =  0.8461E+01
 MRCHDU: Convergence failed at  76  side 2    Res =  0.1645E+02
 Side 1  free  transition at x/c =  0.4826   58
 Side 2  free  transition at x/c =  0.8151   65

  21   rms: 0.2720E+00   max: 0.1951E+01   D at   76  2   RLX: 0.769
       a =  3.500      CL =  0.4357
      Cm = -0.0034     CD =  0.00932   =>   CDf =  0.00544    CDp =  0.00388

 Side 1  free  transition at x/c =  0.4636   58
 Side 2  free  transition at x/c =  0.7867   63

  22   rms: 0.1379E+00   max: -.7849E+00   D at   74  2   RLX: 0.637
       a =  3.500      CL =  0.3247
      Cm =  0.0161     CD =  0.01062   =>   CDf =  0.00615    CDp =  0.00447

 Side 1  free  transition at x/c =  0.4756   59
 Side 2  free  transition at x/c =  0.8016   63
 idif Ue xi dudx           1  0.11549767      3.36873531E-03   34.285172    
 Uenew xinew           2  2.69013643E-02  7.84635544E-04

  23   rms: 0.5050E-01   max: -.3183E+00   D at   64  2
       a =  3.500      CL =  0.2653
      Cm =  0.0274     CD =  0.01010   =>   CDf =  0.00617    CDp =  0.00393

 MRCHDU: Convergence failed at  65  side 2    Res =  0.1728E+01
 MRCHDU: Convergence failed at  66  side 2    Res =  0.2334E+01
 MRCHDU: Convergence failed at  67  side 2    Res =  0.2029E+01
 MRCHDU: Convergence failed at  68  side 2    Res =  0.3694E+01
 MRCHDU: Convergence failed at  69  side 2    Res =  0.5999E+01
 MRCHDU: Convergence failed at  70  side 2    Res =  0.8003E+01
 MRCHDU: Convergence failed at  71  side 2    Res =  0.9352E+01
 MRCHDU: Convergence failed at  72  side 2    Res =  0.9538E+01
 MRCHDU: Convergence failed at  73  side 2    Res =  0.9066E+01
 MRCHDU: Convergence failed at  74  side 2    Res =  0.8201E+01
 MRCHDU: Convergence failed at  75  side 2    Res =  0.8461E+01
 MRCHDU: Convergence failed at  76  side 2    Res =  0.1645E+02
 Side 1  free  transition at x/c =  0.4826   58
 Side 2  free  transition at x/c =  0.8151   65

  24   rms: 0.2720E+00   max: 0.1951E+01   D at   76  2   RLX: 0.769
       a =  3.500      CL =  0.4357
      Cm = -0.0034     CD =  0.00932   =>   CDf =  0.00544    CDp =  0.00388

 Side 1  free  transition at x/c =  0.4636   58
 Side 2  free  transition at x/c =  0.7867   63

  25   rms: 0.1379E+00   max: -.7849E+00   D at   74  2   RLX: 0.637
       a =  3.500      CL =  0.3247
      Cm =  0.0161     CD =  0.01062   =>   CDf =  0.00615    CDp =  0.00447

 Side 1  free  transition at x/c =  0.4756   59
 Side 2  free  transition at x/c =  0.8016   63
 idif Ue xi dudx           1  0.11549795      3.36873531E-03   34.285255    
 Uenew xinew           2  2.69014295E-02  7.84635544E-04

  26   rms: 0.5050E-01   max: -.3183E+00   D at   64  2
       a =  3.500      CL =  0.2653
      Cm =  0.0274     CD =  0.01010   =>   CDf =  0.00617    CDp =  0.00393

 MRCHDU: Convergence failed at  65  side 2    Res =  0.1728E+01
 MRCHDU: Convergence failed at  66  side 2    Res =  0.2334E+01
 MRCHDU: Convergence failed at  67  side 2    Res =  0.2029E+01
 MRCHDU: Convergence failed at  68  side 2    Res =  0.3694E+01
 MRCHDU: Convergence failed at  69  side 2    Res =  0.5999E+01
 MRCHDU: Convergence failed at  70  side 2    Res =  0.8004E+01
 MRCHDU: Convergence failed at  71  side 2    Res =  0.9353E+01
 MRCHDU: Convergence failed at  72  side 2    Res =  0.9538E+01
 MRCHDU: Convergence failed at  73  side 2    Res =  0.9066E+01
 MRCHDU: Convergence failed at  74  side 2    Res =  0.8202E+01
 MRCHDU: Convergence failed at  75  side 2    Res =  0.8461E+01
 MRCHDU: Convergence failed at  76  side 2    Res =  0.1645E+02
 Side 1  free  transition at x/c =  0.4826   58
 Side 2  free  transition at x/c =  0.8151   65

  27   rms: 0.2720E+00   max: 0.1951E+01   D at   76  2   RLX: 0.769
       a =  3.500      CL =  0.4357
      Cm = -0.0034     CD =  0.00932   =>   CDf =  0.00544    CDp =  0.00388

 Side 1  free  transition at x/c =  0.4636   58
 Side 2  free  transition at x/c =  0.7867   63

  28   rms: 0.1379E+00   max: -.7849E+00   D at   74  2   RLX: 0.637
       a =  3.500      CL =  0.3247
      Cm =  0.0161     CD =  0.01062   =>   CDf =  0.00615    CDp =  0.00447

 Side 1  free  transition at x/c =  0.4756   59
 Side 2  free  transition at x/c =  0.8016   63
 idif Ue xi dudx           1  0.11549774      3.36873531E-03   34.285191    
 Uenew xinew           2  2.69013792E-02  7.84635544E-04

  29   rms: 0.5050E-01   max: -.3183E+00   D at   64  2
       a =  3.500      CL =  0.2653
      Cm =  0.0274     CD =  0.01010   =>   CDf =  0.00617    CDp =  0.00393

 MRCHDU: Convergence failed at  65  side 2    Res =  0.1728E+01
 MRCHDU: Convergence failed at  66  side 2    Res =  0.2334E+01
 MRCHDU: Convergence failed at  67  side 2    Res =  0.2029E+01
 MRCHDU: Convergence failed at  68  side 2    Res =  0.3694E+01
 MRCHDU: Convergence failed at  69  side 2    Res =  0.5999E+01
 MRCHDU: Convergence failed at  70  side 2    Res =  0.8003E+01
 MRCHDU: Convergence failed at  71  side 2    Res =  0.9353E+01
 MRCHDU: Convergence failed at  72  side 2    Res =  0.9538E+01
 MRCHDU: Convergence failed at  73  side 2    Res =  0.9066E+01
 MRCHDU: Convergence failed at  74  side 2    Res =  0.8201E+01
 MRCHDU: Convergence failed at  75  side 2    Res =  0.8461E+01
 MRCHDU: Convergence failed at  76  side 2    Res =  0.1645E+02
 Side 1  free  transition at x/c =  0.4826   58
 Side 2  free  transition at x/c =  0.8151   65

  30   rms: 0.2720E+00   max: 0.1951E+01   D at   76  2   RLX: 0.769
       a =  3.500      CL =  0.4357
      Cm = -0.0034     CD =  0.00932   =>   CDf =  0.00544    CDp =  0.00388

 Side 1  free  transition at x/c =  0.4636   58
 Side 2  free  transition at x/c =  0.7867   63

  31   rms: 0.1379E+00   max: -.7849E+00   D at   74  2   RLX: 0.637
       a =  3.500      CL =  0.3247
      Cm =  0.0161     CD =  0.01062   =>   CDf =  0.00615    CDp =  0.00447

 Side 1  free  transition at x/c =  0.4756   59
 Side 2  free  transition at x/c =  0.8016   63
 idif Ue xi dudx           1  0.11549776      3.36873531E-03   34.285198    
 Uenew xinew           2  2.69013848E-02  7.84635544E-04

  32   rms: 0.5050E-01   max: -.3183E+00   D at   64  2
       a =  3.500      CL =  0.2653
      Cm =  0.0274     CD =  0.01010   =>   CDf =  0.00617    CDp =  0.00393

 MRCHDU: Convergence failed at  65  side 2    Res =  0.1728E+01
 MRCHDU: Convergence failed at  66  side 2    Res =  0.2334E+01
 MRCHDU: Convergence failed at  67  side 2    Res =  0.2029E+01
 MRCHDU: Convergence failed at  68  side 2    Res =  0.3694E+01
 MRCHDU: Convergence failed at  69  side 2    Res =  0.5999E+01
 MRCHDU: Convergence failed at  70  side 2    Res =  0.8003E+01
 MRCHDU: Convergence failed at  71  side 2    Res =  0.9353E+01
 MRCHDU: Convergence failed at  72  side 2    Res =  0.9538E+01
 MRCHDU: Convergence failed at  73  side 2    Res =  0.9066E+01
 MRCHDU: Convergence failed at  74  side 2    Res =  0.8202E+01
 MRCHDU: Convergence failed at  75  side 2    Res =  0.8461E+01
 MRCHDU: Convergence failed at  76  side 2    Res =  0.1645E+02
 Side 1  free  transition at x/c =  0.4826   58
 Side 2  free  transition at x/c =  0.8151   65

  33   rms: 0.2720E+00   max: 0.1951E+01   D at   76  2   RLX: 0.769
       a =  3.500      CL =  0.4357
      Cm = -0.0034     CD =  0.00932   =>   CDf =  0.00544    CDp =  0.00388

 Side 1  free  transition at x/c =  0.4636   58
 Side 2  free  transition at x/c =  0.7867   63

  34   rms: 0.1379E+00   max: -.7849E+00   D at   74  2   RLX: 0.637
       a =  3.500      CL =  0.3247
      Cm =  0.0161     CD =  0.01062   =>   CDf =  0.00615    CDp =  0.00447

 Side 1  free  transition at x/c =  0.4756   59
 Side 2  free  transition at x/c =  0.8016   63
 idif Ue xi dudx           1  0.11549760      3.36873531E-03   34.285152    
 Uenew xinew           2  2.69013494E-02  7.84635544E-04

  35   rms: 0.5050E-01   max: -.3183E+00   D at   64  2
       a =  3.500      CL =  0.2653
      Cm =  0.0274     CD =  0.01010   =>   CDf =  0.00617    CDp =  0.00393

 MRCHDU: Convergence failed at  65  side 2    Res =  0.1728E+01
 MRCHDU: Convergence failed at  66  side 2    Res =  0.2334E+01
 MRCHDU: Convergence failed at  67  side 2    Res =  0.2029E+01
 MRCHDU: Convergence failed at  68  side 2    Res =  0.3694E+01
 MRCHDU: Convergence failed at  69  side 2    Res =  0.5999E+01
 MRCHDU: Convergence failed at  70  side 2    Res =  0.8003E+01
 MRCHDU: Convergence failed at  71  side 2    Res =  0.9352E+01
 MRCHDU: Convergence failed at  72  side 2    Res =  0.9538E+01
 MRCHDU: Convergence failed at  73  side 2    Res =  0.9066E+01
 MRCHDU: Convergence failed at  74  side 2    Res =  0.8201E+01
 MRCHDU: Convergence failed at  75  side 2    Res =  0.8461E+01
 MRCHDU: Convergence failed at  76  side 2    Res =  0.1645E+02
 Side 1  free  transition at x/c =  0.4826   58
 Side 2  free  transition at x/c =  0.8151   65

  36   rms: 0.2720E+00   max: 0.1951E+01   D at   76  2   RLX: 0.769
       a =  3.500      CL =  0.4357
      Cm = -0.0034     CD =  0.00932   =>   CDf =  0.00544    CDp =  0.00388

 Side 1  free  transition at x/c =  0.4636   58
 Side 2  free  transition at x/c =  0.7867   63

  37   rms: 0.1379E+00   max: -.7849E+00   D at   74  2   RLX: 0.637
       a =  3.500      CL =  0.3247
      Cm =  0.0161     CD =  0.01062   =>   CDf =  0.00615    CDp =  0.00447

 Side 1  free  transition at x/c =  0.4756   59
 Side 2  free  transition at x/c =  0.8016   63
 idif Ue xi dudx           1  0.11549779      3.36873531E-03   34.285210    
 Uenew xinew           2  2.69013941E-02  7.84635544E-04

  38   rms: 0.5050E-01   max: -.3183E+00   D at   64  2
       a =  3.500      CL =  0.2653
      Cm =  0.0274     CD =  0.01010   =>   CDf =  0.00617    CDp =  0.00393

 MRCHDU: Convergence failed at  65  side 2    Res =  0.1728E+01
 MRCHDU: Convergence failed at  66  side 2    Res =  0.2334E+01
 MRCHDU: Convergence failed at  67  side 2    Res =  0.2029E+01
 MRCHDU: Convergence failed at  68  side 2    Res =  0.3694E+01
 MRCHDU: Convergence failed at  69  side 2    Res =  0.5999E+01
 MRCHDU: Convergence failed at  70  side 2    Res =  0.8003E+01
 MRCHDU: Convergence failed at  71  side 2    Res =  0.9353E+01
 MRCHDU: Convergence failed at  72  side 2    Res =  0.9538E+01
 MRCHDU: Convergence failed at  73  side 2    Res =  0.9066E+01
 MRCHDU: Convergence failed at  74  side 2    Res =  0.8202E+01
 MRCHDU: Convergence failed at  75  side 2    Res =  0.8461E+01
 MRCHDU: Convergence failed at  76  side 2    Res =  0.1645E+02
 Side 1  free  transition at x/c =  0.4826   58
 Side 2  free  transition at x/c =  0.8151   65

  39   rms: 0.2720E+00   max: 0.1951E+01   D at   76  2   RLX: 0.769
       a =  3.500      CL =  0.4357
      Cm = -0.0034     CD =  0.00932   =>   CDf =  0.00544    CDp =  0.00388

 Side 1  free  transition at x/c =  0.4636   58
 Side 2  free  transition at x/c =  0.7867   63

  40   rms: 0.1379E+00   max: -.7849E+00   D at   74  2   RLX: 0.637
       a =  3.500      CL =  0.3247
      Cm =  0.0161     CD =  0.01062   =>   CDf =  0.00615    CDp =  0.00447

 Side 1  free  transition at x/c =  0.4756   59
 Side 2  free  transition at x/c =  0.8016   63
 idif Ue xi dudx           1  0.11549778      3.36873531E-03   34.285206    
 Uenew xinew           2  2.69013904E-02  7.84635544E-04

  41   rms: 0.5050E-01   max: -.3183E+00   D at   64  2
       a =  3.500      CL =  0.2653
      Cm =  0.0274     CD =  0.01010   =>   CDf =  0.00617    CDp =  0.00393

 MRCHDU: Convergence failed at  65  side 2    Res =  0.1728E+01
 MRCHDU: Convergence failed at  66  side 2    Res =  0.2334E+01
 MRCHDU: Convergence failed at  67  side 2    Res =  0.2029E+01
 MRCHDU: Convergence failed at  68  side 2    Res =  0.3694E+01
 MRCHDU: Convergence failed at  69  side 2    Res =  0.5999E+01
 MRCHDU: Convergence failed at  70  side 2    Res =  0.8004E+01
 MRCHDU: Convergence failed at  71  side 2    Res =  0.9353E+01
 MRCHDU: Convergence failed at  72  side 2    Res =  0.9538E+01
 MRCHDU: Convergence failed at  73  side 2    Res =  0.9066E+01
 MRCHDU: Convergence failed at  74  side 2    Res =  0.8202E+01
 MRCHDU: Convergence failed at  75  side 2    Res =  0.8461E+01
 MRCHDU: Convergence failed at  76  side 2    Res =  0.1645E+02
 Side 1  free  transition at x/c =  0.4826   58
 Side 2  free  transition at x/c =  0.8151   65

  42   rms: 0.2720E+00   max: 0.1951E+01   D at   76  2   RLX: 0.769
       a =  3.500      CL =  0.4357
      Cm = -0.0034     CD =  0.00932   =>   CDf =  0.00544    CDp =  0.00388

 Side 1  free  transition at x/c =  0.4636   58
 Side 2  free  transition at x/c =  0.7867   63

  43   rms: 0.1379E+00   max: -.7849E+00   D at   74  2   RLX: 0.637
       a =  3.500      CL =  0.3247
      Cm =  0.0161     CD =  0.01062   =>   CDf =  0.00615    CDp =  0.00447

 Side 1  free  transition at x/c =  0.4756   59
 Side 2  free  transition at x/c =  0.8016   63
 idif Ue xi dudx           1  0.11549779      3.36873531E-03   34.285210    
 Uenew xinew           2  2.69013941E-02  7.84635544E-04

  44   rms: 0.5050E-01   max: -.3183E+00   D at   64  2
       a =  3.500      CL =  0.2653
      Cm =  0.0274     CD =  0.01010   =>   CDf =  0.00617    CDp =  0.00393

 MRCHDU: Convergence failed at  65  side 2    Res =  0.1727E+01
 MRCHDU: Convergence failed at  66  side 2    Res =  0.2334E+01
 MRCHDU: Convergence failed at  67  side 2    Res =  0.2029E+01
 MRCHDU: Convergence failed at  68  side 2    Res =  0.3694E+01
 MRCHDU: Convergence failed at  69  side 2    Res =  0.5999E+01
 MRCHDU: Convergence failed at  70  side 2    Res =  0.8003E+01
 MRCHDU: Convergence failed at  71  side 2    Res =  0.9353E+01
 MRCHDU: Convergence failed at  72  side 2    Res =  0.9538E+01
 MRCHDU: Convergence failed at  73  side 2    Res =  0.9066E+01
 MRCHDU: Convergence failed at  74  side 2    Res =  0.8202E+01
 MRCHDU: Convergence failed at  75  side 2    Res =  0.8461E+01
 MRCHDU: Convergence failed at  76  side 2    Res =  0.1645E+02
 Side 1  free  transition at x/c =  0.4826   58
 Side 2  free  transition at x/c =  0.8151   65

  45   rms: 0.2720E+00   max: 0.1951E+01   D at   76  2   RLX: 0.769
       a =  3.500      CL =  0.4357
      Cm = -0.0034     CD =  0.00932   =>   CDf =  0.00544    CDp =  0.00388

 Side 1  free  transition at x/c =  0.4636   58
 Side 2  free  transition at x/c =  0.7867   63

  46   rms: 0.1379E+00   max: -.7849E+00   D at   74  2   RLX: 0.637
       a =  3.500      CL =  0.3247
      Cm =  0.0161     CD =  0.01062   =>   CDf =  0.00615    CDp =  0.00447

 Side 1  free  transition at x/c =  0.4756   59
 Side 2  free  transition at x/c =  0.8016   63
 idif Ue xi dudx           1  0.11549769      3.36873531E-03   34.285179    
 Uenew xinew           2  2.69013699E-02  7.84635544E-04

  47   rms: 0.5050E-01   max: -.3183E+00   D at   64  2
       a =  3.500      CL =  0.2653
      Cm =  0.0274     CD =  0.01010   =>   CDf =  0.00617    CDp =  0.00393

 MRCHDU: Convergence failed at  65  side 2    Res =  0.1728E+01
 MRCHDU: Convergence failed at  66  side 2    Res =  0.2334E+01
 MRCHDU: Convergence failed at  67  side 2    Res =  0.2029E+01
 MRCHDU: Convergence failed at  68  side 2    Res =  0.3694E+01
 MRCHDU: Convergence failed at  69  side 2    Res =  0.5999E+01
 MRCHDU: Convergence failed at  70  side 2    Res =  0.8004E+01
 MRCHDU: Convergence failed at  71  side 2    Res =  0.9353E+01
 MRCHDU: Convergence failed at  72  side 2    Res =  0.9538E+01
 MRCHDU: Convergence failed at  73  side 2    Res =  0.9066E+01
 MRCHDU: Convergence failed at  74  side 2    Res =  0.8201E+01
 MRCHDU: Convergence failed at  75  side 2    Res =  0.8461E+01
 MRCHDU: Convergence failed at  76  side 2    Res =  0.1645E+02
 Side 1  free  transition at x/c =  0.4826   58
 Side 2  free  transition at x/c =  0.8151   65

  48   rms: 0.2720E+00   max: 0.1951E+01   D at   76  2   RLX: 0.769
       a =  3.500      CL =  0.4357
      Cm = -0.0034     CD =  0.00932   =>   CDf =  0.00544    CDp =  0.00388

 Side 1  free  transition at x/c =  0.4636   58
 Side 2  free  transition at x/c =  0.7867   63

  49   rms: 0.1379E+00   max: -.7849E+00   D at   74  2   RLX: 0.637
       a =  3.500      CL =  0.3247
      Cm =  0.0161     CD =  0.01062   =>   CDf =  0.00615    CDp =  0.00447

 Side 1  free  transition at x/c =  0.4756   59
 Side 2  free  transition at x/c =  0.8016   63
 idif Ue xi dudx           1  0.11549778      3.36873531E-03   34.285202    
 Uenew xinew           2  2.69013885E-02  7.84635544E-04

  50   rms: 0.5050E-01   max: -.3183E+00   D at   64  2
       a =  3.500      CL =  0.2653
      Cm =  0.0274     CD =  0.01010   =>   CDf =  0.00617    CDp =  0.00393

 MRCHDU: Convergence failed at  65  side 2    Res =  0.1728E+01
 MRCHDU: Convergence failed at  66  side 2    Res =  0.2334E+01
 MRCHDU: Convergence failed at  67  side 2    Res =  0.2029E+01
 MRCHDU: Convergence failed at  68  side 2    Res =  0.3694E+01
 MRCHDU: Convergence failed at  69  side 2    Res =  0.5999E+01
 MRCHDU: Convergence failed at  70  side 2    Res =  0.8004E+01
 MRCHDU: Convergence failed at  71  side 2    Res =  0.9353E+01
 MRCHDU: Convergence failed at  72  side 2    Res =  0.9538E+01
 MRCHDU: Convergence failed at  73  side 2    Res =  0.9066E+01
 MRCHDU: Convergence failed at  74  side 2    Res =  0.8202E+01
 MRCHDU: Convergence failed at  75  side 2    Res =  0.8461E+01
 MRCHDU: Convergence failed at  76  side 2    Res =  0.1645E+02
 Side 1  free  transition at x/c =  0.4826   58
 Side 2  free  transition at x/c =  0.8151   65

  51   rms: 0.2720E+00   max: 0.1951E+01   D at   76  2   RLX: 0.769
       a =  3.500      CL =  0.4357
      Cm = -0.0034     CD =  0.00932   =>   CDf =  0.00544    CDp =  0.00388

 Side 1  free  transition at x/c =  0.4636   58
 Side 2  free  transition at x/c =  0.7867   63

  52   rms: 0.1379E+00   max: -.7849E+00   D at   74  2   RLX: 0.637
       a =  3.500      CL =  0.3247
      Cm =  0.0161     CD =  0.01062   =>   CDf =  0.00615    CDp =  0.00447

 Side 1  free  transition at x/c =  0.4756   59
 Side 2  free  transition at x/c =  0.8016   63
 idif Ue xi dudx           1  0.11549778      3.36873531E-03   34.285202    
 Uenew xinew           2  2.69013885E-02  7.84635544E-04

  53   rms: 0.5050E-01   max: -.3183E+00   D at   64  2
       a =  3.500      CL =  0.2653
      Cm =  0.0274     CD =  0.01010   =>   CDf =  0.00617    CDp =  0.00393

 MRCHDU: Convergence failed at  65  side 2    Res =  0.1727E+01
 MRCHDU: Convergence failed at  66  side 2    Res =  0.2334E+01
 MRCHDU: Convergence failed at  67  side 2    Res =  0.2029E+01
 MRCHDU: Convergence failed at  68  side 2    Res =  0.3694E+01
 MRCHDU: Convergence failed at  69  side 2    Res =  0.5999E+01
 MRCHDU: Convergence failed at  70  side 2    Res =  0.8004E+01
 MRCHDU: Convergence failed at  71  side 2    Res =  0.9353E+01
 MRCHDU: Convergence failed at  72  side 2    Res =  0.9538E+01
 MRCHDU: Convergence failed at  73  side 2    Res =  0.9066E+01
 MRCHDU: Convergence failed at  74  side 2    Res =  0.8202E+01
 MRCHDU: Convergence failed at  75  side 2    Res =  0.8461E+01
 MRCHDU: Convergence failed at  76  side 2    Res =  0.1645E+02
 Side 1  free  transition at x/c =  0.4826   58
 Side 2  free  transition at x/c =  0.8151   65

  54   rms: 0.2720E+00   max: 0.1951E+01   D at   76  2   RLX: 0.769
       a =  3.500      CL =  0.4357
      Cm = -0.0034     CD =  0.00932   =>   CDf =  0.00544    CDp =  0.00388

 Side 1  free  transition at x/c =  0.4636   58
 Side 2  free  transition at x/c =  0.7867   63

  55   rms: 0.1379E+00   max: -.7849E+00   D at   74  2   RLX: 0.637
       a =  3.500      CL =  0.3247
      Cm =  0.0161     CD =  0.01062   =>   CDf =  0.00615    CDp =  0.00447

 Side 1  free  transition at x/c =  0.4756   59
 Side 2  free  transition at x/c =  0.8016   63
 idif Ue xi dudx           1  0.11549783      3.36873531E-03   34.285217    
 Uenew xinew           2  2.69013997E-02  7.84635544E-04

  56   rms: 0.5050E-01   max: -.3183E+00   D at   64  2
       a =  3.500      CL =  0.2653
      Cm =  0.0274     CD =  0.01010   =>   CDf =  0.00617    CDp =  0.00393

 MRCHDU: Convergence failed at  65  side 2    Res =  0.1728E+01
 MRCHDU: Convergence failed at  66  side 2    Res =  0.2334E+01
 MRCHDU: Convergence failed at  67  side 2    Res =  0.2029E+01
 MRCHDU: Convergence failed at  68  side 2    Res =  0.3694E+01
 MRCHDU: Convergence failed at  69  side 2    Res =  0.5999E+01
 MRCHDU: Convergence failed at  70  side 2    Res =  0.8004E+01
 MRCHDU: Convergence failed at  71  side 2    Res =  0.9353E+01
 MRCHDU: Convergence failed at  72  side 2    Res =  0.9538E+01
 MRCHDU: Convergence failed at  73  side 2    Res =  0.9066E+01
 MRCHDU: Convergence failed at  74  side 2    Res =  0.8202E+01
 MRCHDU: Convergence failed at  75  side 2    Res =  0.8461E+01
 MRCHDU: Convergence failed at  76  side 2    Res =  0.1645E+02
 Side 1  free  transition at x/c =  0.4826   58
 Side 2  free  transition at x/c =  0.8151   65

  57   rms: 0.2720E+00   max: 0.1951E+01   D at   76  2   RLX: 0.769
       a =  3.500      CL =  0.4357
      Cm = -0.0034     CD =  0.00932   =>   CDf =  0.00544    CDp =  0.00388

 Side 1  free  transition at x/c =  0.4636   58
 Side 2  free  transition at x/c =  0.7867   63

  58   rms: 0.1379E+00   max: -.7849E+00   D at   74  2   RLX: 0.637
       a =  3.500      CL =  0.3247
      Cm =  0.0161     CD =  0.01062   =>   CDf =  0.00615    CDp =  0.00447

 Side 1  free  transition at x/c =  0.4756   59
 Side 2  free  transition at x/c =  0.8016   63
 idif Ue xi dudx           1  0.11549778      3.36873531E-03   34.285202    
 Uenew xinew           2  2.69013885E-02  7.84635544E-04

  59   rms: 0.5050E-01   max: -.3183E+00   D at   64  2
       a =  3.500      CL =  0.2653
      Cm =  0.0274     CD =  0.01010   =>   CDf =  0.00617    CDp =  0.00393

 MRCHDU: Convergence failed at  65  side 2    Res =  0.1728E+01
 MRCHDU: Convergence failed at  66  side 2    Res =  0.2334E+01
 MRCHDU: Convergence failed at  67  side 2    Res =  0.2029E+01
 MRCHDU: Convergence failed at  68  side 2    Res =  0.3694E+01
 MRCHDU: Convergence failed at  69  side 2    Res =  0.5999E+01
 MRCHDU: Convergence failed at  70  side 2    Res =  0.8004E+01
 MRCHDU: Convergence failed at  71  side 2    Res =  0.9353E+01
 MRCHDU: Convergence failed at  72  side 2    Res =  0.9538E+01
 MRCHDU: Convergence failed at  73  side 2    Res =  0.9066E+01
 MRCHDU: Convergence failed at  74  side 2    Res =  0.8202E+01
 MRCHDU: Convergence failed at  75  side 2    Res =  0.8461E+01
 MRCHDU: Convergence failed at  76  side 2    Res =  0.1645E+02
 Side 1  free  transition at x/c =  0.4826   58
 Side 2  free  transition at x/c =  0.8151   65

  60   rms: 0.2720E+00   max: 0.1951E+01   D at   76  2   RLX: 0.769
       a =  3.500      CL =  0.4357
      Cm = -0.0034     CD =  0.00932   =>   CDf =  0.00544    CDp =  0.00388

 Side 1  free  transition at x/c =  0.4636   58
 Side 2  free  transition at x/c =  0.7867   63

  61   rms: 0.1379E+00   max: -.7849E+00   D at   74  2   RLX: 0.637
       a =  3.500      CL =  0.3247
      Cm =  0.0161     CD =  0.01062   =>   CDf =  0.00615    CDp =  0.00447

 Side 1  free  transition at x/c =  0.4756   59
 Side 2  free  transition at x/c =  0.8016   63
 idif Ue xi dudx           1  0.11549775      3.36873531E-03   34.285194    
 Uenew xinew           2  2.69013830E-02  7.84635544E-04

  62   rms: 0.5050E-01   max: -.3183E+00   D at   64  2
       a =  3.500      CL =  0.2653
      Cm =  0.0274     CD =  0.01010   =>   CDf =  0.00617    CDp =  0.00393

 MRCHDU: Convergence failed at  65  side 2    Res =  0.1728E+01
 MRCHDU: Convergence failed at  66  side 2    Res =  0.2334E+01
 MRCHDU: Convergence failed at  67  side 2    Res =  0.2029E+01
 MRCHDU: Convergence failed at  68  side 2    Res =  0.3694E+01
 MRCHDU: Convergence failed at  69  side 2    Res =  0.5999E+01
 MRCHDU: Convergence failed at  70  side 2    Res =  0.8004E+01
 MRCHDU: Convergence failed at  71  side 2    Res =  0.9353E+01
 MRCHDU: Convergence failed at  72  side 2    Res =  0.9538E+01
 MRCHDU: Convergence failed at  73  side 2    Res =  0.9066E+01
 MRCHDU: Convergence failed at  74  side 2    Res =  0.8202E+01
 MRCHDU: Convergence failed at  75  side 2    Res =  0.8461E+01
 MRCHDU: Convergence failed at  76  side 2    Res =  0.1645E+02
 Side 1  free  transition at x/c =  0.4826   58
 Side 2  free  transition at x/c =  0.8151   65

  63   rms: 0.2720E+00   max: 0.1951E+01   D at   76  2   RLX: 0.769
       a =  3.500      CL =  0.4357
      Cm = -0.0034     CD =  0.00932   =>   CDf =  0.00544    CDp =  0.00388

 Side 1  free  transition at x/c =  0.4636   58
 Side 2  free  transition at x/c =  0.7867   63

  64   rms: 0.1379E+00   max: -.7849E+00   D at   74  2   RLX: 0.637
       a =  3.500      CL =  0.3247
      Cm =  0.0161     CD =  0.01062   =>   CDf =  0.00615    CDp =  0.00447

 Side 1  free  transition at x/c =  0.4756   59
 Side 2  free  transition at x/c =  0.8016   63
 idif Ue xi dudx           1  0.11549766      3.36873531E-03   34.285172    
 Uenew xinew           2  2.69013643E-02  7.84635544E-04

  65   rms: 0.5050E-01   max: -.3183E+00   D at   64  2
       a =  3.500      CL =  0.2653
      Cm =  0.0274     CD =  0.01010   =>   CDf =  0.00617    CDp =  0.00393

 MRCHDU: Convergence failed at  65  side 2    Res =  0.1728E+01
 MRCHDU: Convergence failed at  66  side 2    Res =  0.2334E+01
 MRCHDU: Convergence failed at  67  side 2    Res =  0.2029E+01
 MRCHDU: Convergence failed at  68  side 2    Res =  0.3694E+01
 MRCHDU: Convergence failed at  69  side 2    Res =  0.5999E+01
 MRCHDU: Convergence failed at  70  side 2    Res =  0.8004E+01
 MRCHDU: Convergence failed at  71  side 2    Res =  0.9353E+01
 MRCHDU: Convergence failed at  72  side 2    Res =  0.9538E+01
 MRCHDU: Convergence failed at  73  side 2    Res =  0.9066E+01
 MRCHDU: Convergence failed at  74  side 2    Res =  0.8202E+01
 MRCHDU: Convergence failed at  75  side 2    Res =  0.8461E+01
 MRCHDU: Convergence failed at  76  side 2    Res =  0.1645E+02
 Side 1  free  transition at x/c =  0.4826   58
 Side 2  free  transition at x/c =  0.8151   65

  66   rms: 0.2720E+00   max: 0.1951E+01   D at   76  2   RLX: 0.769
       a =  3.500      CL =  0.4357
      Cm = -0.0034     CD =  0.00932   =>   CDf =  0.00544    CDp =  0.00388

 Side 1  free  transition at x/c =  0.4636   58
 Side 2  free  transition at x/c =  0.7867   63

  67   rms: 0.1379E+00   max: -.7849E+00   D at   74  2   RLX: 0.637
       a =  3.500      CL =  0.3247
      Cm =  0.0161     CD =  0.01062   =>   CDf =  0.00615    CDp =  0.00447

 Side 1  free  transition at x/c =  0.4756   59
 Side 2  free  transition at x/c =  0.8016   63
 idif Ue xi dudx           1  0.11549783      3.36873531E-03   34.285217    
 Uenew xinew           2  2.69013997E-02  7.84635544E-04

  68   rms: 0.5050E-01   max: -.3183E+00   D at   64  2
       a =  3.500      CL =  0.2653
      Cm =  0.0274     CD =  0.01010   =>   CDf =  0.00617    CDp =  0.00393

 MRCHDU: Convergence failed at  65  side 2    Res =  0.1728E+01
 MRCHDU: Convergence failed at  66  side 2    Res =  0.2334E+01
 MRCHDU: Convergence failed at  67  side 2    Res =  0.2029E+01
 MRCHDU: Convergence failed at  68  side 2    Res =  0.3694E+01
 MRCHDU: Convergence failed at  69  side 2    Res =  0.5999E+01
 MRCHDU: Convergence failed at  70  side 2    Res =  0.8004E+01
 MRCHDU: Convergence failed at  71  side 2    Res =  0.9353E+01
 MRCHDU: Convergence failed at  72  side 2    Res =  0.9538E+01
 MRCHDU: Convergence failed at  73  side 2    Res =  0.9066E+01
 MRCHDU: Convergence failed at  74  side 2    Res =  0.8202E+01
 MRCHDU: Convergence failed at  75  side 2    Res =  0.8461E+01
 MRCHDU: Convergence failed at  76  side 2    Res =  0.1645E+02
 Side 1  free  transition at x/c =  0.4826   58
 Side 2  free  transition at x/c =  0.8151   65

  69   rms: 0.2720E+00   max: 0.1951E+01   D at   76  2   RLX: 0.769
       a =  3.500      CL =  0.4357
      Cm = -0.0034     CD =  0.00932   =>   CDf =  0.00544    CDp =  0.00388

 Side 1  free  transition at x/c =  0.4636   58
 Side 2  free  transition at x/c =  0.7867   63

  70   rms: 0.1379E+00   max: -.7849E+00   D at   74  2   RLX: 0.637
       a =  3.500      CL =  0.3247
      Cm =  0.0161     CD =  0.01062   =>   CDf =  0.00615    CDp =  0.00447

 Side 1  free  transition at x/c =  0.4756   59
 Side 2  free  transition at x/c =  0.8016   63
 idif Ue xi dudx           1  0.11549776      3.36873531E-03   34.285198    
 Uenew xinew           2  2.69013848E-02  7.84635544E-04

  71   rms: 0.5050E-01   max: -.3183E+00   D at   64  2
       a =  3.500      CL =  0.2653
      Cm =  0.0274     CD =  0.01010   =>   CDf =  0.00617    CDp =  0.00393

 MRCHDU: Convergence failed at  65  side 2    Res =  0.1728E+01
 MRCHDU: Convergence failed at  66  side 2    Res =  0.2334E+01
 MRCHDU: Convergence failed at  67  side 2    Res =  0.2029E+01
 MRCHDU: Convergence failed at  68  side 2    Res =  0.3694E+01
 MRCHDU: Convergence failed at  69  side 2    Res =  0.5999E+01
 MRCHDU: Convergence failed at  70  side 2    Res =  0.8003E+01
 MRCHDU: Convergence failed at  71  side 2    Res =  0.9352E+01
 MRCHDU: Convergence failed at  72  side 2    Res =  0.9538E+01
 MRCHDU: Convergence failed at  73  side 2    Res =  0.9066E+01
 MRCHDU: Convergence failed at  74  side 2    Res =  0.8201E+01
 MRCHDU: Convergence failed at  75  side 2    Res =  0.8461E+01
 MRCHDU: Convergence failed at  76  side 2    Res =  0.1645E+02
 Side 1  free  transition at x/c =  0.4826   58
 Side 2  free  transition at x/c =  0.8151   65

  72   rms: 0.2720E+00   max: 0.1951E+01   D at   76  2   RLX: 0.769
       a =  3.500      CL =  0.4357
      Cm = -0.0034     CD =  0.00932   =>   CDf =  0.00544    CDp =  0.00388

 Side 1  free  transition at x/c =  0.4636   58
 Side 2  free  transition at x/c =  0.7867   63

  73   rms: 0.1379E+00   max: -.7849E+00   D at   74  2   RLX: 0.637
       a =  3.500      CL =  0.3247
      Cm =  0.0161     CD =  0.01062   =>   CDf =  0.00615    CDp =  0.00447

 Side 1  free  transition at x/c =  0.4756   59
 Side 2  free  transition at x/c =  0.8016   63
 idif Ue xi dudx           1  0.11549775      3.36873531E-03   34.285194    
 Uenew xinew           2  2.69013830E-02  7.84635544E-04

  74   rms: 0.5050E-01   max: -.3183E+00   D at   64  2
       a =  3.500      CL =  0.2653
      Cm =  0.0274     CD =  0.01010   =>   CDf =  0.00617    CDp =  0.00393

 MRCHDU: Convergence failed at  65  side 2    Res =  0.1727E+01
 MRCHDU: Convergence failed at  66  side 2    Res =  0.2334E+01
 MRCHDU: Convergence failed at  67  side 2    Res =  0.2029E+01
 MRCHDU: Convergence failed at  68  side 2    Res =  0.3694E+01
 MRCHDU: Convergence failed at  69  side 2    Res =  0.5999E+01
 MRCHDU: Convergence failed at  70  side 2    Res =  0.8003E+01
 MRCHDU: Convergence failed at  71  side 2    Res =  0.9353E+01
 MRCHDU: Convergence failed at  72  side 2    Res =  0.9538E+01
 MRCHDU: Convergence failed at  73  side 2    Res =  0.9066E+01
 MRCHDU: Convergence failed at  74  side 2    Res =  0.8201E+01
 MRCHDU: Convergence failed at  75  side 2    Res =  0.8461E+01
 MRCHDU: Convergence failed at  76  side 2    Res =  0.1645E+02
 Side 1  free  transition at x/c =  0.4826   58
 Side 2  free  transition at x/c =  0.8151   65

  75   rms: 0.2720E+00   max: 0.1951E+01   D at   76  2   RLX: 0.769
       a =  3.500      CL =  0.4357
      Cm = -0.0034     CD =  0.00932   =>   CDf =  0.00544    CDp =  0.00388

 Side 1  free  transition at x/c =  0.4636   58
 Side 2  free  transition at x/c =  0.7867   63

  76   rms: 0.1379E+00   max: -.7849E+00   D at   74  2   RLX: 0.637
       a =  3.500      CL =  0.3247
      Cm =  0.0161     CD =  0.01062   =>   CDf =  0.00615    CDp =  0.00447

 Side 1  free  transition at x/c =  0.4756   59
 Side 2  free  transition at x/c =  0.8016   63
 idif Ue xi dudx           1  0.11549769      3.36873531E-03   34.285179    
 Uenew xinew           2  2.69013699E-02  7.84635544E-04

  77   rms: 0.5050E-01   max: -.3183E+00   D at   64  2
       a =  3.500      CL =  0.2653
      Cm =  0.0274     CD =  0.01010   =>   CDf =  0.00617    CDp =  0.00393

 MRCHDU: Convergence failed at  65  side 2    Res =  0.1728E+01
 MRCHDU: Convergence failed at  66  side 2    Res =  0.2334E+01
 MRCHDU: Convergence failed at  67  side 2    Res =  0.2029E+01
 MRCHDU: Convergence failed at  68  side 2    Res =  0.3694E+01
 MRCHDU: Convergence failed at  69  side 2    Res =  0.5999E+01
 MRCHDU: Convergence failed at  70  side 2    Res =  0.8004E+01
 MRCHDU: Convergence failed at  71  side 2    Res =  0.9353E+01
 MRCHDU: Convergence failed at  72  side 2    Res =  0.9538E+01
 MRCHDU: Convergence failed at  73  side 2    Res =  0.9066E+01
 MRCHDU: Convergence failed at  74  side 2    Res =  0.8201E+01
 MRCHDU: Convergence failed at  75  side 2    Res =  0.8461E+01
 MRCHDU: Convergence failed at  76  side 2    Res =  0.1645E+02
 Side 1  free  transition at x/c =  0.4826   58
 Side 2  free  transition at x/c =  0.8151   65

  78   rms: 0.2720E+00   max: 0.1951E+01   D at   76  2   RLX: 0.769
       a =  3.500      CL =  0.4357
      Cm = -0.0034     CD =  0.00932   =>   CDf =  0.00544    CDp =  0.00388

 Side 1  free  transition at x/c =  0.4636   58
 Side 2  free  transition at x/c =  0.7867   63

  79   rms: 0.1379E+00   max: -.7849E+00   D at   74  2   RLX: 0.637
       a =  3.500      CL =  0.3247
      Cm =  0.0161     CD =  0.01062   =>   CDf =  0.00615    CDp =  0.00447

 Side 1  free  transition at x/c =  0.4756   59
 Side 2  free  transition at x/c =  0.8016   63
 idif Ue xi dudx           1  0.11549782      3.36873531E-03   34.285217    
 Uenew xinew           2  2.69013997E-02  7.84635544E-04

  80   rms: 0.5050E-01   max: -.3183E+00   D at   64  2
       a =  3.500      CL =  0.2653
      Cm =  0.0274     CD =  0.01010   =>   CDf =  0.00617    CDp =  0.00393

 MRCHDU: Convergence failed at  65  side 2    Res =  0.1727E+01
 MRCHDU: Convergence failed at  66  side 2    Res =  0.2334E+01
 MRCHDU: Convergence failed at  67  side 2    Res =  0.2029E+01
 MRCHDU: Convergence failed at  68  side 2    Res =  0.3694E+01
 MRCHDU: Convergence failed at  69  side 2    Res =  0.5999E+01
 MRCHDU: Convergence failed at  70  side 2    Res =  0.8003E+01
 MRCHDU: Convergence failed at  71  side 2    Res =  0.9352E+01
 MRCHDU: Convergence failed at  72  side 2    Res =  0.9538E+01
 MRCHDU: Convergence failed at  73  side 2    Res =  0.9066E+01
 MRCHDU: Convergence failed at  74  side 2    Res =  0.8201E+01
 MRCHDU: Convergence failed at  75  side 2    Res =  0.8461E+01
 MRCHDU: Convergence failed at  76  side 2    Res =  0.1645E+02
 Side 1  free  transition at x/c =  0.4826   58
 Side 2  free  transition at x/c =  0.8151   65

  81   rms: 0.2720E+00   max: 0.1951E+01   D at   76  2   RLX: 0.769
       a =  3.500      CL =  0.4357
      Cm = -0.0034     CD =  0.00932   =>   CDf =  0.00544    CDp =  0.00388

 Side 1  free  transition at x/c =  0.4636   58
 Side 2  free  transition at x/c =  0.7867   63

  82   rms: 0.1379E+00   max: -.7849E+00   D at   74  2   RLX: 0.637
       a =  3.500      CL =  0.3247
      Cm =  0.0161     CD =  0.01062   =>   CDf =  0.00615    CDp =  0.00447

 Side 1  free  transition at x/c =  0.4756   59
 Side 2  free  transition at x/c =  0.8016   63
 idif Ue xi dudx           1  0.11549776      3.36873531E-03   34.285198    
 Uenew xinew           2  2.69013848E-02  7.84635544E-04

  83   rms: 0.5050E-01   max: -.3183E+00   D at   64  2
       a =  3.500      CL =  0.2653
      Cm =  0.0274     CD =  0.01010   =>   CDf =  0.00617    CDp =  0.00393

 MRCHDU: Convergence failed at  65  side 2    Res =  0.1727E+01
 MRCHDU: Convergence failed at  66  side 2    Res =  0.2334E+01
 MRCHDU: Convergence failed at  67  side 2    Res =  0.2029E+01
 MRCHDU: Convergence failed at  68  side 2    Res =  0.3694E+01
 MRCHDU: Convergence failed at  69  side 2    Res =  0.5999E+01
 MRCHDU: Convergence failed at  70  side 2    Res =  0.8004E+01
 MRCHDU: Convergence failed at  71  side 2    Res =  0.9353E+01
 MRCHDU: Convergence failed at  72  side 2    Res =  0.9538E+01
 MRCHDU: Convergence failed at  73  side 2    Res =  0.9066E+01
 MRCHDU: Convergence failed at  74  side 2    Res =  0.8202E+01
 MRCHDU: Convergence failed at  75  side 2    Res =  0.8461E+01
 MRCHDU: Convergence failed at  76  side 2    Res =  0.1645E+02
 Side 1  free  transition at x/c =  0.4826   58
 Side 2  free  transition at x/c =  0.8151   65

  84   rms: 0.2720E+00   max: 0.1951E+01   D at   76  2   RLX: 0.769
       a =  3.500      CL =  0.4357
[...]

 Side 1  free  transition at x/c =  0.1427   52
 Side 2 forced transition at x/c =  1.0000   63

   2   rms: 0.4164E-02   max: -.3514E-01   T at    2  1
       a = 12.750      CL =  1.0913
      Cm =  0.0410     CD =  0.02565   =>   CDf =  0.00623    CDp =  0.01942

 Side 1  free  transition at x/c =  0.1427   52
 Side 2 forced transition at x/c =  1.0000   63

   3   rms: 0.7606E-03   max: -.1001E-01   D at    4  1
       a = 12.750      CL =  1.0913
      Cm =  0.0410     CD =  0.02564   =>   CDf =  0.00623    CDp =  0.01941

 Side 1  free  transition at x/c =  0.1427   52
 Side 2 forced transition at x/c =  1.0000   63

   4   rms: 0.1156E-05   max: 0.1211E-04   D at    8  1
       a = 12.750      CL =  1.0913
      Cm =  0.0410     CD =  0.02564   =>   CDf =  0.00623    CDp =  0.01941
 plradd ia,ip,cpol           40           0  1.47482390E-02

 Point added to stored polar  1
 Point written to save file  goe460_Re400k.base.pol                          
 Dump file unspecified or not available
 Calculating wake trajectory ...
 Calculating source influence matrix ...

 Solving BL system ...

 Side 1  free  transition at x/c =  0.1427   52
 Side 2 forced transition at x/c =  1.0000   63

   1   rms: 0.3309E-01   max: 0.1146E+00   D at   83  1   RLX: 0.886
       a = 13.000      CL =  1.0894
      Cm =  0.0439     CD =  0.02666   =>   CDf =  0.00623    CDp =  0.02043

 Side 1  free  transition at x/c =  0.1394   51
 Side 2 forced transition at x/c =  1.0000   63

   2   rms: 0.6912E-02   max: -.6997E-01   D at   51  1
       a = 13.000      CL =  1.0942
      Cm =  0.0437     CD =  0.02651   =>   CDf =  0.00621    CDp =  0.02030

 Side 1  free  transition at x/c =  0.1388   51
 Side 2 forced transition at x/c =  1.0000   63

   3   rms: 0.8390E-04   max: 0.8906E-03   C at   51  1
       a = 13.000      CL =  1.0941
      Cm =  0.0437     CD =  0.02652   =>   CDf =  0.00619    CDp =  0.02033
 plradd ia,ip,cpol           41           0  1.47482390E-02

 Point added to stored polar  1
 Point written to save file  goe460_Re400k.base.pol                          
 Dump file unspecified or not available
 Calculating wake trajectory ...
 Calculating source influence matrix ...

 Solving BL system ...

 Side 1  free  transition at x/c =  0.1388   51
 Side 2 forced transition at x/c =  1.0000   63

   1   rms: 0.2972E-01   max: -.9647E-01   D at   61  2   RLX: 0.852
       a = 13.250      CL =  1.0970
      Cm =  0.0458     CD =  0.02735   =>   CDf =  0.00620    CDp =  0.02116

 Side 1  free  transition at x/c =  0.1354   51
 Side 2 forced transition at x/c =  1.0000   63

   2   rms: 0.4844E-02   max: 0.2634E-01   D at   84  1
       a = 13.250      CL =  1.0963
      Cm =  0.0462     CD =  0.02755   =>   CDf =  0.00619    CDp =  0.02136

 Side 1  free  transition at x/c =  0.1350   51
 Side 2 forced transition at x/c =  1.0000   63

   3   rms: 0.3007E-03   max: 0.3208E-02   D at   84  1
       a = 13.250      CL =  1.0961
      Cm =  0.0462     CD =  0.02755   =>   CDf =  0.00619    CDp =  0.02136

 Side 1  free  transition at x/c =  0.1350   51
 Side 2 forced transition at x/c =  1.0000   63

   4   rms: 0.4775E-05   max: 0.3622E-04   D at   72  2
       a = 13.250      CL =  1.0961
      Cm =  0.0462     CD =  0.02755   =>   CDf =  0.00619    CDp =  0.02136
 plradd ia,ip,cpol           42           0  1.01714125E-02

 Point added to stored polar  1
 Point written to save file  goe460_Re400k.base.pol                          
 Dump file unspecified or not available
 Calculating wake trajectory ...
 Calculating source influence matrix ...

 Solving BL system ...

 Side 1  free  transition at x/c =  0.1350   51
 Side 2 forced transition at x/c =  1.0000   63

   1   rms: 0.3273E-01   max: -.1422E+00   D at    3  1   RLX: 0.809
       a = 13.500      CL =  1.0972
      Cm =  0.0483     CD =  0.02853   =>   CDf =  0.00619    CDp =  0.02234

 Side 1  free  transition at x/c =  0.1319   51
 Side 2 forced transition at x/c =  1.0000   63

   2   rms: 0.7168E-02   max: 0.3497E-01   D at   83  1
       a = 13.500      CL =  1.0957
      Cm =  0.0488     CD =  0.02884   =>   CDf =  0.00621    CDp =  0.02263

 Side 1  free  transition at x/c =  0.1313   51
 Side 2 forced transition at x/c =  1.0000   63

   3   rms: 0.3414E-03   max: 0.2902E-02   D at   83  1
       a = 13.500      CL =  1.0955
      Cm =  0.0488     CD =  0.02883   =>   CDf =  0.00621    CDp =  0.02262

 Side 1  free  transition at x/c =  0.1313   51
 Side 2 forced transition at x/c =  1.0000   63

   4   rms: 0.5783E-05   max: 0.4011E-04   D at   83  1
       a = 13.500      CL =  1.0955
      Cm =  0.0488     CD =  0.02883   =>   CDf =  0.00621    CDp =  0.02262
 plradd ia,ip,cpol           43           0  1.23446099E-02

 Point added to stored polar  1
 Point written to save file  goe460_Re400k.base.pol                          
 Dump file unspecified or not available
 Calculating wake trajectory ...
 Calculating source influence matrix ...

 Solving BL system ...

 Side 1  free  transition at x/c =  0.1313   51
 Side 2 forced transition at x/c =  1.0000   63

   1   rms: 0.3883E-01   max: 0.2277E+00   D at    3  1   RLX: 0.765
       a = 13.750      CL =  1.0940
      Cm =  0.0507     CD =  0.03000   =>   CDf =  0.00621    CDp =  0.02379

 Side 1  free  transition at x/c =  0.1287   50
 Side 2 forced transition at x/c =  1.0000   63

   2   rms: 0.9298E-02   max: -.7118E-01   C at   50  1
       a = 13.750      CL =  1.0985
      Cm =  0.0508     CD =  0.03001   =>   CDf =  0.00621    CDp =  0.02381

 Side 1  free  transition at x/c =  0.1277   50
 Side 2 forced transition at x/c =  1.0000   63

   3   rms: 0.2400E-03   max: 0.9127E-03   D at   73  2
       a = 13.750      CL =  1.0982
      Cm =  0.0509     CD =  0.03002   =>   CDf =  0.00618    CDp =  0.02384

 Side 1  free  transition at x/c =  0.1277   50
 Side 2 forced transition at x/c =  1.0000   63

   4   rms: 0.2606E-05   max: 0.1177E-04   D at   77  2
       a = 13.750      CL =  1.0982
      Cm =  0.0509     CD =  0.03002   =>   CDf =  0.00618    CDp =  0.02384
 plradd ia,ip,cpol           44           0  1.23446099E-02

 Point added to stored polar  1
 Point written to save file  goe460_Re400k.base.pol                          
 Dump file unspecified or not available
 Calculating wake trajectory ...
 Calculating source influence matrix ...

 Solving BL system ...

 Side 1  free  transition at x/c =  0.1277   50
 Side 2 forced transition at x/c =  1.0000   63

   1   rms: 0.3115E-01   max: -.1117E+00   D at    3  2   RLX: 0.743
       a = 14.000      CL =  1.1034
      Cm =  0.0521     CD =  0.03082   =>   CDf =  0.00618    CDp =  0.02465

 Side 1  free  transition at x/c =  0.1249   50
 Side 2 forced transition at x/c =  1.0000   63

   2   rms: 0.9000E-02   max: 0.4211E-01   D at   82  1
       a = 14.000      CL =  1.1026
      Cm =  0.0527     CD =  0.03125   =>   CDf =  0.00615    CDp =  0.02510

 Side 1  free  transition at x/c =  0.1241   50
 Side 2 forced transition at x/c =  1.0000   63

   3   rms: 0.4692E-03   max: 0.3374E-02   D at   82  1
       a = 14.000      CL =  1.1022
      Cm =  0.0527     CD =  0.03123   =>   CDf =  0.00614    CDp =  0.02510

 Side 1  free  transition at x/c =  0.1241   50
 Side 2 forced transition at x/c =  1.0000   63

   4   rms: 0.5717E-05   max: 0.4885E-04   D at   61  2
       a = 14.000      CL =  1.1023
      Cm =  0.0527     CD =  0.03123   =>   CDf =  0.00613    CDp =  0.02510
 plradd ia,ip,cpol           45           0  8.23579822E-03

 Point added to stored polar  1
 Point written to save file  goe460_Re400k.base.pol                          
 Dump file unspecified or not available
 Calculating wake trajectory ...
 Calculating source influence matrix ...

 Solving BL system ...

 Side 1  free  transition at x/c =  0.1241   50
 Side 2 forced transition at x/c =  1.0000   63

   1   rms: 0.3137E-01   max: 0.1075E+00   D at   80  1   RLX: 0.710
       a = 14.250      CL =  1.1043
      Cm =  0.0539     CD =  0.03226   =>   CDf =  0.00596    CDp =  0.02630

 Side 1  free  transition at x/c =  0.1212   51
 Side 2 forced transition at x/c =  1.0000   62

   2   rms: 0.1061E-01   max: 0.4839E-01   D at   82  1
       a = 14.250      CL =  1.1028
      Cm =  0.0545     CD =  0.03280   =>   CDf =  0.00614    CDp =  0.02666

 Side 1  free  transition at x/c =  0.1203   51
 Side 2 forced transition at x/c =  1.0000   62

   3   rms: 0.9386E-03   max: 0.7422E-02   D at   82  1
       a = 14.250      CL =  1.1022
      Cm =  0.0545     CD =  0.03280   =>   CDf =  0.00614    CDp =  0.02666

 Side 1  free  transition at x/c =  0.1203   51
 Side 2 forced transition at x/c =  1.0000   62

   4   rms: 0.1530E-04   max: 0.1703E-03   D at   72  2
       a = 14.250      CL =  1.1022
      Cm =  0.0545     CD =  0.03280   =>   CDf =  0.00614    CDp =  0.02666
 plradd ia,ip,cpol           46           0  6.53341180E-03

 Point added to stored polar  1
 Point written to save file  goe460_Re400k.base.pol                          
 Dump file unspecified or not available
 Calculating wake trajectory ...
 Calculating source influence matrix ...

 Solving BL system ...

 Side 1  free  transition at x/c =  0.1203   51
 Side 2 forced transition at x/c =  1.0000   62

   1   rms: 0.3485E-01   max: 0.1308E+00   D at   80  1   RLX: 0.676
       a = 14.500      CL =  1.1013
      Cm =  0.0557     CD =  0.03407   =>   CDf =  0.00614    CDp =  0.02793

 Side 1  free  transition at x/c =  0.1180   51
 Side 2 forced transition at x/c =  1.0000   62

   2   rms: 0.1276E-01   max: 0.5676E-01   D at   81  1
       a = 14.500      CL =  1.0989
      Cm =  0.0564     CD =  0.03475   =>   CDf =  0.00615    CDp =  0.02860

 Side 1  free  transition at x/c =  0.1167   50
 Side 2 forced transition at x/c =  1.0000   62

   3   rms: 0.4649E-02   max: -.5002E-01   C at   50  1
       a = 14.500      CL =  1.1015
      Cm =  0.0562     CD =  0.03449   =>   CDf =  0.00614    CDp =  0.02835

 Side 1  free  transition at x/c =  0.1168   50
 Side 2 forced transition at x/c =  1.0000   62

   4   rms: 0.4422E-03   max: -.2266E-02   D at   81  1
       a = 14.500      CL =  1.1018
      Cm =  0.0562     CD =  0.03448   =>   CDf =  0.00613    CDp =  0.02836

 Side 1  free  transition at x/c =  0.1168   50
 Side 2 forced transition at x/c =  1.0000   62

   5   rms: 0.9199E-05   max: -.7732E-04   D at   72  2
       a = 14.500      CL =  1.1018
      Cm =  0.0562     CD =  0.03449   =>   CDf =  0.00613    CDp =  0.02836
 plradd ia,ip,cpol           47           0  8.23579822E-03

 Point added to stored polar  1
 Point written to save file  goe460_Re400k.base.pol                          
 Dump file unspecified or not available
 Calculating wake trajectory ...
 Calculating source influence matrix ...

 Solving BL system ...

 Side 1  free  transition at x/c =  0.1168   50
 Side 2 forced transition at x/c =  1.0000   62

   1   rms: 0.3085E-01   max: -.1230E+00   C at   50  1   RLX: 0.657
       a = 14.750      CL =  1.1076
      Cm =  0.0569     CD =  0.03530   =>   CDf =  0.00613    CDp =  0.02917

 Side 1  free  transition at x/c =  0.1144   50
 Side 2 forced transition at x/c =  1.0000   62

   2   rms: 0.1072E-01   max: 0.3941E-01   T at   50  1
       a = 14.750      CL =  1.1086
      Cm =  0.0573     CD =  0.03582   =>   CDf =  0.00608    CDp =  0.02974

 Side 1  free  transition at x/c =  0.1131   50
 Side 2 forced transition at x/c =  1.0000   62

   3   rms: 0.8214E-03   max: 0.5273E-02   D at   80  1
       a = 14.750      CL =  1.1080
      Cm =  0.0574     CD =  0.03582   =>   CDf =  0.00605    CDp =  0.02977

 Side 1  free  transition at x/c =  0.1131   50
 Side 2 forced transition at x/c =  1.0000   62

   4   rms: 0.1277E-04   max: 0.9998E-04   D at   80  1
       a = 14.750      CL =  1.1080
      Cm =  0.0574     CD =  0.03582   =>   CDf =  0.00605    CDp =  0.02977
 plradd ia,ip,cpol           48           0  5.05263777E-03

 Point added to stored polar  1
 Point written to save file  goe460_Re400k.base.pol                          
 Dump file unspecified or not available
 Calculating wake trajectory ...
 Calculating source influence matrix ...

 Solving BL system ...

 Side 1  free  transition at x/c =  0.1131   50
 Side 2 forced transition at x/c =  1.0000   62

   1   rms: 0.3061E-01   max: 0.1166E+00   T at   50  1   RLX: 0.633
       a = 15.000      CL =  1.1106
      Cm =  0.0581     CD =  0.03688   =>   CDf =  0.00605    CDp =  0.03083

 Side 1  free  transition at x/c =  0.1105   50
 Side 2 forced transition at x/c =  1.0000   62

   2   rms: 0.1260E-01   max: -.6204E-01   D at   50  1
       a = 15.000      CL =  1.1093
      Cm =  0.0585     CD =  0.03767   =>   CDf =  0.00605    CDp =  0.03163

 Side 1  free  transition at x/c =  0.1092   50
 Side 2 forced transition at x/c =  1.0000   62

   3   rms: 0.8482E-03   max: 0.5324E-02   D at   79  1
       a = 15.000      CL =  1.1086
      Cm =  0.0586     CD =  0.03764   =>   CDf =  0.00604    CDp =  0.03160

 Side 1  free  transition at x/c =  0.1092   50
 Side 2 forced transition at x/c =  1.0000   62

   4   rms: 0.1228E-04   max: 0.1280E-03   D at   79  1
       a = 15.000      CL =  1.1086
      Cm =  0.0586     CD =  0.03764   =>   CDf =  0.00604    CDp =  0.03160
 plradd ia,ip,cpol           49           0  6.53341180E-03

 Point added to stored polar  1
 Point written to save file  goe460_Re400k.base.pol                          
 Dump file unspecified or not available
 Calculating wake trajectory ...
 Calculating source influence matrix ...

 Solving BL system ...

 Side 1  free  transition at x/c =  0.1092   50
 Side 2 forced transition at x/c =  1.0000   62

   1   rms: 0.3461E-01   max: -.1554E+00   D at   50  1   RLX: 0.606
       a = 15.250      CL =  1.1080
      Cm =  0.0593     CD =  0.03898   =>   CDf =  0.00604    CDp =  0.03294

 Side 1  free  transition at x/c =  0.1068   50
 Side 2 forced transition at x/c =  1.0000   62

   2   rms: 0.1673E-01   max: 0.7862E-01   D at   79  1
       a = 15.250      CL =  1.1032
      Cm =  0.0598     CD =  0.04014   =>   CDf =  0.00606    CDp =  0.03408

 Side 1  free  transition at x/c =  0.1054   49
 Side 2 forced transition at x/c =  1.0000   62

   3   rms: 0.4616E-02   max: -.4790E-01   C at   49  1
       a = 15.250      CL =  1.1058
      Cm =  0.0597     CD =  0.03979   =>   CDf =  0.00605    CDp =  0.03374

 Side 1  free  transition at x/c =  0.1053   49
 Side 2 forced transition at x/c =  1.0000   62

   4   rms: 0.4950E-03   max: -.2425E-02   D at   78  1
       a = 15.250      CL =  1.1062
      Cm =  0.0597     CD =  0.03978   =>   CDf =  0.00604    CDp =  0.03374

 Side 1  free  transition at x/c =  0.1053   49
 Side 2 forced transition at x/c =  1.0000   62

   5   rms: 0.1550E-04   max: -.1111E-03   D at   73  2
       a = 15.250      CL =  1.1062
      Cm =  0.0597     CD =  0.03978   =>   CDf =  0.00604    CDp =  0.03374
 plradd ia,ip,cpol           50           0  6.53341180E-03

 Point added to stored polar  1
 Point written to save file  goe460_Re400k.base.pol                          
 Dump file unspecified or not available
 Calculating wake trajectory ...
 Calculating source influence matrix ...

 Solving BL system ...

 Side 1  free  transition at x/c =  0.1053   49
 Side 2 forced transition at x/c =  1.0000   62

   1   rms: 0.3165E-01   max: -.2129E+00   C at   49  1   RLX: 0.590
       a = 15.500      CL =  1.1122
      Cm =  0.0600     CD =  0.04061   =>   CDf =  0.00604    CDp =  0.03456

 Side 1  free  transition at x/c =  0.1028   49
 Side 2 forced transition at x/c =  1.0000   62

   2   rms: 0.1317E-01   max: 0.5592E-01   T at   49  1
       a = 15.500      CL =  1.1128
      Cm =  0.0603     CD =  0.04143   =>   CDf =  0.00579    CDp =  0.03564

 Side 1  free  transition at x/c =  0.1010   50
 Side 2 forced transition at x/c =  1.0000   61

   3   rms: 0.1153E-02   max: 0.5213E-02   D at   72  2
       a = 15.500      CL =  1.1119
      Cm =  0.0604     CD =  0.04141   =>   CDf =  0.00595    CDp =  0.03546

 Side 1  free  transition at x/c =  0.1011   50
 Side 2 forced transition at x/c =  1.0000   61

   4   rms: 0.1013E-03   max: 0.1300E-02   D at    4  1
       a = 15.500      CL =  1.1119
      Cm =  0.0604     CD =  0.04140   =>   CDf =  0.00595    CDp =  0.03546

 Side 1  free  transition at x/c =  0.1011   50
 Side 2 forced transition at x/c =  1.0000   61

   5   rms: 0.2722E-05   max: 0.3129E-04   D at    4  1
       a = 15.500      CL =  1.1119
      Cm =  0.0604     CD =  0.04140   =>   CDf =  0.00595    CDp =  0.03546
 plradd ia,ip,cpol           51           0  5.05263777E-03

 Point added to stored polar  1
 Point written to save file  goe460_Re400k.base.pol                          
 Dump file unspecified or not available
 Calculating wake trajectory ...
 Calculating source influence matrix ...

 Solving BL system ...

 Side 1  free  transition at x/c =  0.1011   50
 Side 2 forced transition at x/c =  1.0000   61

   1   rms: 0.3396E-01   max: -.1558E+00   T at    3  1   RLX: 0.568
       a = 15.750      CL =  1.1137
      Cm =  0.0607     CD =  0.04258   =>   CDf =  0.00595    CDp =  0.03663

 Side 1  free  transition at x/c =  0.0986   50
 Side 2 forced transition at x/c =  1.0000   61

   2   rms: 0.1608E-01   max: -.7227E-01   D at   50  1
       a = 15.750      CL =  1.1121
      Cm =  0.0610     CD =  0.04368   =>   CDf =  0.00595    CDp =  0.03773

 Side 1  free  transition at x/c =  0.0972   50
 Side 2 forced transition at x/c =  1.0000   61

   3   rms: 0.1641E-02   max: 0.1075E-01   D at   78  1
       a = 15.750      CL =  1.1108
      Cm =  0.0610     CD =  0.04366   =>   CDf =  0.00595    CDp =  0.03771

 Side 1  free  transition at x/c =  0.0973   50
 Side 2 forced transition at x/c =  1.0000   61

   4   rms: 0.3487E-04   max: 0.2729E-03   D at   73  2
       a = 15.750      CL =  1.1108
      Cm =  0.0611     CD =  0.04364   =>   CDf =  0.00594    CDp =  0.03770
 plradd ia,ip,cpol           52           0  5.05263777E-03

 Point added to stored polar  1
 Point written to save file  goe460_Re400k.base.pol                          
 Dump file unspecified or not available
 Calculating wake trajectory ...
 Calculating source influence matrix ...

 Solving BL system ...

 Side 1  free  transition at x/c =  0.0973   50
 Side 2 forced transition at x/c =  1.0000   61

   1   rms: 0.3746E-01   max: 0.1427E+00   D at   76  1   RLX: 0.545
       a = 16.000      CL =  1.1094
      Cm =  0.0614     CD =  0.04514   =>   CDf =  0.00594    CDp =  0.03920

 Side 1  free  transition at x/c =  0.0955   50
 Side 2 forced transition at x/c =  1.0000   61

   2   rms: 0.1975E-01   max: 0.8502E-01   D at   77  1
       a = 16.000      CL =  1.1040
      Cm =  0.0618     CD =  0.04662   =>   CDf =  0.00596    CDp =  0.04066

 Side 1  free  transition at x/c =  0.0938   49
 Side 2 forced transition at x/c =  1.0000   61

   3   rms: 0.9268E-02   max: -.8967E-01   D at   49  1
       a = 16.000      CL =  1.1101
      Cm =  0.0616     CD =  0.04589   =>   CDf =  0.00591    CDp =  0.03998

 Side 1  free  transition at x/c =  0.0938   49
 Side 2 forced transition at x/c =  1.0000   61

   4   rms: 0.1360E-02   max: -.7103E-02   D at   77  1
       a = 16.000      CL =  1.1110
      Cm =  0.0616     CD =  0.04585   =>   CDf =  0.00590    CDp =  0.03995

 Side 1  free  transition at x/c =  0.0936   49
 Side 2 forced transition at x/c =  1.0000   61

   5   rms: 0.6129E-04   max: -.3863E-03   D at   73  2
       a = 16.000      CL =  1.1111
      Cm =  0.0616     CD =  0.04586   =>   CDf =  0.00590    CDp =  0.03996
 plradd ia,ip,cpol           53           0  5.05263777E-03

 Point added to stored polar  1
 Point written to save file  goe460_Re400k.base.pol                          
 Dump file unspecified or not available

.OPERva   c>  
 Polar accumulation disabled

.OPERv   c>  
 XFOIL   c>  
 XFOIL   c>  