
 ===================================================
  XFOIL Version 6.99
  Copyright (C) 2000   Mark Drela, Harold Youngren

  This software comes with ABSOLUTELY NO WARRANTY,
    subject to the GNU General Public License.

  Caveat computor
 ===================================================

 File  xfoil.def  not found

   QUIT    Exit program

  .OPER    Direct operating point(s)
  .MDES    Complex mapping design routine
  .QDES    Surface speed design routine
  .GDES    Geometry design routine

   SAVE f  Write airfoil to labeled coordinate file
   PSAV f  Write airfoil to plain coordinate file
   ISAV f  Write airfoil to ISES coordinate file
   MSAV f  Write airfoil to MSES coordinate file
   REVE    Reverse written-airfoil node ordering

   LOAD f  Read buffer airfoil from coordinate file
   NACA i  Set NACA 4,5-digit airfoil and buffer airfoil
   INTE    Set buffer airfoil by interpolating two airfoils
   NORM    Buffer airfoil normalization toggle
   XYCM rr Change CM reference location, currently  0.25000 0.00000

   BEND    Display structural properties of current airfoil

   PCOP    Set current-airfoil panel nodes directly from buffer airfoil points
   PANE    Set current-airfoil panel nodes ( 160 ) based on curvature
  .PPAR    Show/change paneling

  .PLOP    Plotting options

   WDEF f  Write  current-settings file
   RDEF f  Reread current-settings file
   NAME s  Specify new airfoil name
   NINC    Increment name version number

   Z       Zoom    | (available in all menus)
   U       Unzoom  | 

 XFOIL   c>  
 Labeled airfoil file.  Name:  GOE 482 AIRFOIL                                 

 Number of input coordinate points:  33
 Counterclockwise ordering
 Max thickness =     0.165540  at x =   0.295
 Max camber    =     0.085414  at x =   0.400

  LE  x,y  =  -0.00057   0.00435  |   Chord =   1.00058
  TE  x,y  =   1.00000   0.00000  |

 Current airfoil nodes set from buffer airfoil nodes (  33 )

 WARNING: Poor input coordinate distribution
          Excessive panel angle   61.2  at i =  17
          Repaneling with PANE and/or PPAR suggested
           (doing GDES,CADD before repaneling _may_
            improve excessively coarse LE spacing

 XFOIL   c>  
 XFOIL   c>  
 Sharp trailing edge

 Paneling parameters used...
   Number of panel nodes       160
   Panel bunching parameter    1.000
   TE/LE panel density ratio   0.150
   Refined-area/LE panel density ratio    0.200
   Top    side refined area x/c limits  1.000 1.000
   Bottom side refined area x/c limits  1.000 1.000

 XFOIL   c>  
.OPERi   c>  
 Xtr/c     =  1.0000    top    side
 Xtr/c     =  1.0000    bottom side
 Ncrit     =    9.00   ( 0.070 % turb. level )
 Vacc      =  0.0100

 Klag  =  5.6000     Uxwt  =    1.00
 A     =  6.7000     B     =  0.7500       KCt = 0.01485
 CtiniK=  1.8000     CtiniX=  3.3000

..VPAR   c>  
..VPAR   c>  
.OPERi   c>  
 M  =    0.0000
 Re =    300000

.OPERv   c>  
.OPERv   c>  
.OPERv   c>  
 Polar  1 newly created for accumulation
 Airfoil archived with polar: GOE 482 AIRFOIL                                 

Enter  polar save filename  OR  <return> for no file   s>  
 New polar save file available

Enter  polar dump filename  OR  <return> for no file   s>  
 Polar dump file will NOT be written

 Polar accumulation enabled

.OPERva   c>   Calculating unit vorticity distributions ...
 Calculating wake trajectory ...
 Calculating source influence matrix ...

 Solving BL system ...

 Initializing BL ...
    side            1  ...
 MRCHUE: Inverse mode at  43     Hk =   3.986
 MRCHUE: Inverse mode at  44     Hk =   4.762
 MRCHUE: Inverse mode at  45     Hk =   5.525
 MRCHUE: Inverse mode at  46     Hk =   6.278
 MRCHUE: Inverse mode at  47     Hk =   7.022
 MRCHUE: Inverse mode at  48     Hk =   7.754
 MRCHUE: Inverse mode at  49     Hk =   8.473
 MRCHUE: Inverse mode at  50     Hk =   9.178
 MRCHUE: Inverse mode at  51     Hk =   8.333
 MRCHUE: Inverse mode at  52     Hk =   5.630
 MRCHUE: Inverse mode at  53     Hk =   4.058
 MRCHUE: Inverse mode at  54     Hk =   2.947
    side            2  ...
 MRCHUE: Inverse mode at  25     Hk =   3.802
 MRCHUE: Inverse mode at  26     Hk =   4.588
 MRCHUE: Convergence failed at  27  side 2    Res =  0.9592E+02
 MRCHUE: Inverse mode at  28     Hk =   5.511
 MRCHUE: Convergence failed at  29  side 2    Res =  0.4369E+01
 MRCHUE: Inverse mode at  30     Hk =   6.606
 MRCHUE: Inverse mode at  31     Hk =   7.738
 MRCHUE: Inverse mode at  32     Hk =   8.135
 MRCHUE: Inverse mode at  33     Hk =   2.538

 MRCHDU: Convergence failed at  29  side 2    Res =  0.1849E+01
 MRCHDU: Convergence failed at  30  side 2    Res =  0.4015E+01
 MRCHDU: Convergence failed at  31  side 2    Res =  0.7977E+01
 MRCHDU: Convergence failed at  32  side 2    Res =  0.9040E+01
 MRCHDU: Convergence failed at  33  side 2    Res =  0.7152E+01
 MRCHDU: Convergence failed at  34  side 2    Res =  0.1103E+02
 MRCHDU: Convergence failed at  35  side 2    Res =  0.1666E+02
 MRCHDU: Convergence failed at  36  side 2    Res =  0.4068E+02
 MRCHDU: Convergence failed at  37  side 2    Res =  0.4579E+04
 MRCHDU: Convergence failed at  38  side 2    Res =  0.1654E+02
 MRCHDU: Convergence failed at  39  side 2    Res =  0.2448E+02
 MRCHDU: Convergence failed at  40  side 2    Res =  0.2122E+02
 MRCHDU: Convergence failed at  41  side 2    Res =  0.2000E+02
 MRCHDU: Convergence failed at  42  side 2    Res =  0.2214E+02
 MRCHDU: Convergence failed at  43  side 2    Res =  0.2382E+02
 MRCHDU: Convergence failed at  44  side 2    Res =  0.2750E+02
 MRCHDU: Convergence failed at  45  side 2    Res =  0.3946E+02
 MRCHDU: Convergence failed at  46  side 2    Res =  0.3890E+02
 MRCHDU: Convergence failed at  47  side 2    Res =  0.4436E+02
 MRCHDU: Convergence failed at  48  side 2    Res =  0.1239E+03
 MRCHDU: Convergence failed at  49  side 2    Res =  0.8664E+03
 MRCHDU: Convergence failed at  50  side 2    Res =  0.8493E+02
 MRCHDU: Convergence failed at  51  side 2    Res =  0.2655E+03
 MRCHDU: Convergence failed at  52  side 2    Res =  0.2694E+04
 MRCHDU: Convergence failed at  53  side 2    Res =  0.4854E+04
 MRCHDU: Convergence failed at  54  side 2    Res =  0.6063E+04
 MRCHDU: Convergence failed at  55  side 2    Res =  0.1718E+04
 MRCHDU: Convergence failed at  56  side 2    Res =  0.3269E+03
 MRCHDU: Convergence failed at  57  side 2    Res =  0.1439E+03
 MRCHDU: Convergence failed at  58  side 2    Res =  0.9078E+02
 MRCHDU: Convergence failed at  59  side 2    Res =  0.2353E+02
 MRCHDU: Convergence failed at  60  side 2    Res =  0.2216E+02
 MRCHDU: Convergence failed at  61  side 2    Res =  0.2105E+02
 MRCHDU: Convergence failed at  62  side 2    Res =  0.3389E+02
 MRCHDU: Convergence failed at  63  side 2    Res =  0.2026E+02
 MRCHDU: Convergence failed at  64  side 2    Res =  0.3139E+02
 MRCHDU: Convergence failed at  65  side 2    Res =  0.3217E+02
 MRCHDU: Convergence failed at  66  side 2    Res =  0.3294E+02
 MRCHDU: Convergence failed at  67  side 2    Res =  0.3430E+02
 MRCHDU: Convergence failed at  68  side 2    Res =  0.3604E+02
 MRCHDU: Convergence failed at  69  side 2    Res =  0.3797E+02
 MRCHDU: Convergence failed at  70  side 2    Res =  0.4014E+02
 MRCHDU: Convergence failed at  71  side 2    Res =  0.4218E+02
 MRCHDU: Convergence failed at  72  side 2    Res =  0.4423E+02
 MRCHDU: Convergence failed at  73  side 2    Res =  0.4558E+02
 MRCHDU: Convergence failed at  74  side 2    Res =  0.4674E+02
 MRCHDU: Convergence failed at  75  side 2    Res =  0.4692E+02
 MRCHDU: Convergence failed at  76  side 2    Res =  0.4633E+02
 MRCHDU: Convergence failed at  77  side 2    Res =  0.1414E+03
 MRCHDU: Convergence failed at  78  side 2    Res =  0.2021E+03
 MRCHDU: Convergence failed at  79  side 2    Res =  0.1520E+03
 MRCHDU: Convergence failed at  80  side 2    Res =  0.2837E+03
 MRCHDU: Convergence failed at  81  side 2    Res =  0.8164E+03
 MRCHDU: Convergence failed at  82  side 2    Res =  0.3925E+05
 MRCHDU: Convergence failed at  83  side 2    Res =  0.1114E+05
 MRCHDU: Convergence failed at  84  side 2    Res =  0.6346E+03
 MRCHDU: Convergence failed at  85  side 2    Res =  0.7630E+02
 Side 1  free  transition at x/c =  0.5736   51
 Side 2  free  transition at x/c =  0.0975   33

   1   rms: 0.1081E+01   max: 0.3296E+01   T at   33  2   RLX: 0.454
       a = -4.000      CL = -0.1437
      Cm =  0.0236     CD =  0.01203   =>   CDf =  0.00530    CDp =  0.00673

 MRCHDU: Convergence failed at  53  side 1    Res =  0.6808E+02
 MRCHDU: Convergence failed at  54  side 1    Res =  0.5502E+01
 MRCHDU: Convergence failed at  33  side 2    Res =  0.1228E+02
 MRCHDU: Convergence failed at  34  side 2    Res =  0.3146E+01
 MRCHDU: Convergence failed at  49  side 2    Res =  0.3738E-01
 Side 1  free  transition at x/c =  0.5946   52
 Side 2  free  transition at x/c =  0.0806   31

   2   rms: 0.5069E+00   max: 0.1991E+01   D at   36  2   RLX: 0.719
       a = -4.000      CL =  0.3904
      Cm = -0.1519     CD =  0.01503   =>   CDf =  0.01209    CDp =  0.00294

 MRCHDU: Convergence failed at  36  side 2    Res =  0.2245E+02
 MRCHDU: Convergence failed at  37  side 2    Res =  0.2448E+01
 MRCHDU: Convergence failed at  38  side 2    Res =  0.2255E+01
 MRCHDU: Convergence failed at  39  side 2    Res =  0.2177E+01
 MRCHDU: Convergence failed at  40  side 2    Res =  0.1885E+01
 MRCHDU: Convergence failed at  41  side 2    Res =  0.2229E+01
 MRCHDU: Convergence failed at  42  side 2    Res =  0.2500E+01
 MRCHDU: Convergence failed at  43  side 2    Res =  0.2690E+01
 MRCHDU: Convergence failed at  44  side 2    Res =  0.2824E+01
 MRCHDU: Convergence failed at  45  side 2    Res =  0.3795E+01
 MRCHDU: Convergence failed at  46  side 2    Res =  0.4604E+01
 MRCHDU: Convergence failed at  47  side 2    Res =  0.5416E+01
 MRCHDU: Convergence failed at  48  side 2    Res =  0.7412E+01
 MRCHDU: Convergence failed at  49  side 2    Res =  0.2549E+02
 MRCHDU: Convergence failed at  50  side 2    Res =  0.1158E+02
 MRCHDU: Convergence failed at  51  side 2    Res =  0.1851E+02
 MRCHDU: Convergence failed at  52  side 2    Res =  0.2220E+02
 MRCHDU: Convergence failed at  53  side 2    Res =  0.2375E+02
 MRCHDU: Convergence failed at  54  side 2    Res =  0.2545E+02
 MRCHDU: Convergence failed at  55  side 2    Res =  0.2834E+02
 MRCHDU: Convergence failed at  56  side 2    Res =  0.2181E+03
 MRCHDU: Convergence failed at  57  side 2    Res =  0.2416E+03
 MRCHDU: Convergence failed at  58  side 2    Res =  0.2927E+02
 MRCHDU: Convergence failed at  59  side 2    Res =  0.2344E+02
 MRCHDU: Convergence failed at  60  side 2    Res =  0.1676E+02
 MRCHDU: Convergence failed at  61  side 2    Res =  0.1136E+02
 MRCHDU: Convergence failed at  62  side 2    Res =  0.1094E+02
 MRCHDU: Convergence failed at  63  side 2    Res =  0.1068E+02
 MRCHDU: Convergence failed at  64  side 2    Res =  0.8925E+01
 MRCHDU: Convergence failed at  65  side 2    Res =  0.8079E+01
 MRCHDU: Convergence failed at  66  side 2    Res =  0.8023E+01
 MRCHDU: Convergence failed at  67  side 2    Res =  0.7938E+01
 MRCHDU: Convergence failed at  68  side 2    Res =  0.7854E+01
 MRCHDU: Convergence failed at  69  side 2    Res =  0.7724E+01
 MRCHDU: Convergence failed at  70  side 2    Res =  0.7767E+01
 MRCHDU: Convergence failed at  71  side 2    Res =  0.7780E+01
 MRCHDU: Convergence failed at  72  side 2    Res =  0.7763E+01
 MRCHDU: Convergence failed at  73  side 2    Res =  0.7708E+01
 MRCHDU: Convergence failed at  74  side 2    Res =  0.8005E+01
 MRCHDU: Convergence failed at  75  side 2    Res =  0.8239E+01
 MRCHDU: Convergence failed at  76  side 2    Res =  0.8687E+01
 MRCHDU: Convergence failed at  77  side 2    Res =  0.9132E+01
 MRCHDU: Convergence failed at  78  side 2    Res =  0.1124E+02
 MRCHDU: Convergence failed at  79  side 2    Res =  0.1245E+02
 MRCHDU: Convergence failed at  80  side 2    Res =  0.1626E+02
 MRCHDU: Convergence failed at  81  side 2    Res =  0.3435E+02
 MRCHDU: Convergence failed at  82  side 2    Res =  0.5340E+02
 MRCHDU: Convergence failed at  83  side 2    Res =  0.2808E+04
 MRCHDU: Convergence failed at  84  side 2    Res =  0.5866E+02
 MRCHDU: Convergence failed at  85  side 2    Res =  0.9816E+02
 Side 1  free  transition at x/c =  0.6167   54
 Side 2  free  transition at x/c =  0.0800   31

   3   rms: 0.4244E+00   max: 0.8497E+00   D at   89  2   RLX: 0.954
       a = -4.000      CL =  0.4842
      Cm = -0.1545     CD =  0.02454   =>   CDf =  0.00505    CDp =  0.01949

 Side 1  free  transition at x/c =  0.6254   54
 Side 2  free  transition at x/c =  0.0855   32
 idif Ue xi dudx           1  9.90419909E-02  3.29220295E-03   30.083805    
 Uenew xinew           2  1.14401979E-02  3.80277634E-04

   4   rms: 0.2443E+00   max: 0.9842E+00   T at   32  2
       a = -4.000      CL =  0.5364
      Cm = -0.1971     CD =  0.01923   =>   CDf =  0.00827    CDp =  0.01095

 Side 1  free  transition at x/c =  0.6246   53
 Side 2  free  transition at x/c =  0.0788   32

   5   rms: 0.4526E-01   max: 0.3648E+00   D at   33  2
       a = -4.000      CL =  0.5274
      Cm = -0.1926     CD =  0.02153   =>   CDf =  0.00656    CDp =  0.01497

 Side 1  free  transition at x/c =  0.6244   53
 Side 2  free  transition at x/c =  0.0794   32

   6   rms: 0.7229E-02   max: 0.5878E-01   T at   32  2
       a = -4.000      CL =  0.5282
      Cm = -0.1933     CD =  0.02084   =>   CDf =  0.00674    CDp =  0.01410

 Side 1  free  transition at x/c =  0.6245   53
 Side 2  free  transition at x/c =  0.0791   32

   7   rms: 0.3554E-03   max: 0.3675E-02   D at   32  2
       a = -4.000      CL =  0.5282
      Cm = -0.1933     CD =  0.02087   =>   CDf =  0.00667    CDp =  0.01420

 Side 1  free  transition at x/c =  0.6245   53
 Side 2  free  transition at x/c =  0.0791   32

   8   rms: 0.7553E-05   max: 0.2493E-04   D at   43  2
       a = -4.000      CL =  0.5282
      Cm = -0.1933     CD =  0.02087   =>   CDf =  0.00667    CDp =  0.01420
 plradd ia,ip,cpol            1           0  1.97725855E-02

 Point added to stored polar  1
 Point written to save file  goe482_Re300k.base.pol                          
 Dump file unspecified or not available
 Calculating wake trajectory ...
 Calculating source influence matrix ...

 Solving BL system ...

 Side 1  free  transition at x/c =  0.6245   53
 Side 2  free  transition at x/c =  0.0791   32

   1   rms: 0.1263E+00   max: -.3198E+00   D at   40  2
       a = -3.500      CL =  0.5851
      Cm = -0.1953     CD =  0.01785   =>   CDf =  0.00664    CDp =  0.01121

 Side 1  free  transition at x/c =  0.6098   53
 Side 2  free  transition at x/c =  0.0788   31

   2   rms: 0.1981E-01   max: 0.2253E+00   D at   31  2
       a = -3.500      CL =  0.5862
      Cm = -0.1947     CD =  0.01881   =>   CDf =  0.00731    CDp =  0.01150

 Side 1  free  transition at x/c =  0.6115   53
 Side 2  free  transition at x/c =  0.0789   31

   3   rms: 0.4522E-02   max: 0.1855E-01   D at   35  2
       a = -3.500      CL =  0.5863
      Cm = -0.1948     CD =  0.01878   =>   CDf =  0.00723    CDp =  0.01155

 Side 1  free  transition at x/c =  0.6112   53
 Side 2  free  transition at x/c =  0.0789   31

   4   rms: 0.3030E-04   max: 0.2264E-03   D at   33  2
       a = -3.500      CL =  0.5863
      Cm = -0.1948     CD =  0.01878   =>   CDf =  0.00721    CDp =  0.01157
 plradd ia,ip,cpol            2           0  2.30521876E-02

 Point added to stored polar  1
 Point written to save file  goe482_Re300k.base.pol                          
 Dump file unspecified or not available
 Calculating wake trajectory ...
 Calculating source influence matrix ...

 Solving BL system ...

 Side 1  free  transition at x/c =  0.6112   53
 Side 2  free  transition at x/c =  0.0789   31

   1   rms: 0.9623E-01   max: -.2377E+00   D at   36  2
       a = -3.000      CL =  0.6423
      Cm = -0.1955     CD =  0.01732   =>   CDf =  0.00716    CDp =  0.01016

 Side 1  free  transition at x/c =  0.5957   53
 Side 2  free  transition at x/c =  0.0795   30

   2   rms: 0.1590E-01   max: -.2169E+00   D at   54  1
       a = -3.000      CL =  0.6439
      Cm = -0.1956     CD =  0.01752   =>   CDf =  0.00767    CDp =  0.00985

 Side 1  free  transition at x/c =  0.5989   54
 Side 2  free  transition at x/c =  0.0794   30

   3   rms: 0.3617E-02   max: -.6246E-01   D at   53  1
       a = -3.000      CL =  0.6433
      Cm = -0.1954     CD =  0.01746   =>   CDf =  0.00765    CDp =  0.00982

 Side 1  free  transition at x/c =  0.5984   54
 Side 2  free  transition at x/c =  0.0794   30

   4   rms: 0.3906E-03   max: 0.4717E-02   D at   54  1
       a = -3.000      CL =  0.6433
      Cm = -0.1954     CD =  0.01746   =>   CDf =  0.00762    CDp =  0.00985

 Side 1  free  transition at x/c =  0.5983   54
 Side 2  free  transition at x/c =  0.0794   30

   5   rms: 0.2927E-05   max: -.2068E-04   D at   55  1
       a = -3.000      CL =  0.6433
      Cm = -0.1954     CD =  0.01746   =>   CDf =  0.00762    CDp =  0.00984
 plradd ia,ip,cpol            3           0  2.30521876E-02

 Point added to stored polar  1
 Point written to save file  goe482_Re300k.base.pol                          
 Dump file unspecified or not available
 Calculating wake trajectory ...
 Calculating source influence matrix ...

 Solving BL system ...

 Side 1  free  transition at x/c =  0.5983   54
 Side 2  free  transition at x/c =  0.0794   30

   1   rms: 0.9589E-01   max: -.2403E+00   D at   34  2
       a = -2.500      CL =  0.7015
      Cm = -0.1962     CD =  0.01647   =>   CDf =  0.00756    CDp =  0.00891

 Side 1  free  transition at x/c =  0.5882   54
 Side 2  free  transition at x/c =  0.0803   29

   2   rms: 0.1342E-01   max: -.1387E+00   D at   54  1
       a = -2.500      CL =  0.6992
      Cm = -0.1956     CD =  0.01659   =>   CDf =  0.00792    CDp =  0.00868

 Side 1  free  transition at x/c =  0.5862   54
 Side 2  free  transition at x/c =  0.0802   29

   3   rms: 0.7247E-03   max: 0.6865E-02   D at    4  1
       a = -2.500      CL =  0.6994
      Cm = -0.1957     CD =  0.01661   =>   CDf =  0.00789    CDp =  0.00871

 Side 1  free  transition at x/c =  0.5863   54
 Side 2  free  transition at x/c =  0.0802   29

   4   rms: 0.5456E-05   max: -.2951E-04   D at   77  1
       a = -2.500      CL =  0.6994
      Cm = -0.1957     CD =  0.01661   =>   CDf =  0.00789    CDp =  0.00872
 plradd ia,ip,cpol            4           0  0.24863754    

 Point added to stored polar  1
 Point written to save file  goe482_Re300k.base.pol                          
 Dump file unspecified or not available
 Calculating wake trajectory ...
 Calculating source influence matrix ...

 Solving BL system ...

 Side 1  free  transition at x/c =  0.5863   54
 Side 2  free  transition at x/c =  0.0802   29

   1   rms: 0.8587E-01   max: -.1998E+00   D at   32  2
       a = -2.000      CL =  0.7556
      Cm = -0.1958     CD =  0.01596   =>   CDf =  0.00789    CDp =  0.00807

 Side 1  free  transition at x/c =  0.5760   53
 Side 2  free  transition at x/c =  0.0817   30

   2   rms: 0.1068E-01   max: 0.1026E+00   D at   30  2
       a = -2.000      CL =  0.7558
      Cm = -0.1960     CD =  0.01581   =>   CDf =  0.00817    CDp =  0.00764

 Side 1  free  transition at x/c =  0.5758   53
 Side 2  free  transition at x/c =  0.0816   30

   3   rms: 0.5941E-03   max: 0.4734E-02   D at   30  2
       a = -2.000      CL =  0.7558
      Cm = -0.1960     CD =  0.01581   =>   CDf =  0.00814    CDp =  0.00767

 Side 1  free  transition at x/c =  0.5757   53
 Side 2  free  transition at x/c =  0.0816   30

   4   rms: 0.5229E-05   max: 0.2136E-04   D at   50  2
       a = -2.000      CL =  0.7558
      Cm = -0.1960     CD =  0.01581   =>   CDf =  0.00814    CDp =  0.00767
 plradd ia,ip,cpol            5           0  0.24863754    

 Point added to stored polar  1
 Point written to save file  goe482_Re300k.base.pol                          
 Dump file unspecified or not available
 Calculating wake trajectory ...
 Calculating source influence matrix ...

 Solving BL system ...

 Side 1  free  transition at x/c =  0.5757   53
 Side 2  free  transition at x/c =  0.0816   30

   1   rms: 0.1118E+00   max: -.3274E+00   T at   30  2
       a = -1.500      CL =  0.8105
      Cm = -0.1962     CD =  0.01465   =>   CDf =  0.00806    CDp =  0.00659

 Side 1  free  transition at x/c =  0.5642   54
 Side 2  free  transition at x/c =  0.0861   29

   2   rms: 0.2196E-01   max: 0.2413E+00   D at   29  2
       a = -1.500      CL =  0.8111
      Cm = -0.1961     CD =  0.01523   =>   CDf =  0.00823    CDp =  0.00701

 Side 1  free  transition at x/c =  0.5655   54
 Side 2  free  transition at x/c =  0.0854   29

   3   rms: 0.8195E-03   max: 0.5133E-02   D at   30  2
       a = -1.500      CL =  0.8112
      Cm = -0.1961     CD =  0.01523   =>   CDf =  0.00818    CDp =  0.00705

 Side 1  free  transition at x/c =  0.5654   54
 Side 2  free  transition at x/c =  0.0853   29

   4   rms: 0.2247E-05   max: -.2584E-04   D at   55  1
       a = -1.500      CL =  0.8112
      Cm = -0.1961     CD =  0.01523   =>   CDf =  0.00819    CDp =  0.00704
 plradd ia,ip,cpol            6           0  0.24863754    

 Point added to stored polar  1
 Point written to save file  goe482_Re300k.base.pol                          
 Dump file unspecified or not available
 Calculating wake trajectory ...
 Calculating source influence matrix ...

 Solving BL system ...

 Side 1  free  transition at x/c =  0.5654   54
 Side 2  free  transition at x/c =  0.0853   29

   1   rms: 0.8422E-01   max: -.3248E+00   T at   29  2
       a = -1.000      CL =  0.8680
      Cm = -0.1964     CD =  0.01502   =>   CDf =  0.00810    CDp =  0.00693

 Side 1  free  transition at x/c =  0.5570   54
 Side 2  free  transition at x/c =  0.0888   28

   2   rms: 0.2487E-01   max: -.1822E+00   D at   28  2
       a = -1.000      CL =  0.8665
      Cm = -0.1961     CD =  0.01501   =>   CDf =  0.00829    CDp =  0.00672

 Side 1  free  transition at x/c =  0.5559   54
 Side 2  free  transition at x/c =  0.0890   28

   3   rms: 0.1114E-02   max: 0.8712E-02   D at   29  2
       a = -1.000      CL =  0.8667
      Cm = -0.1962     CD =  0.01501   =>   CDf =  0.00825    CDp =  0.00676

 Side 1  free  transition at x/c =  0.5558   54
 Side 2  free  transition at x/c =  0.0889   28

   4   rms: 0.3508E-05   max: 0.2994E-04   D at   28  2
       a = -1.000      CL =  0.8667
      Cm = -0.1962     CD =  0.01501   =>   CDf =  0.00825    CDp =  0.00676
 plradd ia,ip,cpol            7           0  0.23418105    

 Point added to stored polar  1
 Point written to save file  goe482_Re300k.base.pol                          
 Dump file unspecified or not available
 Calculating wake trajectory ...
 Calculating source influence matrix ...

 Solving BL system ...

 Side 1  free  transition at x/c =  0.5558   54
 Side 2  free  transition at x/c =  0.0889   28

   1   rms: 0.8324E-01   max: -.2518E+00   T at   28  2
       a = -0.500      CL =  0.9213
      Cm = -0.1961     CD =  0.01478   =>   CDf =  0.00815    CDp =  0.00664

 Side 1  free  transition at x/c =  0.5456   55
 Side 2  free  transition at x/c =  0.0929   28

   2   rms: 0.2007E-01   max: -.1307E+00   D at   27  2
       a = -0.500      CL =  0.9225
      Cm = -0.1962     CD =  0.01488   =>   CDf =  0.00843    CDp =  0.00645

 Side 1  free  transition at x/c =  0.5467   55
 Side 2  free  transition at x/c =  0.0931   28

   3   rms: 0.6952E-03   max: 0.6163E-02   D at    4  1
       a = -0.500      CL =  0.9227
      Cm = -0.1963     CD =  0.01489   =>   CDf =  0.00838    CDp =  0.00652

 Side 1  free  transition at x/c =  0.5466   55
 Side 2  free  transition at x/c =  0.0931   28

   4   rms: 0.3446E-05   max: 0.1237E-04   D at   51  2
       a = -0.500      CL =  0.9226
      Cm = -0.1963     CD =  0.01489   =>   CDf =  0.00838    CDp =  0.00651
 plradd ia,ip,cpol            8           0  0.23418105    

 Point added to stored polar  1
 Point written to save file  goe482_Re300k.base.pol                          
 Dump file unspecified or not available
 Calculating wake trajectory ...
 Calculating source influence matrix ...

 Solving BL system ...

 Side 1  free  transition at x/c =  0.5466   55
 Side 2  free  transition at x/c =  0.0931   28

   1   rms: 0.1177E+00   max: -.4013E+00   T at   28  2
       a =  0.000      CL =  0.9818
      Cm = -0.1973     CD =  0.01451   =>   CDf =  0.00827    CDp =  0.00624

 Side 1  free  transition at x/c =  0.5395   55
 Side 2  free  transition at x/c =  0.1070   28

   2   rms: 0.2063E-01   max: 0.1800E+00   D at   26  2
       a =  0.000      CL =  0.9772
      Cm = -0.1962     CD =  0.01489   =>   CDf =  0.00836    CDp =  0.00652

 Side 1  free  transition at x/c =  0.5379   55
 Side 2  free  transition at x/c =  0.1024   27

   3   rms: 0.1859E-01   max: -.2001E+00   D at   27  2
       a =  0.000      CL =  0.9779
      Cm = -0.1964     CD =  0.01479   =>   CDf =  0.00834    CDp =  0.00646

 Side 1  free  transition at x/c =  0.5379   55
 Side 2  free  transition at x/c =  0.1030   27

   4   rms: 0.7454E-03   max: 0.1042E-01   D at   27  2
       a =  0.000      CL =  0.9779
      Cm = -0.1964     CD =  0.01480   =>   CDf =  0.00834    CDp =  0.00646

 Side 1  free  transition at x/c =  0.5379   55
 Side 2  free  transition at x/c =  0.1029   27

   5   rms: 0.1855E-05   max: -.3013E-04   D at   28  2
       a =  0.000      CL =  0.9779
      Cm = -0.1964     CD =  0.01480   =>   CDf =  0.00834    CDp =  0.00646
 plradd ia,ip,cpol            9           0  0.23418105    

 Point added to stored polar  1
 Point written to save file  goe482_Re300k.base.pol                          
 Dump file unspecified or not available
 Calculating wake trajectory ...
 Calculating source influence matrix ...

 Solving BL system ...

 Side 1  free  transition at x/c =  0.5379   55
 Side 2  free  transition at x/c =  0.1029   27

   1   rms: 0.8303E-01   max: -.4377E+00   T at   27  2
       a =  0.500      CL =  1.0321
      Cm = -0.1963     CD =  0.01482   =>   CDf =  0.00834    CDp =  0.00648

 Side 1  free  transition at x/c =  0.5281   55
 Side 2  free  transition at x/c =  0.1174   28

   2   rms: 0.3484E-01   max: -.3641E+00   D at   28  2
       a =  0.500      CL =  1.0335
      Cm = -0.1965     CD =  0.01481   =>   CDf =  0.00844    CDp =  0.00637

 Side 1  free  transition at x/c =  0.5293   55
 Side 2  free  transition at x/c =  0.1306   29

   3   rms: 0.6645E-02   max: 0.1274E+00   D at   29  2
       a =  0.500      CL =  1.0338
      Cm = -0.1966     CD =  0.01479   =>   CDf =  0.00832    CDp =  0.00647

 Side 1  free  transition at x/c =  0.5292   55
 Side 2  free  transition at x/c =  0.1308   29

   4   rms: 0.8749E-03   max: 0.1708E-01   C at   29  2
       a =  0.500      CL =  1.0338
      Cm = -0.1966     CD =  0.01479   =>   CDf =  0.00832    CDp =  0.00647

 Side 1  free  transition at x/c =  0.5292   55
 Side 2  free  transition at x/c =  0.1304   29

   5   rms: 0.3800E-05   max: -.5610E-04   D at   30  2
       a =  0.500      CL =  1.0338
      Cm = -0.1966     CD =  0.01479   =>   CDf =  0.00832    CDp =  0.00647
 plradd ia,ip,cpol           10           0  0.23418105    

 Point added to stored polar  1
 Point written to save file  goe482_Re300k.base.pol                          
 Dump file unspecified or not available
 Calculating wake trajectory ...
 Calculating source influence matrix ...

 Solving BL system ...

 Side 1  free  transition at x/c =  0.5292   55
 Side 2  free  transition at x/c =  0.1304   29

   1   rms: 0.1443E+00   max: -.1883E+01   C at   29  2   RLX: 0.265
       a =  1.000      CL =  1.0493
      Cm = -0.1968     CD =  0.01482   =>   CDf =  0.00817    CDp =  0.00665

 Side 1  free  transition at x/c =  0.5271   56
 Side 2  free  transition at x/c =  0.1631   30

   2   rms: 0.2740E+00   max: -.5326E+01   C at   30  2   RLX: 0.094
       a =  1.000      CL =  1.0535
      Cm = -0.1970     CD =  0.01477   =>   CDf =  0.00828    CDp =  0.00649

 Side 1  free  transition at x/c =  0.5265   55
 Side 2  free  transition at x/c =  0.1770   31

   3   rms: 0.2068E+00   max: -.3497E+01   C at   31  2   RLX: 0.143
       a =  1.000      CL =  1.0590
      Cm = -0.1971     CD =  0.01471   =>   CDf =  0.00825    CDp =  0.00646

 Side 1  free  transition at x/c =  0.5257   55
 Side 2  free  transition at x/c =  0.1921   32

   4   rms: 0.1682E+00   max: -.2511E+01   C at   32  2   RLX: 0.199
       a =  1.000      CL =  1.0655
      Cm = -0.1971     CD =  0.01467   =>   CDf =  0.00821    CDp =  0.00646

 Side 1  free  transition at x/c =  0.5248   55
 Side 2  free  transition at x/c =  0.2084   33

   5   rms: 0.1234E+00   max: -.1727E+01   C at   33  2   RLX: 0.290
       a =  1.000      CL =  1.0728
      Cm = -0.1971     CD =  0.01465   =>   CDf =  0.00817    CDp =  0.00648

 Side 1  free  transition at x/c =  0.5236   55
 Side 2  free  transition at x/c =  0.2323   34

   6   rms: 0.1397E+00   max: -.2637E+01   C at   34  2   RLX: 0.190
       a =  1.000      CL =  1.0763
      Cm = -0.1972     CD =  0.01464   =>   CDf =  0.00807    CDp =  0.00657

 Side 1  free  transition at x/c =  0.5230   55
 Side 2  free  transition at x/c =  0.2428   34

   7   rms: 0.5709E-01   max: -.9727E+00   C at   34  2   RLX: 0.514
       a =  1.000      CL =  1.0830
      Cm = -0.1971     CD =  0.01465   =>   CDf =  0.00804    CDp =  0.00661

 Side 1  free  transition at x/c =  0.5218   55
 Side 2  free  transition at x/c =  0.3143   38

   8   rms: 0.1097E+00   max: -.2115E+01   C at   38  2   RLX: 0.236
       a =  1.000      CL =  1.0826
      Cm = -0.1969     CD =  0.01456   =>   CDf =  0.00778    CDp =  0.00678

 Side 1  free  transition at x/c =  0.5215   55
 Side 2  free  transition at x/c =  0.3219   39

   9   rms: 0.4476E-01   max: -.7536E+00   C at   39  2   RLX: 0.664
       a =  1.000      CL =  1.0870
      Cm = -0.1971     CD =  0.01457   =>   CDf =  0.00778    CDp =  0.00679

 Side 1  free  transition at x/c =  0.5210   55
 Side 2  free  transition at x/c =  0.3411   40

  10   rms: 0.7245E-02   max: 0.6700E-01   D at   39  2
       a =  1.000      CL =  1.0886
      Cm = -0.1970     CD =  0.01462   =>   CDf =  0.00774    CDp =  0.00688

 Side 1  free  transition at x/c =  0.5207   55
 Side 2  free  transition at x/c =  0.3510   40

  11   rms: 0.8174E-03   max: -.1299E-01   C at   40  2
       a =  1.000      CL =  1.0886
      Cm = -0.1970     CD =  0.01462   =>   CDf =  0.00775    CDp =  0.00687

 Side 1  free  transition at x/c =  0.5207   55
 Side 2  free  transition at x/c =  0.3508   40

  12   rms: 0.2343E-05   max: -.5474E-04   D at   41  2
       a =  1.000      CL =  1.0886
      Cm = -0.1970     CD =  0.01462   =>   CDf =  0.00774    CDp =  0.00688
 plradd ia,ip,cpol           11           0  0.22005117    

 Point added to stored polar  1
 Point written to save file  goe482_Re300k.base.pol                          
 Dump file unspecified or not available
 Calculating wake trajectory ...
 Calculating source influence matrix ...

 Solving BL system ...

 Side 1  free  transition at x/c =  0.5207   55
 Side 2  free  transition at x/c =  0.3508   40

   1   rms: 0.9861E-01   max: -.5136E+00   T at   40  2   RLX: 0.974
       a =  1.500      CL =  1.1394
      Cm = -0.1964     CD =  0.01500   =>   CDf =  0.00759    CDp =  0.00741

 MRCHDU: Convergence failed at  42  side 2    Res =  0.3058E+01
 MRCHDU: Convergence failed at  43  side 2    Res =  0.2003E+01
 MRCHDU: Convergence failed at  44  side 2    Res =  0.1658E+01
 MRCHDU: Convergence failed at  45  side 2    Res =  0.2249E+01
 MRCHDU: Convergence failed at  46  side 2    Res =  0.2590E+01
 MRCHDU: Convergence failed at  47  side 2    Res =  0.2629E+01
 MRCHDU: Convergence failed at  48  side 2    Res =  0.2612E+01
 MRCHDU: Convergence failed at  49  side 2    Res =  0.2630E+01
 MRCHDU: Convergence failed at  50  side 2    Res =  0.2637E+01
 MRCHDU: Convergence failed at  51  side 2    Res =  0.2637E+01
 MRCHDU: Convergence failed at  52  side 2    Res =  0.2618E+01
 MRCHDU: Convergence failed at  53  side 2    Res =  0.3058E+01
 MRCHDU: Convergence failed at  54  side 2    Res =  0.2899E+01
 MRCHDU: Convergence failed at  55  side 2    Res =  0.2769E+01
 MRCHDU: Convergence failed at  56  side 2    Res =  0.2654E+01
 MRCHDU: Convergence failed at  57  side 2    Res =  0.2548E+01
 MRCHDU: Convergence failed at  58  side 2    Res =  0.2451E+01
 MRCHDU: Convergence failed at  59  side 2    Res =  0.2362E+01
 MRCHDU: Convergence failed at  60  side 2    Res =  0.2285E+01
 MRCHDU: Convergence failed at  61  side 2    Res =  0.2220E+01
 MRCHDU: Convergence failed at  62  side 2    Res =  0.2164E+01
 MRCHDU: Convergence failed at  63  side 2    Res =  0.2115E+01
 MRCHDU: Convergence failed at  64  side 2    Res =  0.2068E+01
 MRCHDU: Convergence failed at  65  side 2    Res =  0.2021E+01
 MRCHDU: Convergence failed at  66  side 2    Res =  0.1966E+01
 MRCHDU: Convergence failed at  67  side 2    Res =  0.1909E+01
 MRCHDU: Convergence failed at  68  side 2    Res =  0.1842E+01
 MRCHDU: Convergence failed at  69  side 2    Res =  0.1754E+01
 MRCHDU: Convergence failed at  70  side 2    Res =  0.1637E+01
 MRCHDU: Convergence failed at  71  side 2    Res =  0.1480E+01
 MRCHDU: Convergence failed at  72  side 2    Res =  0.1284E+01
 Side 1  free  transition at x/c =  0.5121   56
 Side 2  free  transition at x/c =  0.5881   52

   2   rms: 0.1340E+00   max: 0.9882E+00   D at   39  2   RLX: 0.840
       a =  1.500      CL =  1.1338
      Cm = -0.1930     CD =  0.01415   =>   CDf =  0.00653    CDp =  0.00762

 Side 1  free  transition at x/c =  0.5125   56
 Side 2  free  transition at x/c =  0.5024   48

   3   rms: 0.7843E-01   max: 0.1027E+01   C at   48  2   RLX: 0.716
       a =  1.500      CL =  1.1388
      Cm = -0.1957     CD =  0.01477   =>   CDf =  0.00750    CDp =  0.00726

 Side 1  free  transition at x/c =  0.5126   56
 Side 2  free  transition at x/c =  0.4371   44

   4   rms: 0.2781E-01   max: -.3576E+00   D at   45  2
       a =  1.500      CL =  1.1419
      Cm = -0.1968     CD =  0.01485   =>   CDf =  0.00769    CDp =  0.00716

 Side 1  free  transition at x/c =  0.5126   56
 Side 2  free  transition at x/c =  0.4179   43

   5   rms: 0.6624E-02   max: -.6751E-01   C at   43  2
       a =  1.500      CL =  1.1419
      Cm = -0.1967     CD =  0.01490   =>   CDf =  0.00775    CDp =  0.00715

 Side 1  free  transition at x/c =  0.5126   56
 Side 2  free  transition at x/c =  0.4183   43

   6   rms: 0.2597E-03   max: -.3545E-02   D at   46  2
       a =  1.500      CL =  1.1419
      Cm = -0.1967     CD =  0.01490   =>   CDf =  0.00773    CDp =  0.00717

 Side 1  free  transition at x/c =  0.5126   56
 Side 2  free  transition at x/c =  0.4182   43

   7   rms: 0.1039E-05   max: -.8553E-05   D at   46  2
       a =  1.500      CL =  1.1419
      Cm = -0.1967     CD =  0.01490   =>   CDf =  0.00773    CDp =  0.00717
 plradd ia,ip,cpol           12           0  0.22005117    

 Point added to stored polar  1
 Point written to save file  goe482_Re300k.base.pol                          
 Dump file unspecified or not available
 Calculating wake trajectory ...
 Calculating source influence matrix ...

 Solving BL system ...

 Side 1  free  transition at x/c =  0.5126   56
 Side 2  free  transition at x/c =  0.4182   43

   1   rms: 0.8782E-01   max: -.4767E+00   T at   43  2
       a =  2.000      CL =  1.1974
      Cm = -0.1969     CD =  0.01534   =>   CDf =  0.00757    CDp =  0.00776

 Side 1  free  transition at x/c =  0.5056   56
 Side 2  free  transition at x/c =  0.4539   44

   2   rms: 0.2961E-01   max: -.3301E+00   D at   44  2
       a =  2.000      CL =  1.1941
      Cm = -0.1963     CD =  0.01522   =>   CDf =  0.00785    CDp =  0.00737

 Side 1  free  transition at x/c =  0.5046   56
 Side 2  free  transition at x/c =  0.4716   45

   3   rms: 0.1593E-01   max: 0.2792E+00   C at   45  2
       a =  2.000      CL =  1.1943
      Cm = -0.1964     CD =  0.01519   =>   CDf =  0.00761    CDp =  0.00758

 Side 1  free  transition at x/c =  0.5045   56
 Side 2  free  transition at x/c =  0.4673   45

   4   rms: 0.1962E-02   max: 0.2894E-01   C at   45  2
       a =  2.000      CL =  1.1943
      Cm = -0.1964     CD =  0.01519   =>   CDf =  0.00764    CDp =  0.00755

 Side 1  free  transition at x/c =  0.5045   56
 Side 2  free  transition at x/c =  0.4663   45

   5   rms: 0.2466E-04   max: -.5042E-03   D at   47  2
       a =  2.000      CL =  1.1943
      Cm = -0.1964     CD =  0.01519   =>   CDf =  0.00764    CDp =  0.00755
 plradd ia,ip,cpol           13           0  0.22005117    

 Point added to stored polar  1
 Point written to save file  goe482_Re300k.base.pol                          
 Dump file unspecified or not available
 Calculating wake trajectory ...
 Calculating source influence matrix ...

 Solving BL system ...

 Side 1  free  transition at x/c =  0.5045   56
 Side 2  free  transition at x/c =  0.4663   45

   1   rms: 0.9338E-01   max: -.8628E+00   C at   45  2   RLX: 0.580
       a =  2.500      CL =  1.2227
      Cm = -0.1958     CD =  0.01529   =>   CDf =  0.00765    CDp =  0.00764

 Side 1  free  transition at x/c =  0.4991   56
 Side 2  free  transition at x/c =  0.4936   46

   2   rms: 0.4451E-01   max: -.5055E+00   C at   46  2   RLX: 0.989
       a =  2.500      CL =  1.2446
      Cm = -0.1957     CD =  0.01541   =>   CDf =  0.00744    CDp =  0.00797

 Side 1  free  transition at x/c =  0.4959   57
 Side 2  free  transition at x/c =  0.5204   47

   3   rms: 0.2513E-01   max: -.4073E+00   C at   47  2
       a =  2.500      CL =  1.2448
      Cm = -0.1957     CD =  0.01538   =>   CDf =  0.00758    CDp =  0.00780

 Side 1  free  transition at x/c =  0.4960   57
 Side 2  free  transition at x/c =  0.5334   47

   4   rms: 0.6665E-02   max: -.1100E+00   C at   47  2
       a =  2.500      CL =  1.2450
      Cm = -0.1957     CD =  0.01540   =>   CDf =  0.00751    CDp =  0.00789

 Side 1  free  transition at x/c =  0.4960   57
 Side 2  free  transition at x/c =  0.5353   48

   5   rms: 0.4608E-02   max: -.7571E-01   C at   48  2
       a =  2.500      CL =  1.2449
      Cm = -0.1957     CD =  0.01540   =>   CDf =  0.00750    CDp =  0.00790

 Side 1  free  transition at x/c =  0.4960   57
 Side 2  free  transition at x/c =  0.5360   48

   6   rms: 0.2151E-03   max: 0.3497E-02   C at   48  2
       a =  2.500      CL =  1.2449
      Cm = -0.1957     CD =  0.01540   =>   CDf =  0.00748    CDp =  0.00792

 Side 1  free  transition at x/c =  0.4960   57
 Side 2  free  transition at x/c =  0.5359   48

   7   rms: 0.6105E-05   max: -.7548E-04   D at    4  1
       a =  2.500      CL =  1.2449
      Cm = -0.1957     CD =  0.01540   =>   CDf =  0.00748    CDp =  0.00791
 plradd ia,ip,cpol           14           0  0.22005117    

 Point added to stored polar  1
 Point written to save file  goe482_Re300k.base.pol                          
 Dump file unspecified or not available
 Calculating wake trajectory ...
 Calculating source influence matrix ...

 Solving BL system ...

 Side 1  free  transition at x/c =  0.4960   57
 Side 2  free  transition at x/c =  0.5359   48

   1   rms: 0.1104E+00   max: -.1317E+01   C at   48  2   RLX: 0.380
       a =  3.000      CL =  1.2647
      Cm = -0.1955     CD =  0.01549   =>   CDf =  0.00749    CDp =  0.00800

 Side 1  free  transition at x/c =  0.4932   57
 Side 2  free  transition at x/c =  0.5603   49

   2   rms: 0.6734E-01   max: -.6674E+00   C at   49  2   RLX: 0.749
       a =  3.000      CL =  1.2922
      Cm = -0.1960     CD =  0.01580   =>   CDf =  0.00752    CDp =  0.00828

 Side 1  free  transition at x/c =  0.4901   56
 Side 2  free  transition at x/c =  0.6081   52

   3   rms: 0.4398E-01   max: -.7100E+00   C at   52  2   RLX: 0.704
       a =  3.000      CL =  1.2947
      Cm = -0.1954     CD =  0.01567   =>   CDf =  0.00746    CDp =  0.00821

 Side 1  free  transition at x/c =  0.4889   56
 Side 2  free  transition at x/c =  0.6252   53

   4   rms: 0.2893E-01   max: -.4903E+00   C at   53  2
       a =  3.000      CL =  1.2957
      Cm = -0.1951     CD =  0.01564   =>   CDf =  0.00737    CDp =  0.00827

 Side 1  free  transition at x/c =  0.4883   56
 Side 2  free  transition at x/c =  0.6457   54

   5   rms: 0.8379E-02   max: -.1493E+00   C at   54  2
       a =  3.000      CL =  1.2958
      Cm = -0.1951     CD =  0.01565   =>   CDf =  0.00728    CDp =  0.00837

 Side 1  free  transition at x/c =  0.4883   56
 Side 2  free  transition at x/c =  0.6497   54

   6   rms: 0.9498E-04   max: -.1323E-02   D at   57  2
       a =  3.000      CL =  1.2958
      Cm = -0.1951     CD =  0.01565   =>   CDf =  0.00725    CDp =  0.00840
 plradd ia,ip,cpol           15           0  0.22005117    

 Point added to stored polar  1
 Point written to save file  goe482_Re300k.base.pol                          
 Dump file unspecified or not available
 Calculating wake trajectory ...
 Calculating source influence matrix ...

 Solving BL system ...

 Side 1  free  transition at x/c =  0.4883   56
 Side 2  free  transition at x/c =  0.6496   54

   1   rms: 0.1874E+00   max: -.3134E+01   C at   54  2   RLX: 0.160
       a =  3.500      CL =  1.3026
      Cm = -0.1947     CD =  0.01564   =>   CDf =  0.00726    CDp =  0.00839

 Side 1  free  transition at x/c =  0.4870   56
 Side 2  free  transition at x/c =  0.6732   55

   2   rms: 0.1899E+00   max: -.3280E+01   C at   55  2   RLX: 0.152
       a =  3.500      CL =  1.3086
      Cm = -0.1946     CD =  0.01565   =>   CDf =  0.00719    CDp =  0.00847

 Side 1  free  transition at x/c =  0.4859   56
 Side 2  free  transition at x/c =  0.6955   57

   3   rms: 0.2192E+00   max: -.3873E+01   C at   57  2   RLX: 0.129
       a =  3.500      CL =  1.3124
      Cm = -0.1944     CD =  0.01562   =>   CDf =  0.00692    CDp =  0.00870

 Side 1  free  transition at x/c =  0.4852   57
 Side 2  free  transition at x/c =  0.7172   57

   4   rms: 0.2541E+00   max: -.4477E+01   C at   57  2   RLX: 0.112
       a =  3.500      CL =  1.3151
      Cm = -0.1943     CD =  0.01560   =>   CDf =  0.00705    CDp =  0.00855

 Side 1  free  transition at x/c =  0.4846   57
 Side 2  free  transition at x/c =  0.7372   58

   5   rms: 0.2944E+00   max: -.5182E+01   C at   58  2   RLX: 0.096
       a =  3.500      CL =  1.3169
      Cm = -0.1941     CD =  0.01557   =>   CDf =  0.00699    CDp =  0.00858

 Side 1  free  transition at x/c =  0.4842   57
 Side 2  free  transition at x/c =  0.7565   59

   6   rms: 0.3697E+00   max: -.6386E+01   C at   59  2   RLX: 0.078
       a =  3.500      CL =  1.3183
      Cm = -0.1940     CD =  0.01554   =>   CDf =  0.00694    CDp =  0.00860

 Side 1  free  transition at x/c =  0.4839   57
 Side 2  free  transition at x/c =  0.7758   60

   7   rms: 0.4752E+00   max: -.7962E+01   C at   60  2   RLX: 0.063
       a =  3.500      CL =  1.3191
      Cm = -0.1938     CD =  0.01550   =>   CDf =  0.00690    CDp =  0.00860

 Side 1  free  transition at x/c =  0.4837   57
 Side 2  free  transition at x/c =  0.7961   61

   8   rms: 0.6529E+00   max: -.1046E+02   C at   61  2   RLX: 0.048
       a =  3.500      CL =  1.3194
      Cm = -0.1937     CD =  0.01546   =>   CDf =  0.00685    CDp =  0.00861

 Side 1  free  transition at x/c =  0.4836   57
 Side 2  free  transition at x/c =  0.8195   62

   9   rms: 0.1043E+01   max: -.1557E+02   C at   62  2   RLX: 0.032
       a =  3.500      CL =  1.3194
      Cm = -0.1935     CD =  0.01541   =>   CDf =  0.00681    CDp =  0.00861

 Side 1  free  transition at x/c =  0.4835   57
 Side 2  free  transition at x/c =  0.8805   66

  10   rms: 0.6309E+02   max: -.8320E+03   C at   66  2   RLX: 0.001
       a =  3.500      CL =  1.3201
      Cm = -0.1936     CD =  0.01532   =>   CDf =  0.00672    CDp =  0.00860

 Side 1  free  transition at x/c =  0.4835   57
 Side 2  free  transition at x/c =  0.8989   67

  11   rms: 0.8277E+02   max: -.1022E+04   C at   67  2   RLX: 0.000
       a =  3.500      CL =  1.3206
      Cm = -0.1938     CD =  0.01532   =>   CDf =  0.00671    CDp =  0.00861

 Side 1  free  transition at x/c =  0.4834   57
 Side 2  free  transition at x/c =  0.9156   68

  12   rms: 0.1026E+02   max: -.1243E+03   C at   68  2   RLX: 0.004
       a =  3.500      CL =  1.3206
      Cm = -0.1937     CD =  0.01531   =>   CDf =  0.00671    CDp =  0.00860

 Side 1  free  transition at x/c =  0.4834   57
 Side 2  free  transition at x/c =  0.9303   69

  13   rms: 0.1156E+02   max: -.1421E+03   C at   69  2   RLX: 0.004
       a =  3.500      CL =  1.3206
      Cm = -0.1937     CD =  0.01531   =>   CDf =  0.00671    CDp =  0.00860

 Side 1  free  transition at x/c =  0.4834   57
 Side 2  free  transition at x/c =  0.9440   70

  14   rms: 0.1271E+02   max: -.1638E+03   C at   70  2   RLX: 0.003
       a =  3.500      CL =  1.3207
      Cm = -0.1937     CD =  0.01531   =>   CDf =  0.00671    CDp =  0.00860

 Side 1  free  transition at x/c =  0.4834   57
 Side 2  free  transition at x/c =  0.9577   71

  15   rms: 0.1424E+02   max: -.1993E+03   C at   71  2   RLX: 0.003
       a =  3.500      CL =  1.3207
      Cm = -0.1937     CD =  0.01530   =>   CDf =  0.00671    CDp =  0.00860

 Side 1  free  transition at x/c =  0.4834   57
 Side 2  free  transition at x/c =  0.9710   72

  16   rms: 0.1766E+02   max: -.2806E+03   C at   72  2   RLX: 0.002
       a =  3.500      CL =  1.3208
      Cm = -0.1937     CD =  0.01530   =>   CDf =  0.00671    CDp =  0.00860

 Side 1  free  transition at x/c =  0.4834   57
 Side 2  free  transition at x/c =  0.9831   73

  17   rms: 0.5469E+02   max: -.1053E+04   C at   73  2   RLX: 0.000
       a =  3.500      CL =  1.3209
      Cm = -0.1938     CD =  0.01530   =>   CDf =  0.00670    CDp =  0.00860

 Side 1  free  transition at x/c =  0.4834   57
 Side 2  free  transition at x/c =  0.9922   73

  18   rms: 0.7519E+02   max: 0.1447E+04   C at   73  2   RLX: 0.001
       a =  3.500      CL =  1.3202
      Cm = -0.1936     CD =  0.01530   =>   CDf =  0.00670    CDp =  0.00860

 Side 1  free  transition at x/c =  0.4834   57
 Side 2  free  transition at x/c =  0.9655   71

  19   rms: 0.1519E+02   max: -.2114E+03   C at   71  2   RLX: 0.002
       a =  3.500      CL =  1.3202
      Cm = -0.1936     CD =  0.01530   =>   CDf =  0.00671    CDp =  0.00859

 Side 1  free  transition at x/c =  0.4834   57
 Side 2  free  transition at x/c =  0.9786   72

  20   rms: 0.2030E+02   max: -.3218E+03   C at   72  2   RLX: 0.002
       a =  3.500      CL =  1.3203
      Cm = -0.1936     CD =  0.01530   =>   CDf =  0.00670    CDp =  0.00859

 Side 1  free  transition at x/c =  0.4834   57
 Side 2  free  transition at x/c =  0.9903   73

  21   rms: 0.4982E+03   max: 0.9589E+04   C at   73  2   RLX: 0.000
       a =  3.500      CL =  1.3197
      Cm = -0.1935     CD =  0.01530   =>   CDf =  0.00670    CDp =  0.00859

 Side 1  free  transition at x/c =  0.4834   57
 Side 2  free  transition at x/c =  0.9621   71

  22   rms: 0.1496E+02   max: -.2088E+03   C at   71  2   RLX: 0.002
       a =  3.500      CL =  1.3197
      Cm = -0.1935     CD =  0.01530   =>   CDf =  0.00671    CDp =  0.00859

 Side 1  free  transition at x/c =  0.4834   57
 Side 2  free  transition at x/c =  0.9752   72

  23   rms: 0.2009E+02   max: -.3188E+03   C at   72  2   RLX: 0.002
       a =  3.500      CL =  1.3198
      Cm = -0.1935     CD =  0.01529   =>   CDf =  0.00670    CDp =  0.00859

 Side 1  free  transition at x/c =  0.4834   57
 Side 2  free  transition at x/c =  0.9866   73

  24   rms: 0.7824E+02   max: -.1506E+04   C at   73  2   RLX: 0.000
       a =  3.500      CL =  1.3200
      Cm = -0.1935     CD =  0.01529   =>   CDf =  0.00670    CDp =  0.00859

 Side 1  free  transition at x/c =  0.4834   57
 Side 2  free  transition at x/c =  0.9964   74

  25   rms: 0.2072E+01   max: 0.5618E+02   C at   74  2   RLX: 0.027
       a =  3.500      CL =  1.3177
      Cm = -0.1929     CD =  0.01529   =>   CDf =  0.00670    CDp =  0.00859

 Side 1  free  transition at x/c =  0.4834   57
 Side 2 forced transition at x/c =  1.0000   74

  26   rms: 0.5555E-01   max: -.4636E+00   n at   73  2
       a =  3.500      CL =  1.3401
      Cm = -0.1929     CD =  0.01548   =>   CDf =  0.00670    CDp =  0.00877

 Side 1  free  transition at x/c =  0.4801   57
 Side 2 forced transition at x/c =  1.0000   74

  27   rms: 0.4757E-02   max: 0.2061E-01   n at   58  2
       a =  3.500      CL =  1.3401
      Cm = -0.1929     CD =  0.01548   =>   CDf =  0.00680    CDp =  0.00868

 Side 1  free  transition at x/c =  0.4803   57
 Side 2 forced transition at x/c =  1.0000   74

  28   rms: 0.1530E-03   max: 0.7178E-03   D at   50  2
       a =  3.500      CL =  1.3401
      Cm = -0.1929     CD =  0.01548   =>   CDf =  0.00678    CDp =  0.00869

 Side 1  free  transition at x/c =  0.4803   57
 Side 2 forced transition at x/c =  1.0000   74

  29   rms: 0.8152E-06   max: 0.4659E-05   D at    4  2
       a =  3.500      CL =  1.3401
      Cm = -0.1929     CD =  0.01548   =>   CDf =  0.00678    CDp =  0.00869
 plradd ia,ip,cpol           16           0  0.20617835    

 Point added to stored polar  1
 Point written to save file  goe482_Re300k.base.pol                          
 Dump file unspecified or not available
 Calculating wake trajectory ...
 Calculating source influence matrix ...

 Solving BL system ...

 Side 1  free  transition at x/c =  0.4803   57
 Side 2 forced transition at x/c =  1.0000   74

   1   rms: 0.8553E-01   max: -.2349E+00   n at   62  2
       a =  4.000      CL =  1.3912
      Cm = -0.1925     CD =  0.01593   =>   CDf =  0.00662    CDp =  0.00931

 Side 1  free  transition at x/c =  0.4730   57
 Side 2 forced transition at x/c =  1.0000   73

   2   rms: 0.8907E-02   max: -.4403E-01   C at   57  1
       a =  4.000      CL =  1.3926
      Cm = -0.1927     CD =  0.01605   =>   CDf =  0.00701    CDp =  0.00904

 Side 1  free  transition at x/c =  0.4726   57
 Side 2 forced transition at x/c =  1.0000   73

   3   rms: 0.7841E-03   max: -.8506E-02   D at    4  1
       a =  4.000      CL =  1.3927
      Cm = -0.1928     CD =  0.01605   =>   CDf =  0.00697    CDp =  0.00908

 Side 1  free  transition at x/c =  0.4726   57
 Side 2 forced transition at x/c =  1.0000   73

   4   rms: 0.2865E-05   max: -.1746E-04   D at    7  1
       a =  4.000      CL =  1.3927
      Cm = -0.1928     CD =  0.01605   =>   CDf =  0.00697    CDp =  0.00908
 plradd ia,ip,cpol           17           0  0.20617835    

 Point added to stored polar  1
 Point written to save file  goe482_Re300k.base.pol                          
 Dump file unspecified or not available
 Calculating wake trajectory ...
 Calculating source influence matrix ...

 Solving BL system ...

 Side 1  free  transition at x/c =  0.4726   57
 Side 2 forced transition at x/c =  1.0000   73

   1   rms: 0.7325E-01   max: -.1446E+00   n at   60  2
       a =  4.500      CL =  1.4343
      Cm = -0.1906     CD =  0.01646   =>   CDf =  0.00698    CDp =  0.00948

 Side 1  free  transition at x/c =  0.4632   57
 Side 2 forced transition at x/c =  1.0000   73

   2   rms: 0.9070E-02   max: -.6885E-01   D at   57  1
       a =  4.500      CL =  1.4371
      Cm = -0.1911     CD =  0.01649   =>   CDf =  0.00701    CDp =  0.00948

 Side 1  free  transition at x/c =  0.4641   57
 Side 2 forced transition at x/c =  1.0000   73

   3   rms: 0.2682E-03   max: -.1776E-02   D at   59  1
       a =  4.500      CL =  1.4374
      Cm = -0.1911     CD =  0.01650   =>   CDf =  0.00697    CDp =  0.00952

 Side 1  free  transition at x/c =  0.4640   57
 Side 2 forced transition at x/c =  1.0000   73

   4   rms: 0.1279E-05   max: 0.1150E-04   D at    4  2
       a =  4.500      CL =  1.4374
      Cm = -0.1911     CD =  0.01650   =>   CDf =  0.00698    CDp =  0.00952
 plradd ia,ip,cpol           18           0  0.20617835    

 Point added to stored polar  1
 Point written to save file  goe482_Re300k.base.pol                          
 Dump file unspecified or not available
 Calculating wake trajectory ...
 Calculating source influence matrix ...

 Solving BL system ...

 Side 1  free  transition at x/c =  0.4640   57
 Side 2 forced transition at x/c =  1.0000   73

   1   rms: 0.7213E-01   max: -.1067E+00   n at   71  2
       a =  5.000      CL =  1.4842
      Cm = -0.1900     CD =  0.01696   =>   CDf =  0.00679    CDp =  0.01017

 Side 1  free  transition at x/c =  0.4566   57
 Side 2 forced transition at x/c =  1.0000   72

   2   rms: 0.9491E-02   max: -.4492E-01   D at    3  1
       a =  5.000      CL =  1.4885
      Cm = -0.1908     CD =  0.01709   =>   CDf =  0.00716    CDp =  0.00993

 Side 1  free  transition at x/c =  0.4564   57
 Side 2 forced transition at x/c =  1.0000   72

   3   rms: 0.3738E-03   max: 0.3252E-02   D at    4  2
       a =  5.000      CL =  1.4887
      Cm = -0.1908     CD =  0.01710   =>   CDf =  0.00715    CDp =  0.00995

 Side 1  free  transition at x/c =  0.4564   57
 Side 2 forced transition at x/c =  1.0000   72

   4   rms: 0.1482E-05   max: 0.5818E-05   C at   57  1
       a =  5.000      CL =  1.4887
      Cm = -0.1908     CD =  0.01710   =>   CDf =  0.00715    CDp =  0.00995
 plradd ia,ip,cpol           19           0  0.20617835    

 Point added to stored polar  1
 Point written to save file  goe482_Re300k.base.pol                          
 Dump file unspecified or not available
 Calculating wake trajectory ...
 Calculating source influence matrix ...

 Solving BL system ...

 Side 1  free  transition at x/c =  0.4564   57
 Side 2 forced transition at x/c =  1.0000   72

   1   rms: 0.6662E-01   max: 0.9197E-01   D at   76  2
       a =  5.500      CL =  1.5243
      Cm = -0.1877     CD =  0.01758   =>   CDf =  0.00695    CDp =  0.01062

 Side 1  free  transition at x/c =  0.4478   58
 Side 2 forced transition at x/c =  1.0000   71

   2   rms: 0.9444E-02   max: -.4124E-01   D at   79  2
       a =  5.500      CL =  1.5283
      Cm = -0.1884     CD =  0.01762   =>   CDf =  0.00709    CDp =  0.01053

 Side 1  free  transition at x/c =  0.4483   58
 Side 2 forced transition at x/c =  1.0000   71

   3   rms: 0.6794E-03   max: -.7545E-02   D at    4  1
       a =  5.500      CL =  1.5284
      Cm = -0.1885     CD =  0.01763   =>   CDf =  0.00707    CDp =  0.01055

 Side 1  free  transition at x/c =  0.4483   58
 Side 2 forced transition at x/c =  1.0000   71

   4   rms: 0.1126E-05   max: 0.7381E-05   D at    8  1
       a =  5.500      CL =  1.5284
      Cm = -0.1885     CD =  0.01763   =>   CDf =  0.00707    CDp =  0.01055
 plradd ia,ip,cpol           20           0  0.20617835    

 Point added to stored polar  1
 Point written to save file  goe482_Re300k.base.pol                          
 Dump file unspecified or not available
 Calculating wake trajectory ...
 Calculating source influence matrix ...

 Solving BL system ...

 Side 1  free  transition at x/c =  0.4483   58
 Side 2 forced transition at x/c =  1.0000   71

   1   rms: 0.6706E-01   max: 0.6696E-01   D at   77  2
       a =  6.000      CL =  1.5712
      Cm = -0.1867     CD =  0.01817   =>   CDf =  0.00708    CDp =  0.01109

 Side 1  free  transition at x/c =  0.4405   58
 Side 2 forced transition at x/c =  1.0000   71

   2   rms: 0.1452E-01   max: -.1021E+00   D at   58  1
       a =  6.000      CL =  1.5751
      Cm = -0.1874     CD =  0.01820   =>   CDf =  0.00722    CDp =  0.01099

 Side 1  free  transition at x/c =  0.4410   58
 Side 2 forced transition at x/c =  1.0000   71

   3   rms: 0.5799E-03   max: -.2492E-02   D at   78  2
       a =  6.000      CL =  1.5757
      Cm = -0.1875     CD =  0.01823   =>   CDf =  0.00719    CDp =  0.01103

 Side 1  free  transition at x/c =  0.4410   58
 Side 2 forced transition at x/c =  1.0000   71

   4   rms: 0.1423E-04   max: 0.6320E-04   D at   77  2
       a =  6.000      CL =  1.5757
      Cm = -0.1875     CD =  0.01823   =>   CDf =  0.00719    CDp =  0.01103
 plradd ia,ip,cpol           21           0  0.20617835    

 Point added to stored polar  1
 Point written to save file  goe482_Re300k.base.pol                          
 Dump file unspecified or not available
 Calculating wake trajectory ...
 Calculating source influence matrix ...

 Solving BL system ...

 Side 1  free  transition at x/c =  0.4410   58
 Side 2 forced transition at x/c =  1.0000   71

   1   rms: 0.7688E-01   max: 0.6038E-01   D at   87  2
       a =  6.500      CL =  1.6341
      Cm = -0.1887     CD =  0.01905   =>   CDf =  0.00697    CDp =  0.01208

 Side 1  free  transition at x/c =  0.4341   58
 Side 2 forced transition at x/c =  1.0000   70

   2   rms: 0.2223E-01   max: -.1488E+00   D at   58  1
       a =  6.500      CL =  1.6129
      Cm = -0.1849     CD =  0.01889   =>   CDf =  0.00717    CDp =  0.01172

 Side 1  free  transition at x/c =  0.4331   58
 Side 2 forced transition at x/c =  1.0000   70

   3   rms: 0.2395E-02   max: 0.1262E-01   D at   92  1
       a =  6.500      CL =  1.6107
      Cm = -0.1844     CD =  0.01888   =>   CDf =  0.00711    CDp =  0.01177

 Side 1  free  transition at x/c =  0.4332   58
 Side 2 forced transition at x/c =  1.0000   70

   4   rms: 0.3504E-04   max: 0.2652E-03   D at   77  2
       a =  6.500      CL =  1.6107
      Cm = -0.1844     CD =  0.01888   =>   CDf =  0.00711    CDp =  0.01177
 plradd ia,ip,cpol           22           0  0.19247285    

 Point added to stored polar  1
 Point written to save file  goe482_Re300k.base.pol                          
 Dump file unspecified or not available
 Calculating wake trajectory ...
 Calculating source influence matrix ...

 Solving BL system ...

 Side 1  free  transition at x/c =  0.4332   58
 Side 2 forced transition at x/c =  1.0000   70

   1   rms: 0.6211E-01   max: 0.8175E-01   D at   75  2
       a =  7.000      CL =  1.6433
      Cm = -0.1809     CD =  0.01950   =>   CDf =  0.00687    CDp =  0.01263

 Side 1  free  transition at x/c =  0.4249   59
 Side 2 forced transition at x/c =  1.0000   69

   2   rms: 0.1596E-01   max: -.1312E+00   D at   59  1
       a =  7.000      CL =  1.6460
      Cm = -0.1814     CD =  0.01949   =>   CDf =  0.00719    CDp =  0.01230

 Side 1  free  transition at x/c =  0.4258   59
 Side 2 forced transition at x/c =  1.0000   69

   3   rms: 0.2068E-02   max: -.8344E-02   D at   92  1
       a =  7.000      CL =  1.6482
      Cm = -0.1818     CD =  0.01951   =>   CDf =  0.00715    CDp =  0.01236

 Side 1  free  transition at x/c =  0.4257   59
 Side 2 forced transition at x/c =  1.0000   69

   4   rms: 0.3841E-04   max: 0.4431E-03   D at   91  1
       a =  7.000      CL =  1.6482
      Cm = -0.1818     CD =  0.01951   =>   CDf =  0.00716    CDp =  0.01236
 plradd ia,ip,cpol           23           0  0.19247285    

 Point added to stored polar  1
 Point written to save file  goe482_Re300k.base.pol                          
 Dump file unspecified or not available
 Calculating wake trajectory ...
 Calculating source influence matrix ...

 Solving BL system ...

 Side 1  free  transition at x/c =  0.4257   59
 Side 2 forced transition at x/c =  1.0000   69

   1   rms: 0.7049E-01   max: 0.5680E-01   D at   81  2
       a =  7.500      CL =  1.6968
      Cm = -0.1812     CD =  0.02024   =>   CDf =  0.00716    CDp =  0.01307

 Side 1  free  transition at x/c =  0.4202   58
 Side 2 forced transition at x/c =  1.0000   69

   2   rms: 0.1594E-01   max: -.7236E-01   C at   58  1
       a =  7.500      CL =  1.6807
      Cm = -0.1785     CD =  0.02036   =>   CDf =  0.00716    CDp =  0.01320

 Side 1  free  transition at x/c =  0.4185   58
 Side 2 forced transition at x/c =  1.0000   69

   3   rms: 0.2005E-02   max: -.9855E-02   D at   93  1
       a =  7.500      CL =  1.6824
      Cm = -0.1788     CD =  0.02035   =>   CDf =  0.00711    CDp =  0.01324

 Side 1  free  transition at x/c =  0.4185   58
 Side 2 forced transition at x/c =  1.0000   69

   4   rms: 0.1880E-04   max: -.1277E-03   D at   78  2
       a =  7.500      CL =  1.6824
      Cm = -0.1788     CD =  0.02035   =>   CDf =  0.00711    CDp =  0.01324
 plradd ia,ip,cpol           24           0  0.19247285    

 Point added to stored polar  1
 Point written to save file  goe482_Re300k.base.pol                          
 Dump file unspecified or not available
 Calculating wake trajectory ...
 Calculating source influence matrix ...

 Solving BL system ...

 Side 1  free  transition at x/c =  0.4185   58
 Side 2 forced transition at x/c =  1.0000   69

   1   rms: 0.6066E-01   max: 0.9485E-01   D at   75  2
       a =  8.000      CL =  1.7105
      Cm = -0.1749     CD =  0.02123   =>   CDf =  0.00684    CDp =  0.01438

 Side 1  free  transition at x/c =  0.4108   59
 Side 2 forced transition at x/c =  1.0000   68

   2   rms: 0.1135E-01   max: -.8662E-01   D at   59  1
       a =  8.000      CL =  1.7141
      Cm = -0.1756     CD =  0.02117   =>   CDf =  0.00710    CDp =  0.01407

 Side 1  free  transition at x/c =  0.4115   59
 Side 2 forced transition at x/c =  1.0000   68

   3   rms: 0.9613E-03   max: -.4058E-02   D at    4  1
       a =  8.000      CL =  1.7149
      Cm = -0.1757     CD =  0.02118   =>   CDf =  0.00706    CDp =  0.01412

 Side 1  free  transition at x/c =  0.4115   59
 Side 2 forced transition at x/c =  1.0000   68

   4   rms: 0.2219E-05   max: 0.2497E-04   D at   73  2
       a =  8.000      CL =  1.7149
      Cm = -0.1757     CD =  0.02118   =>   CDf =  0.00706    CDp =  0.01412
 plradd ia,ip,cpol           25           0  0.19247285    

 Point added to stored polar  1
 Point written to save file  goe482_Re300k.base.pol                          
 Dump file unspecified or not available
 Calculating wake trajectory ...
 Calculating source influence matrix ...

 Solving BL system ...

 Side 1  free  transition at x/c =  0.4115   59
 Side 2 forced transition at x/c =  1.0000   68

   1   rms: 0.6396E-01   max: 0.7437E-01   D at   76  2
       a =  8.500      CL =  1.7522
      Cm = -0.1735     CD =  0.02201   =>   CDf =  0.00707    CDp =  0.01494

 Side 1  free  transition at x/c =  0.4058   58
 Side 2 forced transition at x/c =  1.0000   68

   2   rms: 0.7776E-02   max: -.4449E-01   C at   58  1
       a =  8.500      CL =  1.7556
      Cm = -0.1741     CD =  0.02210   =>   CDf =  0.00713    CDp =  0.01497

 Side 1  free  transition at x/c =  0.4051   58
 Side 2 forced transition at x/c =  1.0000   68

   3   rms: 0.6870E-03   max: -.3338E-02   D at   90  1
       a =  8.500      CL =  1.7562
      Cm = -0.1742     CD =  0.02210   =>   CDf =  0.00710    CDp =  0.01500

 Side 1  free  transition at x/c =  0.4051   58
 Side 2 forced transition at x/c =  1.0000   68

   4   rms: 0.1874E-05   max: 0.3057E-04   C at   68  2
       a =  8.500      CL =  1.7562
      Cm = -0.1742     CD =  0.02210   =>   CDf =  0.00710    CDp =  0.01500
 plradd ia,ip,cpol           26           0  0.19247285    

 Point added to stored polar  1
 Point written to save file  goe482_Re300k.base.pol                          
 Dump file unspecified or not available
 Calculating wake trajectory ...
 Calculating source influence matrix ...

 Solving BL system ...

 Side 1  free  transition at x/c =  0.4051   58
 Side 2 forced transition at x/c =  1.0000   68

   1   rms: 0.5992E-01   max: 0.1885E+00   T at   58  1
       a =  9.000      CL =  1.7742
      Cm = -0.1692     CD =  0.02332   =>   CDf =  0.00681    CDp =  0.01651

 Side 1  free  transition at x/c =  0.3970   59
 Side 2 forced transition at x/c =  1.0000   67

   2   rms: 0.1195E-01   max: -.8247E-01   D at   59  1
       a =  9.000      CL =  1.7784
      Cm = -0.1700     CD =  0.02324   =>   CDf =  0.00699    CDp =  0.01625

 Side 1  free  transition at x/c =  0.3980   59
 Side 2 forced transition at x/c =  1.0000   67

   3   rms: 0.1115E-02   max: -.4809E-02   D at   89  1
       a =  9.000      CL =  1.7793
      Cm = -0.1701     CD =  0.02324   =>   CDf =  0.00695    CDp =  0.01629

 Side 1  free  transition at x/c =  0.3979   59
 Side 2 forced transition at x/c =  1.0000   67

   4   rms: 0.7842E-05   max: -.4880E-04   D at   73  2
       a =  9.000      CL =  1.7793
      Cm = -0.1701     CD =  0.02324   =>   CDf =  0.00695    CDp =  0.01629
 plradd ia,ip,cpol           27           0  0.11372724    

 Point added to stored polar  1
 Point written to save file  goe482_Re300k.base.pol                          
 Dump file unspecified or not available
 Calculating wake trajectory ...
 Calculating source influence matrix ...

 Solving BL system ...

 Side 1  free  transition at x/c =  0.3979   59
 Side 2 forced transition at x/c =  1.0000   67

   1   rms: 0.6083E-01   max: 0.9806E-01   D at   76  2
       a =  9.500      CL =  1.8066
      Cm = -0.1667     CD =  0.02435   =>   CDf =  0.00696    CDp =  0.01739

 Side 1  free  transition at x/c =  0.3892   58
 Side 2 forced transition at x/c =  1.0000   67

   2   rms: 0.2153E-01   max: -.1162E+00   D at   59  1
       a =  9.500      CL =  1.8146
      Cm = -0.1679     CD =  0.02418   =>   CDf =  0.00705    CDp =  0.01714

 Side 1  free  transition at x/c =  0.3901   58
 Side 2 forced transition at x/c =  1.0000   67

   3   rms: 0.1331E-02   max: -.6512E-02   D at   89  1
       a =  9.500      CL =  1.8158
      Cm = -0.1681     CD =  0.02421   =>   CDf =  0.00704    CDp =  0.01718

 Side 1  free  transition at x/c =  0.3899   58
 Side 2 forced transition at x/c =  1.0000   67

   4   rms: 0.9728E-05   max: 0.4074E-04   C at   67  2
       a =  9.500      CL =  1.8158
      Cm = -0.1681     CD =  0.02421   =>   CDf =  0.00704    CDp =  0.01718
 plradd ia,ip,cpol           28           0  0.11372724    

 Point added to stored polar  1
 Point written to save file  goe482_Re300k.base.pol                          
 Dump file unspecified or not available
 Calculating wake trajectory ...
 Calculating source influence matrix ...

 Solving BL system ...

 Side 1  free  transition at x/c =  0.3899   58
 Side 2 forced transition at x/c =  1.0000   67

   1   rms: 0.6479E-01   max: -.2573E+00   C at   58  1   RLX: 0.951
       a = 10.000      CL =  1.8124
      Cm = -0.1610     CD =  0.02603   =>   CDf =  0.00672    CDp =  0.01931

 Side 1  free  transition at x/c =  0.3815   59
 Side 2 forced transition at x/c =  1.0000   66

   2   rms: 0.1630E-01   max: -.7455E-01   D at   90  1
       a = 10.000      CL =  1.8244
      Cm = -0.1626     CD =  0.02591   =>   CDf =  0.00685    CDp =  0.01906

 Side 1  free  transition at x/c =  0.3815   59
 Side 2 forced transition at x/c =  1.0000   66

   3   rms: 0.8805E-03   max: -.4690E-02   D at   78  2
       a = 10.000      CL =  1.8251
      Cm = -0.1627     CD =  0.02592   =>   CDf =  0.00682    CDp =  0.01909

 Side 1  free  transition at x/c =  0.3814   59
 Side 2 forced transition at x/c =  1.0000   66

   4   rms: 0.1884E-04   max: -.1041E-03   D at   75  2
       a = 10.000      CL =  1.8251
      Cm = -0.1627     CD =  0.02592   =>   CDf =  0.00683    CDp =  0.01909
 plradd ia,ip,cpol           29           0  0.10243805    

 Point added to stored polar  1
 Point written to save file  goe482_Re300k.base.pol                          
 Dump file unspecified or not available

.OPERva   c>  
 Solving BL system ...

 Side 1  free  transition at x/c =  0.3814   59
 Side 2 forced transition at x/c =  1.0000   66

   1   rms: 0.9961E-06   max: 0.3900E-05   C at   66  2
       a = 10.000      CL =  1.8251
      Cm = -0.1627     CD =  0.02592   =>   CDf =  0.00683    CDp =  0.01909
 plradd ia,ip,cpol           30         182  0.10243805    

 Point added to stored polar  1
 Point written to save file  goe482_Re300k.base.pol                          
 Dump file unspecified or not available
 Calculating wake trajectory ...
 Calculating source influence matrix ...

 Solving BL system ...

 Side 1  free  transition at x/c =  0.3814   59
 Side 2 forced transition at x/c =  1.0000   66

   1   rms: 0.3042E-01   max: 0.1148E+00   T at   59  1   RLX: 0.938
       a = 10.250      CL =  1.8339
      Cm = -0.1609     CD =  0.02667   =>   CDf =  0.00683    CDp =  0.01984

 Side 1  free  transition at x/c =  0.3770   59
 Side 2 forced transition at x/c =  1.0000   66

   2   rms: 0.6887E-02   max: -.6551E-01   D at   59  1
       a = 10.250      CL =  1.8365
      Cm = -0.1610     CD =  0.02662   =>   CDf =  0.00686    CDp =  0.01976

 Side 1  free  transition at x/c =  0.3772   59
 Side 2 forced transition at x/c =  1.0000   66

   3   rms: 0.7078E-03   max: -.2849E-02   D at   87  1
       a = 10.250      CL =  1.8371
      Cm = -0.1611     CD =  0.02661   =>   CDf =  0.00684    CDp =  0.01977

 Side 1  free  transition at x/c =  0.3771   59
 Side 2 forced transition at x/c =  1.0000   66

   4   rms: 0.8521E-05   max: -.7671E-04   D at   75  2
       a = 10.250      CL =  1.8371
      Cm = -0.1611     CD =  0.02661   =>   CDf =  0.00684    CDp =  0.01977
 plradd ia,ip,cpol           31           0  0.10243805    

 Point added to stored polar  1
 Point written to save file  goe482_Re300k.base.pol                          
 Dump file unspecified or not available
 Calculating wake trajectory ...
 Calculating source influence matrix ...

 Solving BL system ...

 Side 1  free  transition at x/c =  0.3771   59
 Side 2 forced transition at x/c =  1.0000   66

   1   rms: 0.3307E-01   max: -.1298E+00   D at   60  1   RLX: 0.920
       a = 10.500      CL =  1.8523
      Cm = -0.1602     CD =  0.02716   =>   CDf =  0.00685    CDp =  0.02031

 Side 1  free  transition at x/c =  0.3732   58
 Side 2 forced transition at x/c =  1.0000   66

   2   rms: 0.5827E-02   max: -.4048E-01   C at   58  1
       a = 10.500      CL =  1.8484
      Cm = -0.1595     CD =  0.02745   =>   CDf =  0.00689    CDp =  0.02056

 Side 1  free  transition at x/c =  0.3725   58
 Side 2 forced transition at x/c =  1.0000   66

   3   rms: 0.4361E-03   max: -.2390E-02   D at   87  1
       a = 10.500      CL =  1.8488
      Cm = -0.1596     CD =  0.02743   =>   CDf =  0.00684    CDp =  0.02058

 Side 1  free  transition at x/c =  0.3724   58
 Side 2 forced transition at x/c =  1.0000   66

   4   rms: 0.8101E-05   max: 0.1386E-03   C at   66  2
       a = 10.500      CL =  1.8488
      Cm = -0.1596     CD =  0.02743   =>   CDf =  0.00685    CDp =  0.02058
 plradd ia,ip,cpol           32           0  0.10243805    

 Point added to stored polar  1
 Point written to save file  goe482_Re300k.base.pol                          
 Dump file unspecified or not available
 Calculating wake trajectory ...
 Calculating source influence matrix ...

 Solving BL system ...

 Side 1  free  transition at x/c =  0.3724   58
 Side 2 forced transition at x/c =  1.0000   66

   1   rms: 0.3274E-01   max: 0.1167E+00   D at   84  1   RLX: 0.865
       a = 10.750      CL =  1.8483
      Cm = -0.1571     CD =  0.02859   =>   CDf =  0.00685    CDp =  0.02174

 Side 1  free  transition at x/c =  0.3683   58
 Side 2 forced transition at x/c =  1.0000   66

   2   rms: 0.4735E-02   max: -.2532E-01   D at   58  1
       a = 10.750      CL =  1.8507
      Cm = -0.1570     CD =  0.02865   =>   CDf =  0.00674    CDp =  0.02190

 Side 1  free  transition at x/c =  0.3679   58
 Side 2 forced transition at x/c =  1.0000   66

   3   rms: 0.2965E-03   max: -.1476E-02   D at   85  1
       a = 10.750      CL =  1.8510
      Cm = -0.1571     CD =  0.02863   =>   CDf =  0.00672    CDp =  0.02191

 Side 1  free  transition at x/c =  0.3679   58
 Side 2 forced transition at x/c =  1.0000   66

   4   rms: 0.9416E-05   max: 0.1220E-03   C at   66  2
       a = 10.750      CL =  1.8510
      Cm = -0.1571     CD =  0.02863   =>   CDf =  0.00672    CDp =  0.02191
 plradd ia,ip,cpol           33           0  0.10243805    

 Point added to stored polar  1
 Point written to save file  goe482_Re300k.base.pol                          
 Dump file unspecified or not available
 Calculating wake trajectory ...
 Calculating source influence matrix ...

 Solving BL system ...

 Side 1  free  transition at x/c =  0.3679   58
 Side 2 forced transition at x/c =  1.0000   66

   1   rms: 0.3125E-01   max: 0.1168E+00   T at   58  1   RLX: 0.833
       a = 11.000      CL =  1.8543
      Cm = -0.1552     CD =  0.02966   =>   CDf =  0.00638    CDp =  0.02327

 Side 1  free  transition at x/c =  0.3638   59
 Side 2 forced transition at x/c =  1.0000   65

   2   rms: 0.5749E-02   max: -.3659E-01   D at   59  1
       a = 11.000      CL =  1.8569
      Cm = -0.1551     CD =  0.02974   =>   CDf =  0.00669    CDp =  0.02305

 Side 1  free  transition at x/c =  0.3632   59
 Side 2 forced transition at x/c =  1.0000   65

   3   rms: 0.5625E-03   max: -.2629E-02   D at   85  1
       a = 11.000      CL =  1.8574
      Cm = -0.1551     CD =  0.02971   =>   CDf =  0.00668    CDp =  0.02303

 Side 1  free  transition at x/c =  0.3632   59
 Side 2 forced transition at x/c =  1.0000   65

   4   rms: 0.9486E-05   max: 0.1026E-03   C at   65  2
       a = 11.000      CL =  1.8574
      Cm = -0.1551     CD =  0.02971   =>   CDf =  0.00668    CDp =  0.02303
 plradd ia,ip,cpol           34           0  0.10243805    

 Point added to stored polar  1
 Point written to save file  goe482_Re300k.base.pol                          
 Dump file unspecified or not available
 Calculating wake trajectory ...
 Calculating source influence matrix ...

 Solving BL system ...

 Side 1  free  transition at x/c =  0.3632   59
 Side 2 forced transition at x/c =  1.0000   65

   1   rms: 0.3066E-01   max: -.9494E-01   D at   60  1   RLX: 0.811
       a = 11.250      CL =  1.8661
      Cm = -0.1540     CD =  0.03051   =>   CDf =  0.00668    CDp =  0.02382

 Side 1  free  transition at x/c =  0.3597   59
 Side 2 forced transition at x/c =  1.0000   65

   2   rms: 0.8578E-02   max: -.4077E-01   D at   59  1
       a = 11.250      CL =  1.8726
      Cm = -0.1542     CD =  0.03044   =>   CDf =  0.00672    CDp =  0.02372

 Side 1  free  transition at x/c =  0.3589   59
 Side 2 forced transition at x/c =  1.0000   65

   3   rms: 0.7684E-03   max: -.3383E-02   D at   85  1
       a = 11.250      CL =  1.8733
      Cm = -0.1542     CD =  0.03043   =>   CDf =  0.00675    CDp =  0.02368

 Side 1  free  transition at x/c =  0.3588   59
 Side 2 forced transition at x/c =  1.0000   65

   4   rms: 0.1588E-04   max: -.1501E-03   D at   76  2
       a = 11.250      CL =  1.8733
      Cm = -0.1542     CD =  0.03043   =>   CDf =  0.00675    CDp =  0.02368
 plradd ia,ip,cpol           35           0  0.10243805    

 Point added to stored polar  1
 Point written to save file  goe482_Re300k.base.pol                          
 Dump file unspecified or not available
 Calculating wake trajectory ...
 Calculating source influence matrix ...

 Solving BL system ...

 Side 1  free  transition at x/c =  0.3588   59
 Side 2 forced transition at x/c =  1.0000   65

   1   rms: 0.3644E-01   max: 0.1230E+00   T at   59  1   RLX: 0.812
       a = 11.500      CL =  1.8932
      Cm = -0.1542     CD =  0.03075   =>   CDf =  0.00675    CDp =  0.02400

 Side 1  free  transition at x/c =  0.3554   58
 Side 2 forced transition at x/c =  1.0000   65

   2   rms: 0.2249E-01   max: 0.1132E+00   D at   85  1
       a = 11.500      CL =  1.8769
      Cm = -0.1522     CD =  0.03186   =>   CDf =  0.00671    CDp =  0.02515

 Side 1  free  transition at x/c =  0.3549   58
 Side 2 forced transition at x/c =  1.0000   65

   3   rms: 0.1137E-02   max: 0.2148E-01   D at   84  1
       a = 11.500      CL =  1.8770
      Cm = -0.1522     CD =  0.03181   =>   CDf =  0.00663    CDp =  0.02518

 Side 1  free  transition at x/c =  0.3548   58
 Side 2 forced transition at x/c =  1.0000   65

   4   rms: 0.2317E-04   max: 0.2507E-03   D at   76  2
       a = 11.500      CL =  1.8770
      Cm = -0.1522     CD =  0.03181   =>   CDf =  0.00663    CDp =  0.02519
 plradd ia,ip,cpol           36           0  0.10243805    

 Point added to stored polar  1
 Point written to save file  goe482_Re300k.base.pol                          
 Dump file unspecified or not available
 Calculating wake trajectory ...
 Calculating source influence matrix ...

 Solving BL system ...

 Side 1  free  transition at x/c =  0.3548   58
 Side 2 forced transition at x/c =  1.0000   65

   1   rms: 0.3139E-01   max: 0.1076E+00   D at   81  1   RLX: 0.754
       a = 11.750      CL =  1.8790
      Cm = -0.1508     CD =  0.03300   =>   CDf =  0.00663    CDp =  0.02637

 Side 1  free  transition at x/c =  0.3512   58
 Side 2 forced transition at x/c =  1.0000   65

   2   rms: 0.7412E-02   max: -.3257E-01   D at   58  1
       a = 11.750      CL =  1.8800
      Cm = -0.1503     CD =  0.03330   =>   CDf =  0.00655    CDp =  0.02675

 Side 1  free  transition at x/c =  0.3503   58
 Side 2 forced transition at x/c =  1.0000   65

   3   rms: 0.3077E-03   max: -.2002E-02   D at   58  1
       a = 11.750      CL =  1.8802
      Cm = -0.1503     CD =  0.03327   =>   CDf =  0.00652    CDp =  0.02675

 Side 1  free  transition at x/c =  0.3503   58
 Side 2 forced transition at x/c =  1.0000   65

   4   rms: 0.2354E-04   max: -.1219E-03   D at   76  2
       a = 11.750      CL =  1.8802
      Cm = -0.1503     CD =  0.03327   =>   CDf =  0.00652    CDp =  0.02675
 plradd ia,ip,cpol           37           0  0.10243805    

 Point added to stored polar  1
 Point written to save file  goe482_Re300k.base.pol                          
 Dump file unspecified or not available
 Calculating wake trajectory ...
 Calculating source influence matrix ...

 Solving BL system ...

 Side 1  free  transition at x/c =  0.3503   58
 Side 2 forced transition at x/c =  1.0000   65

   1   rms: 0.3044E-01   max: 0.1062E+00   T at   58  1   RLX: 0.728
       a = 12.000      CL =  1.8842
      Cm = -0.1491     CD =  0.03433   =>   CDf =  0.00653    CDp =  0.02780

 Side 1  free  transition at x/c =  0.3469   58
 Side 2 forced transition at x/c =  1.0000   65

   2   rms: 0.8102E-02   max: -.4641E-01   D at   58  1
       a = 12.000      CL =  1.8871
      Cm = -0.1488     CD =  0.03457   =>   CDf =  0.00651    CDp =  0.02806

 Side 1  free  transition at x/c =  0.3459   58
 Side 2 forced transition at x/c =  1.0000   65

   3   rms: 0.4264E-03   max: -.2425E-02   D at   83  1
       a = 12.000      CL =  1.8874
      Cm = -0.1488     CD =  0.03453   =>   CDf =  0.00650    CDp =  0.02803

 Side 1  free  transition at x/c =  0.3459   58
 Side 2 forced transition at x/c =  1.0000   65

   4   rms: 0.2705E-04   max: -.1673E-03   D at   77  2
       a = 12.000      CL =  1.8874
      Cm = -0.1488     CD =  0.03453   =>   CDf =  0.00650    CDp =  0.02803
 plradd ia,ip,cpol           38           0  0.10243805    

 Point added to stored polar  1
 Point written to save file  goe482_Re300k.base.pol                          
 Dump file unspecified or not available
 Calculating wake trajectory ...
 Calculating source influence matrix ...

 Solving BL system ...

 Side 1  free  transition at x/c =  0.3459   58
 Side 2 forced transition at x/c =  1.0000   65

   1   rms: 0.3073E-01   max: -.1083E+00   D at   59  1   RLX: 0.710
       a = 12.250      CL =  1.8944
      Cm = -0.1479     CD =  0.03538   =>   CDf =  0.00613    CDp =  0.02925

 Side 1  free  transition at x/c =  0.3428   59
 Side 2 forced transition at x/c =  1.0000   64

   2   rms: 0.1223E-01   max: -.4510E-01   D at   60  1
       a = 12.250      CL =  1.9029
      Cm = -0.1480     CD =  0.03532   =>   CDf =  0.00654    CDp =  0.02879

 Side 1  free  transition at x/c =  0.3414   58
 Side 2 forced transition at x/c =  1.0000   64

   3   rms: 0.3408E-02   max: 0.1635E-01   D at   83  1
       a = 12.250      CL =  1.9002
      Cm = -0.1478     CD =  0.03553   =>   CDf =  0.00655    CDp =  0.02897

 Side 1  free  transition at x/c =  0.3414   58
 Side 2 forced transition at x/c =  1.0000   64

[...]
 Calculating source influence matrix ...

 Solving BL system ...

 Side 1  free  transition at x/c =  0.3328   58
 Side 2 forced transition at x/c =  1.0000   64

   1   rms: 0.3018E-01   max: 0.9721E-01   D at   79  1   RLX: 0.640
       a = 13.000      CL =  1.9050
      Cm = -0.1435     CD =  0.04034   =>   CDf =  0.00629    CDp =  0.03406

 Side 1  free  transition at x/c =  0.3298   58
 Side 2 forced transition at x/c =  1.0000   64

   2   rms: 0.1078E-01   max: -.5376E-01   D at   58  1
       a = 13.000      CL =  1.9089
      Cm = -0.1432     CD =  0.04071   =>   CDf =  0.00628    CDp =  0.03443

 Side 1  free  transition at x/c =  0.3283   58
 Side 2 forced transition at x/c =  1.0000   64

   3   rms: 0.6861E-03   max: -.4495E-02   D at   81  1
       a = 13.000      CL =  1.9093
      Cm = -0.1432     CD =  0.04064   =>   CDf =  0.00629    CDp =  0.03435

 Side 1  free  transition at x/c =  0.3283   58
 Side 2 forced transition at x/c =  1.0000   64

   4   rms: 0.5865E-04   max: -.3526E-03   D at   77  2
       a = 13.000      CL =  1.9093
      Cm = -0.1432     CD =  0.04064   =>   CDf =  0.00629    CDp =  0.03435
 plradd ia,ip,cpol           42           0  0.10243805    

 Point added to stored polar  1
 Point written to save file  goe482_Re300k.base.pol                          
 Dump file unspecified or not available
 Calculating wake trajectory ...
 Calculating source influence matrix ...

 Solving BL system ...

 Side 1  free  transition at x/c =  0.3283   58
 Side 2 forced transition at x/c =  1.0000   64

   1   rms: 0.3079E-01   max: -.1198E+00   D at   59  1   RLX: 0.627
       a = 13.250      CL =  1.9161
      Cm = -0.1426     CD =  0.04145   =>   CDf =  0.00629    CDp =  0.03516

 Side 1  free  transition at x/c =  0.3254   57
 Side 2 forced transition at x/c =  1.0000   64

   2   rms: 0.1345E-01   max: 0.6006E-01   D at   78  1
       a = 13.250      CL =  1.9133
      Cm = -0.1419     CD =  0.04252   =>   CDf =  0.00632    CDp =  0.03620

 Side 1  free  transition at x/c =  0.3237   57
 Side 2 forced transition at x/c =  1.0000   64

   3   rms: 0.5842E-03   max: -.5373E-02   C at   64  2
       a = 13.250      CL =  1.9135
      Cm = -0.1419     CD =  0.04242   =>   CDf =  0.00623    CDp =  0.03618

 Side 1  free  transition at x/c =  0.3237   57
 Side 2 forced transition at x/c =  1.0000   64

   4   rms: 0.3927E-04   max: -.2492E-03   D at   76  2
       a = 13.250      CL =  1.9135
      Cm = -0.1419     CD =  0.04242   =>   CDf =  0.00623    CDp =  0.03619
 plradd ia,ip,cpol           43           0 -1.51373300E-04

 Point added to stored polar  1
 Point written to save file  goe482_Re300k.base.pol                          
 Dump file unspecified or not available
 Calculating wake trajectory ...
 Calculating source influence matrix ...

 Solving BL system ...

 Side 1  free  transition at x/c =  0.3237   57
 Side 2 forced transition at x/c =  1.0000   64

   1   rms: 0.3312E-01   max: 0.1373E+00   D at   78  1   RLX: 0.599
       a = 13.500      CL =  1.9120
      Cm = -0.1410     CD =  0.04402   =>   CDf =  0.00585    CDp =  0.03816

 Side 1  free  transition at x/c =  0.3207   58
 Side 2 forced transition at x/c =  1.0000   63

   2   rms: 0.1364E-01   max: 0.9163E-01   T at    2  1
       a = 13.500      CL =  1.9119
      Cm = -0.1405     CD =  0.04487   =>   CDf =  0.00614    CDp =  0.03873

 Side 1  free  transition at x/c =  0.3186   58
 Side 2 forced transition at x/c =  1.0000   63

   3   rms: 0.9418E-03   max: -.7879E-02   D at   58  1
       a = 13.500      CL =  1.9114
      Cm = -0.1404     CD =  0.04482   =>   CDf =  0.00609    CDp =  0.03873

 Side 1  free  transition at x/c =  0.3187   58
 Side 2 forced transition at x/c =  1.0000   63

   4   rms: 0.4497E-04   max: -.2588E-03   D at   80  1
       a = 13.500      CL =  1.9114
      Cm = -0.1404     CD =  0.04481   =>   CDf =  0.00608    CDp =  0.03873
 plradd ia,ip,cpol           44           0 -1.51373300E-04

 Point added to stored polar  1
 Point written to save file  goe482_Re300k.base.pol                          
 Dump file unspecified or not available
 Calculating wake trajectory ...
 Calculating source influence matrix ...

 Solving BL system ...

 Side 1  free  transition at x/c =  0.3187   58
 Side 2 forced transition at x/c =  1.0000   63

   1   rms: 0.3169E-01   max: 0.1253E+00   D at   78  1   RLX: 0.579
       a = 13.750      CL =  1.9112
      Cm = -0.1397     CD =  0.04630   =>   CDf =  0.00609    CDp =  0.04021

 Side 1  free  transition at x/c =  0.3153   58
 Side 2 forced transition at x/c =  1.0000   63

   2   rms: 0.1280E-01   max: -.6642E-01   D at   58  1
       a = 13.750      CL =  1.9125
      Cm = -0.1392     CD =  0.04706   =>   CDf =  0.00606    CDp =  0.04099

 Side 1  free  transition at x/c =  0.3131   58
 Side 2 forced transition at x/c =  1.0000   63

   3   rms: 0.7158E-03   max: -.6594E-02   D at   58  1
       a = 13.750      CL =  1.9125
      Cm = -0.1392     CD =  0.04696   =>   CDf =  0.00606    CDp =  0.04090

 Side 1  free  transition at x/c =  0.3131   58
 Side 2 forced transition at x/c =  1.0000   63

   4   rms: 0.7591E-04   max: -.3488E-03   D at   76  2
       a = 13.750      CL =  1.9125
      Cm = -0.1392     CD =  0.04696   =>   CDf =  0.00606    CDp =  0.04090
 plradd ia,ip,cpol           45           0 -1.51373300E-04

 Point added to stored polar  1
 Point written to save file  goe482_Re300k.base.pol                          
 Dump file unspecified or not available
 Calculating wake trajectory ...
 Calculating source influence matrix ...

 Solving BL system ...

 Side 1  free  transition at x/c =  0.3131   58
 Side 2 forced transition at x/c =  1.0000   63

   1   rms: 0.3142E-01   max: -.1393E+00   D at   59  1   RLX: 0.563
       a = 14.000      CL =  1.9143
      Cm = -0.1386     CD =  0.04820   =>   CDf =  0.00606    CDp =  0.04214

 Side 1  free  transition at x/c =  0.3101   58
 Side 2 forced transition at x/c =  1.0000   63

   2   rms: 0.1498E-01   max: -.7876E-01   D at   58  1
       a = 14.000      CL =  1.9214
      Cm = -0.1383     CD =  0.04842   =>   CDf =  0.00610    CDp =  0.04232

 Side 1  free  transition at x/c =  0.3075   57
 Side 2 forced transition at x/c =  1.0000   63

   3   rms: 0.1069E-01   max: 0.5977E-01   D at   79  1
       a = 14.000      CL =  1.9136
      Cm = -0.1381     CD =  0.04935   =>   CDf =  0.00606    CDp =  0.04329

 Side 1  free  transition at x/c =  0.3077   57
 Side 2 forced transition at x/c =  1.0000   63

   4   rms: 0.4540E-03   max: -.4857E-02   C at   63  2
       a = 14.000      CL =  1.9135
      Cm = -0.1381     CD =  0.04924   =>   CDf =  0.00602    CDp =  0.04322

 Side 1  free  transition at x/c =  0.3077   57
 Side 2 forced transition at x/c =  1.0000   63

   5   rms: 0.7232E-05   max: 0.1263E-03   C at   63  2
       a = 14.000      CL =  1.9135
      Cm = -0.1381     CD =  0.04924   =>   CDf =  0.00602    CDp =  0.04322
 plradd ia,ip,cpol           46           0 -1.51373300E-04

 Point added to stored polar  1
 Point written to save file  goe482_Re300k.base.pol                          
 Dump file unspecified or not available
 Calculating wake trajectory ...
 Calculating source influence matrix ...

 Solving BL system ...

 Side 1  free  transition at x/c =  0.3077   57
 Side 2 forced transition at x/c =  1.0000   63

   1   rms: 0.3338E-01   max: 0.1461E+00   D at   76  1   RLX: 0.542
       a = 14.250      CL =  1.9117
      Cm = -0.1375     CD =  0.05097   =>   CDf =  0.00602    CDp =  0.04495

 Side 1  free  transition at x/c =  0.3046   57
 Side 2 forced transition at x/c =  1.0000   63

   2   rms: 0.1547E-01   max: 0.7246E-01   D at   78  1
       a = 14.250      CL =  1.9096
      Cm = -0.1370     CD =  0.05234   =>   CDf =  0.00594    CDp =  0.04641

 Side 1  free  transition at x/c =  0.3020   57
 Side 2 forced transition at x/c =  1.0000   63

   3   rms: 0.9383E-03   max: -.7978E-02   C at   63  2
       a = 14.250      CL =  1.9096
      Cm = -0.1370     CD =  0.05215   =>   CDf =  0.00588    CDp =  0.04627

 Side 1  free  transition at x/c =  0.3021   57
 Side 2 forced transition at x/c =  1.0000   63

   4   rms: 0.5557E-04   max: -.2968E-03   D at   76  2
       a = 14.250      CL =  1.9096
      Cm = -0.1370     CD =  0.05215   =>   CDf =  0.00588    CDp =  0.04627
 plradd ia,ip,cpol           47           0 -1.51373300E-04

 Point added to stored polar  1
 Point written to save file  goe482_Re300k.base.pol                          
 Dump file unspecified or not available
 Calculating wake trajectory ...
 Calculating source influence matrix ...

 Solving BL system ...

 Side 1  free  transition at x/c =  0.3021   57
 Side 2 forced transition at x/c =  1.0000   63

   1   rms: 0.3226E-01   max: 0.1329E+00   D at   76  1   RLX: 0.525
       a = 14.500      CL =  1.9088
      Cm = -0.1365     CD =  0.05376   =>   CDf =  0.00588    CDp =  0.04788

 Side 1  free  transition at x/c =  0.2985   57
 Side 2 forced transition at x/c =  1.0000   63

   2   rms: 0.1546E-01   max: -.7439E-01   D at   57  1
       a = 14.500      CL =  1.9077
      Cm = -0.1361     CD =  0.05507   =>   CDf =  0.00587    CDp =  0.04920

 Side 1  free  transition at x/c =  0.2957   57
 Side 2 forced transition at x/c =  1.0000   63

   3   rms: 0.1114E-02   max: 0.1112E-01   D at   77  2
       a = 14.500      CL =  1.9077
      Cm = -0.1360     CD =  0.05486   =>   CDf =  0.00588    CDp =  0.04898

 Side 1  free  transition at x/c =  0.2957   57
 Side 2 forced transition at x/c =  1.0000   63

   4   rms: 0.9384E-04   max: -.4635E-03   D at   76  2
       a = 14.500      CL =  1.9078
      Cm = -0.1360     CD =  0.05486   =>   CDf =  0.00588    CDp =  0.04898
 plradd ia,ip,cpol           48           0 -1.51373300E-04

 Point added to stored polar  1
 Point written to save file  goe482_Re300k.base.pol                          
 Dump file unspecified or not available
 Calculating wake trajectory ...
 Calculating source influence matrix ...

 Solving BL system ...

 Side 1  free  transition at x/c =  0.2957   57
 Side 2 forced transition at x/c =  1.0000   63

   1   rms: 0.3161E-01   max: -.1495E+00   D at   58  1   RLX: 0.510
       a = 14.750      CL =  1.9087
      Cm = -0.1356     CD =  0.05620   =>   CDf =  0.00588    CDp =  0.05031

 Side 1  free  transition at x/c =  0.2929   56
 Side 2 forced transition at x/c =  1.0000   63

   2   rms: 0.1883E-01   max: 0.9013E-01   D at   76  1
       a = 14.750      CL =  1.9045
      Cm = -0.1353     CD =  0.05821   =>   CDf =  0.00587    CDp =  0.05233

 Side 1  free  transition at x/c =  0.2895   56
 Side 2 forced transition at x/c =  1.0000   63

   3   rms: 0.1734E-02   max: 0.1508E-01   D at   76  1
       a = 14.750      CL =  1.9036
      Cm = -0.1352     CD =  0.05804   =>   CDf =  0.00576    CDp =  0.05227

 Side 1  free  transition at x/c =  0.2897   56
 Side 2 forced transition at x/c =  1.0000   63

   4   rms: 0.1972E-04   max: -.2608E-03   C at   63  2
       a = 14.750      CL =  1.9036
      Cm = -0.1352     CD =  0.05803   =>   CDf =  0.00576    CDp =  0.05227
 plradd ia,ip,cpol           49           0 -1.51373300E-04

 Point added to stored polar  1
 Point written to save file  goe482_Re300k.base.pol                          
 Dump file unspecified or not available
 Calculating wake trajectory ...
 Calculating source influence matrix ...

 Solving BL system ...

 Side 1  free  transition at x/c =  0.2897   56
 Side 2 forced transition at x/c =  1.0000   63

   1   rms: 0.3379E-01   max: 0.1569E+00   D at   74  1   RLX: 0.491
       a = 15.000      CL =  1.9014
      Cm = -0.1349     CD =  0.05990   =>   CDf =  0.00576    CDp =  0.05414

 Side 1  free  transition at x/c =  0.2861   56
 Side 2 forced transition at x/c =  1.0000   63

   2   rms: 0.1677E-01   max: 0.7351E-01   D at   75  1
       a = 15.000      CL =  1.8993
      Cm = -0.1346     CD =  0.06155   =>   CDf =  0.00532    CDp =  0.05623

 Side 1  free  transition at x/c =  0.2825   57
 Side 2 forced transition at x/c =  1.0000   62

   3   rms: 0.2774E-02   max: -.3361E-01   T at    2  1
       a = 15.000      CL =  1.8980
      Cm = -0.1345     CD =  0.06146   =>   CDf =  0.00569    CDp =  0.05577

 Side 1  free  transition at x/c =  0.2828   57
 Side 2 forced transition at x/c =  1.0000   62

   4   rms: 0.9283E-03   max: -.1163E-01   D at    4  1
       a = 15.000      CL =  1.8980
      Cm = -0.1345     CD =  0.06144   =>   CDf =  0.00567    CDp =  0.05577

 Side 1  free  transition at x/c =  0.2828   57
 Side 2 forced transition at x/c =  1.0000   62

   5   rms: 0.2017E-05   max: -.1649E-04   C at   62  2
       a = 15.000      CL =  1.8980
      Cm = -0.1345     CD =  0.06144   =>   CDf =  0.00567    CDp =  0.05577
 plradd ia,ip,cpol           50           0 -1.51373300E-04

 Point added to stored polar  1
 Point written to save file  goe482_Re300k.base.pol                          
 Dump file unspecified or not available
 Calculating wake trajectory ...
 Calculating source influence matrix ...

 Solving BL system ...

 Side 1  free  transition at x/c =  0.2828   57
 Side 2 forced transition at x/c =  1.0000   62

   1   rms: 0.3362E-01   max: 0.1466E+00   D at   74  1   RLX: 0.475
       a = 15.250      CL =  1.8960
      Cm = -0.1343     CD =  0.06323   =>   CDf =  0.00568    CDp =  0.05755

 Side 1  free  transition at x/c =  0.2793   57
 Side 2 forced transition at x/c =  1.0000   62

   2   rms: 0.1763E-01   max: -.1074E+00   D at   57  1
       a = 15.250      CL =  1.8941
      Cm = -0.1338     CD =  0.06484   =>   CDf =  0.00571    CDp =  0.05913

 Side 1  free  transition at x/c =  0.2753   56
 Side 2 forced transition at x/c =  1.0000   62

   3   rms: 0.5220E-02   max: 0.3726E-01   D at   75  1
       a = 15.250      CL =  1.8912
      Cm = -0.1339     CD =  0.06517   =>   CDf =  0.00565    CDp =  0.05952

 Side 1  free  transition at x/c =  0.2755   56
 Side 2 forced transition at x/c =  1.0000   62

   4   rms: 0.3682E-03   max: -.2469E-02   C at   62  2
       a = 15.250      CL =  1.8910
      Cm = -0.1339     CD =  0.06512   =>   CDf =  0.00562    CDp =  0.05949

 Side 1  free  transition at x/c =  0.2755   56
 Side 2 forced transition at x/c =  1.0000   62

   5   rms: 0.1534E-04   max: -.1923E-03   C at   62  2
       a = 15.250      CL =  1.8910
      Cm = -0.1339     CD =  0.06511   =>   CDf =  0.00562    CDp =  0.05949
 plradd ia,ip,cpol           51           0 -4.61409916E-04

 Point added to stored polar  1
 Point written to save file  goe482_Re300k.base.pol                          
 Dump file unspecified or not available
 Calculating wake trajectory ...
 Calculating source influence matrix ...

 Solving BL system ...

 Side 1  free  transition at x/c =  0.2755   56
 Side 2 forced transition at x/c =  1.0000   62

   1   rms: 0.3799E-01   max: 0.1913E+00   D at   73  1   RLX: 0.458
       a = 15.500      CL =  1.8866
      Cm = -0.1338     CD =  0.06738   =>   CDf =  0.00563    CDp =  0.06175

 Side 1  free  transition at x/c =  0.2712   56
 Side 2 forced transition at x/c =  1.0000   62

   2   rms: 0.1950E-01   max: 0.9474E-01   D at   74  1
       a = 15.500      CL =  1.8819
      Cm = -0.1336     CD =  0.06960   =>   CDf =  0.00557    CDp =  0.06402

 Side 1  free  transition at x/c =  0.2666   56
 Side 2 forced transition at x/c =  1.0000   62

   3   rms: 0.2413E-02   max: 0.1790E-01   D at   74  1
       a = 15.500      CL =  1.8805
      Cm = -0.1335     CD =  0.06941   =>   CDf =  0.00555    CDp =  0.06385

 Side 1  free  transition at x/c =  0.2669   56
 Side 2 forced transition at x/c =  1.0000   62

   4   rms: 0.1341E-03   max: 0.1890E-02   D at   77  2
       a = 15.500      CL =  1.8804
      Cm = -0.1335     CD =  0.06938   =>   CDf =  0.00554    CDp =  0.06384

 Side 1  free  transition at x/c =  0.2669   56
 Side 2 forced transition at x/c =  1.0000   62

   5   rms: 0.4087E-05   max: -.4756E-04   C at   62  2
       a = 15.500      CL =  1.8804
      Cm = -0.1335     CD =  0.06938   =>   CDf =  0.00554    CDp =  0.06384
 plradd ia,ip,cpol           52           0 -1.51373300E-04

 Point added to stored polar  1
 Point written to save file  goe482_Re300k.base.pol                          
 Dump file unspecified or not available
 Calculating wake trajectory ...
 Calculating source influence matrix ...

 Solving BL system ...

 Side 1  free  transition at x/c =  0.2669   56
 Side 2 forced transition at x/c =  1.0000   62

   1   rms: 0.3634E-01   max: 0.1730E+00   D at   72  1   RLX: 0.442
       a = 15.750      CL =  1.8766
      Cm = -0.1334     CD =  0.07149   =>   CDf =  0.00555    CDp =  0.06595

 Side 1  free  transition at x/c =  0.2632   55
 Side 2 forced transition at x/c =  1.0000   62

   2   rms: 0.2034E-01   max: 0.9552E-01   D at   72  1
       a = 15.750      CL =  1.8730
      Cm = -0.1333     CD =  0.07383   =>   CDf =  0.00558    CDp =  0.06826

 Side 1  free  transition at x/c =  0.2575   55
 Side 2 forced transition at x/c =  1.0000   62

   3   rms: 0.3535E-02   max: 0.2348E-01   D at   73  1
       a = 15.750      CL =  1.8705
      Cm = -0.1332     CD =  0.07373   =>   CDf =  0.00549    CDp =  0.06825

 Side 1  free  transition at x/c =  0.2584   55
 Side 2 forced transition at x/c =  1.0000   62

   4   rms: 0.1999E-03   max: -.1741E-02   C at   62  2
       a = 15.750      CL =  1.8704
      Cm = -0.1332     CD =  0.07369   =>   CDf =  0.00547    CDp =  0.06822

 Side 1  free  transition at x/c =  0.2584   55
 Side 2 forced transition at x/c =  1.0000   62

   5   rms: 0.7841E-05   max: -.1154E-03   C at   62  2
       a = 15.750      CL =  1.8704
      Cm = -0.1332     CD =  0.07369   =>   CDf =  0.00547    CDp =  0.06822
 plradd ia,ip,cpol           53           0 -4.61409916E-04

 Point added to stored polar  1
 Point written to save file  goe482_Re300k.base.pol                          
 Dump file unspecified or not available
 Calculating wake trajectory ...
 Calculating source influence matrix ...

 Solving BL system ...

 Side 1  free  transition at x/c =  0.2584   55
 Side 2 forced transition at x/c =  1.0000   62

   1   rms: 0.3697E-01   max: 0.1896E+00   D at   71  1   RLX: 0.427
       a = 16.000      CL =  1.8662
      Cm = -0.1332     CD =  0.07595   =>   CDf =  0.00548    CDp =  0.07048

 Side 1  free  transition at x/c =  0.2536   55
 Side 2 forced transition at x/c =  1.0000   62

   2   rms: 0.2189E-01   max: 0.1118E+00   D at   72  1
       a = 16.000      CL =  1.8593
      Cm = -0.1331     CD =  0.07882   =>   CDf =  0.00546    CDp =  0.07337

 Side 1  free  transition at x/c =  0.2480   54
 Side 2 forced transition at x/c =  1.0000   62

   3   rms: 0.3872E-02   max: 0.2696E-01   D at   72  1
       a = 16.000      CL =  1.8565
      Cm = -0.1330     CD =  0.07865   =>   CDf =  0.00548    CDp =  0.07318

 Side 1  free  transition at x/c =  0.2497   55
 Side 2 forced transition at x/c =  1.0000   62

   4   rms: 0.4471E-02   max: 0.6691E-01   C at   55  1
       a = 16.000      CL =  1.8565
      Cm = -0.1330     CD =  0.07861   =>   CDf =  0.00540    CDp =  0.07321

 Side 1  free  transition at x/c =  0.2489   55
 Side 2 forced transition at x/c =  1.0000   62

   5   rms: 0.4646E-03   max: -.4195E-02   D at   56  1
       a = 16.000      CL =  1.8566
      Cm = -0.1330     CD =  0.07856   =>   CDf =  0.00545    CDp =  0.07312

 Side 1  free  transition at x/c =  0.2488   55
 Side 2 forced transition at x/c =  1.0000   62

   6   rms: 0.5291E-04   max: 0.3204E-03   C at   62  2
       a = 16.000      CL =  1.8566
      Cm = -0.1330     CD =  0.07857   =>   CDf =  0.00545    CDp =  0.07312
 plradd ia,ip,cpol           54           0 -4.61409916E-04

 Point added to stored polar  1
 Point written to save file  goe482_Re300k.base.pol                          
 Dump file unspecified or not available

.OPERva   c>  
 Polar accumulation disabled

.OPERv   c>  
 XFOIL   c>  
 XFOIL   c>  