
 ===================================================
  XFOIL Version 6.99
  Copyright (C) 2000   Mark Drela, Harold Youngren

  This software comes with ABSOLUTELY NO WARRANTY,
    subject to the GNU General Public License.

  Caveat computor
 ===================================================

 File  xfoil.def  not found

   QUIT    Exit program

  .OPER    Direct operating point(s)
  .MDES    Complex mapping design routine
  .QDES    Surface speed design routine
  .GDES    Geometry design routine

   SAVE f  Write airfoil to labeled coordinate file
   PSAV f  Write airfoil to plain coordinate file
   ISAV f  Write airfoil to ISES coordinate file
   MSAV f  Write airfoil to MSES coordinate file
   REVE    Reverse written-airfoil node ordering

   LOAD f  Read buffer airfoil from coordinate file
   NACA i  Set NACA 4,5-digit airfoil and buffer airfoil
   INTE    Set buffer airfoil by interpolating two airfoils
   NORM    Buffer airfoil normalization toggle
   XYCM rr Change CM reference location, currently  0.25000 0.00000

   BEND    Display structural properties of current airfoil

   PCOP    Set current-airfoil panel nodes directly from buffer airfoil points
   PANE    Set current-airfoil panel nodes ( 160 ) based on curvature
  .PPAR    Show/change paneling

  .PLOP    Plotting options

   WDEF f  Write  current-settings file
   RDEF f  Reread current-settings file
   NAME s  Specify new airfoil name
   NINC    Increment name version number

   Z       Zoom    | (available in all menus)
   U       Unzoom  | 

 XFOIL   c>  
 Labeled airfoil file.  Name:  GOE 479 AIRFOIL                                 

 Number of input coordinate points:  33
 Counterclockwise ordering
 Max thickness =     0.116017  at x =   0.300
 Max camber    =     0.037913  at x =   0.400

  LE  x,y  =  -0.00042   0.00355  |   Chord =   1.00043
  TE  x,y  =   1.00000   0.00000  |

 Current airfoil nodes set from buffer airfoil nodes (  33 )

 WARNING: Poor input coordinate distribution
          Excessive panel angle   66.9  at i =  17
          Repaneling with PANE and/or PPAR suggested
           (doing GDES,CADD before repaneling _may_
            improve excessively coarse LE spacing

 XFOIL   c>  
 XFOIL   c>  
 Sharp trailing edge

 Paneling parameters used...
   Number of panel nodes       160
   Panel bunching parameter    1.000
   TE/LE panel density ratio   0.150
   Refined-area/LE panel density ratio    0.200
   Top    side refined area x/c limits  1.000 1.000
   Bottom side refined area x/c limits  1.000 1.000

 XFOIL   c>  
.OPERi   c>  
 Xtr/c     =  1.0000    top    side
 Xtr/c     =  1.0000    bottom side
 Ncrit     =    9.00   ( 0.070 % turb. level )
 Vacc      =  0.0100

 Klag  =  5.6000     Uxwt  =    1.00
 A     =  6.7000     B     =  0.7500       KCt = 0.01485
 CtiniK=  1.8000     CtiniX=  3.3000

..VPAR   c>  
..VPAR   c>  
.OPERi   c>  
 M  =    0.0000
 Re =    400000

.OPERv   c>  
.OPERv   c>  
.OPERv   c>  
 Polar  1 newly created for accumulation
 Airfoil archived with polar: GOE 479 AIRFOIL                                 

Enter  polar save filename  OR  <return> for no file   s>  
 New polar save file available

Enter  polar dump filename  OR  <return> for no file   s>  
 Polar dump file will NOT be written

 Polar accumulation enabled

.OPERva   c>   Calculating unit vorticity distributions ...
 Calculating wake trajectory ...
 Calculating source influence matrix ...

 Solving BL system ...

 Initializing BL ...
    side            1  ...
 MRCHUE: Inverse mode at  29     Hk =   4.083
 MRCHUE: Inverse mode at  30     Hk =   4.899
 MRCHUE: Inverse mode at  31     Hk =   5.718
 MRCHUE: Inverse mode at  32     Hk =   6.552
 MRCHUE: Inverse mode at  33     Hk =   7.411
 MRCHUE: Inverse mode at  34     Hk =   8.296
 MRCHUE: Inverse mode at  35     Hk =   9.213
 MRCHUE: Inverse mode at  36     Hk =   8.418
 MRCHUE: Inverse mode at  37     Hk =   4.240
 MRCHUE: Inverse mode at  38     Hk =   2.500
 MRCHUE: Inverse mode at  39     Hk =   2.500
 MRCHUE: Inverse mode at  78     Hk =   2.500
 MRCHUE: Inverse mode at  79     Hk =   2.500
 MRCHUE: Inverse mode at  80     Hk =   2.500
 MRCHUE: Inverse mode at  81     Hk =   2.500
 MRCHUE: Inverse mode at  82     Hk =   2.500
 MRCHUE: Inverse mode at  83     Hk =   2.500
 MRCHUE: Inverse mode at  84     Hk =   2.500
 MRCHUE: Inverse mode at  85     Hk =   2.500
 MRCHUE: Inverse mode at  86     Hk =   2.500
 MRCHUE: Inverse mode at  87     Hk =   2.500
 MRCHUE: Inverse mode at  88     Hk =   2.500
 MRCHUE: Inverse mode at  89     Hk =   2.500
 MRCHUE: Inverse mode at  90     Hk =   2.500
 MRCHUE: Inverse mode at  91     Hk =   2.500
 MRCHUE: Inverse mode at  92     Hk =   2.500
 MRCHUE: Inverse mode at  93     Hk =   2.500
 MRCHUE: Inverse mode at  94     Hk =   2.500
 MRCHUE: Inverse mode at  95     Hk =   2.500
 MRCHUE: Inverse mode at  96     Hk =   2.500
 MRCHUE: Inverse mode at  97     Hk =   2.500
 MRCHUE: Convergence failed at  98  side 1    Res =  0.4966E+01
 MRCHUE: Inverse mode at  99     Hk =   2.500
 MRCHUE: Inverse mode at 100     Hk =   2.500
 MRCHUE: Inverse mode at 101     Hk =   2.500
 MRCHUE: Convergence failed at 102  side 1    Res =  0.4714E+01
 MRCHUE: Inverse mode at 103     Hk =   2.500
 MRCHUE: Convergence failed at 104  side 1    Res =  0.7490E+01
    side            2  ...
 MRCHUE: Inverse mode at  57     Hk =   3.800
 MRCHUE: Inverse mode at  58     Hk =   4.019

 MRCHDU: Convergence failed at  98  side 1    Res =  0.1395E+01
 MRCHDU: Convergence failed at  99  side 1    Res =  0.1443E+01
 MRCHDU: Convergence failed at 100  side 1    Res =  0.1493E+01
 MRCHDU: Convergence failed at 101  side 1    Res =  0.1541E+01
 MRCHDU: Convergence failed at 102  side 1    Res =  0.4663E+01
 MRCHDU: Convergence failed at 103  side 1    Res =  0.4606E+01
 MRCHDU: Convergence failed at 104  side 1    Res =  0.3931E+03
 Side 1  free  transition at x/c =  0.0196   36
 Side 2 forced transition at x/c =  1.0000   58

   1   rms: 0.7999E+00   max: 0.3289E+01   D at   61  2   RLX: 0.188
       a = 16.250      CL =  2.4112
      Cm = -0.1757     CD =  0.01279   =>   CDf =  0.00557    CDp =  0.00722

 Side 1  free  transition at x/c =  0.0214   37
 Side 2 forced transition at x/c =  1.0000   58
 idif Ue xi dudx           1  0.11413801      1.51429176E-02   7.5373859    
 Uenew xinew           2  3.49284187E-02  4.63402271E-03

   2   rms: 0.7217E+00   max: 0.2637E+01   D at   64  2   RLX: 0.331
       a = 16.250      CL =  2.2040
      Cm = -0.1331     CD =  0.01914   =>   CDf =  0.00643    CDp =  0.01271

 Side 1  free  transition at x/c =  0.0229   36
 Side 2 forced transition at x/c =  1.0000   59
 idif Ue xi dudx           1  0.10136556      1.21454000E-02   8.3460045    
 Uenew xinew           2  2.47417018E-02  2.96449661E-03

   3   rms: 0.7078E+00   max: 0.2054E+01   D at   68  2   RLX: 0.310
       a = 16.250      CL =  1.9830
      Cm = -0.1002     CD =  0.02753   =>   CDf =  0.00634    CDp =  0.02119

 Side 1  free  transition at x/c =  0.0263   36
 Side 2 forced transition at x/c =  1.0000   60
 idif Ue xi dudx           1  0.12971674      1.24498606E-02   10.419132    
 Uenew xinew           2  4.74962741E-02  4.55856323E-03

   4   rms: 0.6488E+00   max: 0.1827E+01   D at   72  2   RLX: 0.530
       a = 16.250      CL =  1.6741
      Cm = -0.0551     CD =  0.04409   =>   CDf =  0.00653    CDp =  0.03756

 MRCHDU: Convergence failed at  73  side 2    Res =  0.4457E+01
 MRCHDU: Convergence failed at  74  side 2    Res =  0.1023E+01
 Side 1  free  transition at x/c =  0.0294   36
 Side 2 forced transition at x/c =  1.0000   61
 idif Ue xi dudx           1  7.71660805E-02  6.93738461E-03   11.123223    
 Uenew xinew           2  2.12821644E-03  1.91330910E-04

   5   rms: 0.9942E+00   max: -.4805E+01   T at   36  1   RLX: 0.104
       a = 16.250      CL =  1.5774
      Cm = -0.0430     CD =  0.05376   =>   CDf =  0.00655    CDp =  0.04721

 Side 1  free  transition at x/c =  0.0310   35
 Side 2 forced transition at x/c =  1.0000   62

   6   rms: 0.3283E+00   max: -.4383E+01   D at    2  2   RLX: 0.114
       a = 16.250      CL =  1.5437
      Cm = -0.0314     CD =  0.06029   =>   CDf =  0.00563    CDp =  0.05466

 Side 1  free  transition at x/c =  0.0315   35
 Side 2 forced transition at x/c =  1.0000   62

   7   rms: 0.1752E+00   max: -.8225E+00   C at   62  2   RLX: 0.608
       a = 16.250      CL =  1.4348
      Cm = -0.0146     CD =  0.06373   =>   CDf =  0.00565    CDp =  0.05808

 Side 1  free  transition at x/c =  0.0338   35
 Side 2 forced transition at x/c =  1.0000   62

   8   rms: 0.7861E-01   max: -.3047E+00   D at   38  1
       a = 16.250      CL =  1.3973
      Cm = -0.0071     CD =  0.06362   =>   CDf =  0.00585    CDp =  0.05777

 Side 1  free  transition at x/c =  0.0345   36
 Side 2 forced transition at x/c =  1.0000   62
 idif Ue xi dudx           1  8.52660015E-02  6.32011890E-03   13.491202    
 Uenew xinew           2  7.09250011E-03  5.25712967E-04

   9   rms: 0.7453E-01   max: -.2697E+00   T at   74  1
       a = 16.250      CL =  1.3753
      Cm = -0.0130     CD =  0.06979   =>   CDf =  0.00641    CDp =  0.06338

 Side 1  free  transition at x/c =  0.0361   35
 Side 2 forced transition at x/c =  1.0000   63

  10   rms: 0.4086E-01   max: 0.2457E+00   D at   35  1
       a = 16.250      CL =  1.3863
      Cm = -0.0100     CD =  0.06635   =>   CDf =  0.00588    CDp =  0.06047

 Side 1  free  transition at x/c =  0.0350   35
 Side 2 forced transition at x/c =  1.0000   63

  11   rms: 0.2427E-01   max: -.1042E+00   D at   70  1
       a = 16.250      CL =  1.3978
      Cm = -0.0089     CD =  0.06550   =>   CDf =  0.00564    CDp =  0.05986

 Side 1  free  transition at x/c =  0.0345   36
 Side 2 forced transition at x/c =  1.0000   62
 idif Ue xi dudx           1  8.32876936E-02  6.13999367E-03   13.564785    
 Uenew xinew           2  4.68782336E-03  3.45587730E-04

  12   rms: 0.2036E+02   max: -.1855E+03   D at    2  1   RLX: 0.003
       a = 16.250      CL =  1.3819
      Cm = -0.0119     CD =  0.06902   =>   CDf =  0.00640    CDp =  0.06262

 Side 1  free  transition at x/c =  0.0356   35
 Side 2 forced transition at x/c =  1.0000   63

  13   rms: 0.2832E-01   max: 0.1673E+00   T at   35  1
       a = 16.250      CL =  1.3905
      Cm = -0.0098     CD =  0.06632   =>   CDf =  0.00593    CDp =  0.06039

 Side 1  free  transition at x/c =  0.0348   35
 Side 2 forced transition at x/c =  1.0000   63

  14   rms: 0.2314E-01   max: 0.9247E-01   T at   35  1
       a = 16.250      CL =  1.4008
      Cm = -0.0086     CD =  0.06536   =>   CDf =  0.00566    CDp =  0.05970

 Side 1  free  transition at x/c =  0.0344   35
 Side 2 forced transition at x/c =  1.0000   62

  15   rms: 0.3592E-02   max: -.4524E-01   T at    2  1
       a = 16.250      CL =  1.4003
      Cm = -0.0089     CD =  0.06612   =>   CDf =  0.00608    CDp =  0.06004

 Side 1  free  transition at x/c =  0.0344   35
 Side 2 forced transition at x/c =  1.0000   62

  16   rms: 0.9375E-03   max: -.1167E-01   D at    4  1
       a = 16.250      CL =  1.4002
      Cm = -0.0089     CD =  0.06610   =>   CDf =  0.00607    CDp =  0.06003

 Side 1  free  transition at x/c =  0.0344   35
 Side 2 forced transition at x/c =  1.0000   62

  17   rms: 0.1294E-04   max: -.1289E-03   C at   62  2
       a = 16.250      CL =  1.4002
      Cm = -0.0089     CD =  0.06610   =>   CDf =  0.00607    CDp =  0.06003
 plradd ia,ip,cpol            1           0  1.95646251E-04

 Point added to stored polar  1
 Point written to save file  goe479_Re400k.ext.pol                           
 Dump file unspecified or not available
 Calculating wake trajectory ...
 Calculating source influence matrix ...

 Solving BL system ...

 Side 1  free  transition at x/c =  0.0344   35
 Side 2 forced transition at x/c =  1.0000   62

   1   rms: 0.2996E-01   max: 0.1217E+00   T at   35  1   RLX: 0.491
       a = 16.500      CL =  1.4002
      Cm = -0.0093     CD =  0.06787   =>   CDf =  0.00608    CDp =  0.06179

 Side 1  free  transition at x/c =  0.0342   35
 Side 2 forced transition at x/c =  1.0000   62

   2   rms: 0.1514E-01   max: 0.5874E-01   T at   35  1
       a = 16.500      CL =  1.3994
      Cm = -0.0096     CD =  0.06951   =>   CDf =  0.00600    CDp =  0.06351

 Side 1  free  transition at x/c =  0.0340   35
 Side 2 forced transition at x/c =  1.0000   62

   3   rms: 0.1215E-02   max: 0.8165E-02   D at   77  2
       a = 16.500      CL =  1.3985
      Cm = -0.0095     CD =  0.06923   =>   CDf =  0.00592    CDp =  0.06331

 Side 1  free  transition at x/c =  0.0340   35
 Side 2 forced transition at x/c =  1.0000   62

   4   rms: 0.4244E-04   max: -.1843E-03   D at   79  2
       a = 16.500      CL =  1.3985
      Cm = -0.0095     CD =  0.06922   =>   CDf =  0.00592    CDp =  0.06330
 plradd ia,ip,cpol            2           0  1.95646251E-04

 Point added to stored polar  1
 Point written to save file  goe479_Re400k.ext.pol                           
 Dump file unspecified or not available
 Calculating wake trajectory ...
 Calculating source influence matrix ...

 Solving BL system ...

 Side 1  free  transition at x/c =  0.0340   35
 Side 2 forced transition at x/c =  1.0000   62

   1   rms: 0.2996E-01   max: 0.1334E+00   T at   35  1   RLX: 0.477
       a = 16.750      CL =  1.3986
      Cm = -0.0100     CD =  0.07100   =>   CDf =  0.00592    CDp =  0.06507

 Side 1  free  transition at x/c =  0.0338   35
 Side 2 forced transition at x/c =  1.0000   62

   2   rms: 0.1567E-01   max: 0.6521E-01   T at   35  1
       a = 16.750      CL =  1.3978
      Cm = -0.0104     CD =  0.07278   =>   CDf =  0.00585    CDp =  0.06693

 Side 1  free  transition at x/c =  0.0335   35
 Side 2 forced transition at x/c =  1.0000   62

   3   rms: 0.1613E-02   max: 0.1009E-01   D at   78  2
       a = 16.750      CL =  1.3966
      Cm = -0.0103     CD =  0.07250   =>   CDf =  0.00576    CDp =  0.06674

 Side 1  free  transition at x/c =  0.0335   35
 Side 2 forced transition at x/c =  1.0000   62

   4   rms: 0.9330E-04   max: -.3973E-03   D at   71  1
       a = 16.750      CL =  1.3966
      Cm = -0.0103     CD =  0.07249   =>   CDf =  0.00577    CDp =  0.06672
 plradd ia,ip,cpol            3           0  1.95646251E-04

 Point added to stored polar  1
 Point written to save file  goe479_Re400k.ext.pol                           
 Dump file unspecified or not available
 Calculating wake trajectory ...
 Calculating source influence matrix ...

 Solving BL system ...

 Side 1  free  transition at x/c =  0.0335   35
 Side 2 forced transition at x/c =  1.0000   62

   1   rms: 0.2866E-01   max: 0.1189E+00   T at   35  1   RLX: 0.464
       a = 17.000      CL =  1.3977
      Cm = -0.0106     CD =  0.07414   =>   CDf =  0.00577    CDp =  0.06837

 Side 1  free  transition at x/c =  0.0332   35
 Side 2 forced transition at x/c =  1.0000   62

   2   rms: 0.1541E-01   max: 0.5801E-01   T at   35  1
       a = 17.000      CL =  1.3975
      Cm = -0.0111     CD =  0.07596   =>   CDf =  0.00570    CDp =  0.07025

 Side 1  free  transition at x/c =  0.0329   35
 Side 2 forced transition at x/c =  1.0000   62

   3   rms: 0.1809E-02   max: 0.1103E-01   D at   78  2
       a = 17.000      CL =  1.3961
      Cm = -0.0110     CD =  0.07570   =>   CDf =  0.00563    CDp =  0.07007

 Side 1  free  transition at x/c =  0.0329   35
 Side 2 forced transition at x/c =  1.0000   62

   4   rms: 0.9241E-04   max: -.5183E-03   D at   70  1
       a = 17.000      CL =  1.3961
      Cm = -0.0109     CD =  0.07567   =>   CDf =  0.00563    CDp =  0.07004
 plradd ia,ip,cpol            4           0  1.95646251E-04

 Point added to stored polar  1
 Point written to save file  goe479_Re400k.ext.pol                           
 Dump file unspecified or not available
 Calculating wake trajectory ...
 Calculating source influence matrix ...

 Solving BL system ...

 Side 1  free  transition at x/c =  0.0329   35
 Side 2 forced transition at x/c =  1.0000   62

   1   rms: 0.2797E-01   max: 0.1137E+00   T at   35  1   RLX: 0.453
       a = 17.250      CL =  1.3975
      Cm = -0.0113     CD =  0.07727   =>   CDf =  0.00564    CDp =  0.07163

 Side 1  free  transition at x/c =  0.0326   35
 Side 2 forced transition at x/c =  1.0000   62

   2   rms: 0.1530E-01   max: 0.5566E-01   T at   35  1
       a = 17.250      CL =  1.3980
      Cm = -0.0117     CD =  0.07906   =>   CDf =  0.00558    CDp =  0.07348

 Side 1  free  transition at x/c =  0.0323   35
 Side 2 forced transition at x/c =  1.0000   62

   3   rms: 0.2183E-02   max: 0.1376E-01   D at   78  2
       a = 17.250      CL =  1.3963
      Cm = -0.0116     CD =  0.07885   =>   CDf =  0.00551    CDp =  0.07334

 Side 1  free  transition at x/c =  0.0323   35
 Side 2 forced transition at x/c =  1.0000   62

   4   rms: 0.1052E-03   max: 0.1584E-02   D at   78  2
       a = 17.250      CL =  1.3963
      Cm = -0.0116     CD =  0.07881   =>   CDf =  0.00551    CDp =  0.07329

 Side 1  free  transition at x/c =  0.0323   35
 Side 2 forced transition at x/c =  1.0000   62

   5   rms: 0.7600E-05   max: 0.5513E-04   C at   62  2
       a = 17.250      CL =  1.3963
      Cm = -0.0116     CD =  0.07881   =>   CDf =  0.00551    CDp =  0.07329
 plradd ia,ip,cpol            5           0  1.95646251E-04

 Point added to stored polar  1
 Point written to save file  goe479_Re400k.ext.pol                           
 Dump file unspecified or not available
 Calculating wake trajectory ...
 Calculating source influence matrix ...

 Solving BL system ...

 Side 1  free  transition at x/c =  0.0323   35
 Side 2 forced transition at x/c =  1.0000   62

   1   rms: 0.2790E-01   max: 0.1119E+00   T at   35  1   RLX: 0.441
       a = 17.500      CL =  1.3974
      Cm = -0.0120     CD =  0.08042   =>   CDf =  0.00552    CDp =  0.07491

 Side 1  free  transition at x/c =  0.0320   35
 Side 2 forced transition at x/c =  1.0000   62

   2   rms: 0.1548E-01   max: 0.5941E-01   T at   35  1
       a = 17.500      CL =  1.3972
      Cm = -0.0126     CD =  0.08238   =>   CDf =  0.00547    CDp =  0.07692

 Side 1  free  transition at x/c =  0.0315   35
 Side 2 forced transition at x/c =  1.0000   62

   3   rms: 0.2929E-02   max: 0.1288E-01   D at   78  2
       a = 17.500      CL =  1.3953
      Cm = -0.0126     CD =  0.08214   =>   CDf =  0.00541    CDp =  0.07673

 Side 1  free  transition at x/c =  0.0316   35
 Side 2 forced transition at x/c =  1.0000   62

   4   rms: 0.3738E-03   max: -.1771E-02   D at   68  1
       a = 17.500      CL =  1.3955
      Cm = -0.0125     CD =  0.08208   =>   CDf =  0.00541    CDp =  0.07667

 Side 1  free  transition at x/c =  0.0316   35
 Side 2 forced transition at x/c =  1.0000   62

   5   rms: 0.4533E-04   max: -.2871E-03   D at   78  2
       a = 17.500      CL =  1.3956
      Cm = -0.0125     CD =  0.08209   =>   CDf =  0.00541    CDp =  0.07668
 plradd ia,ip,cpol            6           0  1.95646251E-04

 Point added to stored polar  1
 Point written to save file  goe479_Re400k.ext.pol                           
 Dump file unspecified or not available
 Calculating wake trajectory ...
 Calculating source influence matrix ...

 Solving BL system ...

 Side 1  free  transition at x/c =  0.0316   35
 Side 2 forced transition at x/c =  1.0000   62

   1   rms: 0.2871E-01   max: 0.1001E+00   T at   35  1   RLX: 0.430
       a = 17.750      CL =  1.3965
      Cm = -0.0130     CD =  0.08373   =>   CDf =  0.00542    CDp =  0.07831

 Side 1  free  transition at x/c =  0.0314   35
 Side 2 forced transition at x/c =  1.0000   62

   2   rms: 0.1617E-01   max: 0.5318E-01   T at   35  1
       a = 17.750      CL =  1.3970
      Cm = -0.0135     CD =  0.08570   =>   CDf =  0.00537    CDp =  0.08032

 Side 1  free  transition at x/c =  0.0310   35
 Side 2 forced transition at x/c =  1.0000   62

   3   rms: 0.2206E-02   max: 0.1115E-01   D at   78  2
       a = 17.750      CL =  1.3953
      Cm = -0.0134     CD =  0.08542   =>   CDf =  0.00532    CDp =  0.08010

 Side 1  free  transition at x/c =  0.0311   35
 Side 2 forced transition at x/c =  1.0000   62

   4   rms: 0.8336E-04   max: -.5985E-03   C at   62  2
       a = 17.750      CL =  1.3953
      Cm = -0.0134     CD =  0.08537   =>   CDf =  0.00531    CDp =  0.08006
 plradd ia,ip,cpol            7           0  1.95646251E-04

 Point added to stored polar  1
 Point written to save file  goe479_Re400k.ext.pol                           
 Dump file unspecified or not available
 Calculating wake trajectory ...
 Calculating source influence matrix ...

 Solving BL system ...

 Side 1  free  transition at x/c =  0.0311   35
 Side 2 forced transition at x/c =  1.0000   62

   1   rms: 0.2727E-01   max: 0.9454E-01   T at   35  1   RLX: 0.420
       a = 18.000      CL =  1.3964
      Cm = -0.0138     CD =  0.08694   =>   CDf =  0.00532    CDp =  0.08163

 Side 1  free  transition at x/c =  0.0309   35
 Side 2 forced transition at x/c =  1.0000   62

   2   rms: 0.1560E-01   max: 0.5273E-01   T at   35  1
       a = 18.000      CL =  1.3973
      Cm = -0.0143     CD =  0.08893   =>   CDf =  0.00528    CDp =  0.08365

 Side 1  free  transition at x/c =  0.0306   35
 Side 2 forced transition at x/c =  1.0000   62

   3   rms: 0.2207E-02   max: 0.1084E-01   D at   79  2
       a = 18.000      CL =  1.3957
      Cm = -0.0143     CD =  0.08861   =>   CDf =  0.00523    CDp =  0.08338

 Side 1  free  transition at x/c =  0.0306   35
 Side 2 forced transition at x/c =  1.0000   62

   4   rms: 0.1987E-03   max: -.9858E-03   D at   67  1
       a = 18.000      CL =  1.3958
      Cm = -0.0142     CD =  0.08857   =>   CDf =  0.00523    CDp =  0.08334

 Side 1  free  transition at x/c =  0.0306   35
 Side 2 forced transition at x/c =  1.0000   62

   5   rms: 0.3124E-04   max: -.1622E-03   D at   78  2
       a = 18.000      CL =  1.3958
      Cm = -0.0142     CD =  0.08857   =>   CDf =  0.00523    CDp =  0.08334
 plradd ia,ip,cpol            8           0  1.95646251E-04

 Point added to stored polar  1
 Point written to save file  goe479_Re400k.ext.pol                           
 Dump file unspecified or not available

.OPERva   c>   Calculating wake trajectory ...
 Calculating source influence matrix ...

 Solving BL system ...

 Side 1  free  transition at x/c =  0.0306   35
 Side 2 forced transition at x/c =  1.0000   62

   1   rms: 0.2758E-01   max: 0.1285E+00   T at   35  1   RLX: 0.411
       a = 18.250      CL =  1.3969
      Cm = -0.0147     CD =  0.09014   =>   CDf =  0.00484    CDp =  0.08530

 Side 1  free  transition at x/c =  0.0303   36
 Side 2 forced transition at x/c =  1.0000   61

   2   rms: 0.5105E-01   max: 0.8371E+00   D at    2  1
       a = 18.250      CL =  1.3981
      Cm = -0.0154     CD =  0.09207   =>   CDf =  0.00521    CDp =  0.08687

 Side 1  free  transition at x/c =  0.0300   36
 Side 2 forced transition at x/c =  1.0000   61

   3   rms: 0.3501E-02   max: 0.3685E-01   D at    4  1
       a = 18.250      CL =  1.3971
      Cm = -0.0152     CD =  0.09158   =>   CDf =  0.00518    CDp =  0.08640

 Side 1  free  transition at x/c =  0.0300   36
 Side 2 forced transition at x/c =  1.0000   61

   4   rms: 0.4984E-03   max: -.1622E-02   D at   67  1
       a = 18.250      CL =  1.3974
      Cm = -0.0152     CD =  0.09157   =>   CDf =  0.00519    CDp =  0.08638

 Side 1  free  transition at x/c =  0.0300   36
 Side 2 forced transition at x/c =  1.0000   61

   5   rms: 0.6009E-04   max: -.3439E-03   D at   78  2
       a = 18.250      CL =  1.3975
      Cm = -0.0152     CD =  0.09158   =>   CDf =  0.00519    CDp =  0.08639
 plradd ia,ip,cpol            9           0 -1.94352411E-04

 Point added to stored polar  1
 Point written to save file  goe479_Re400k.ext.pol                           
 Dump file unspecified or not available
 Calculating wake trajectory ...
 Calculating source influence matrix ...

 Solving BL system ...

 Side 1  free  transition at x/c =  0.0300   36
 Side 2 forced transition at x/c =  1.0000   61

   1   rms: 0.5497E-01   max: 0.3049E+00   T at   36  1   RLX: 0.396
       a = 18.750      CL =  1.4019
      Cm = -0.0157     CD =  0.09403   =>   CDf =  0.00520    CDp =  0.08883

 Side 1  free  transition at x/c =  0.0295   36
 Side 2 forced transition at x/c =  1.0000   61

   2   rms: 0.4851E-01   max: 0.3251E+00   T at   36  1
       a = 18.750      CL =  1.4204
      Cm = -0.0138     CD =  0.09415   =>   CDf =  0.00518    CDp =  0.08896

 Side 1  free  transition at x/c =  0.0287   35
 Side 2 forced transition at x/c =  1.0000   61

   3   rms: 0.4831E-01   max: 0.2583E+00   D at   68  1
       a = 18.750      CL =  1.4014
      Cm = -0.0169     CD =  0.09986   =>   CDf =  0.00506    CDp =  0.09481

 Side 1  free  transition at x/c =  0.0287   35
 Side 2 forced transition at x/c =  1.0000   61

   4   rms: 0.7777E-02   max: 0.5533E-01   D at   67  1
       a = 18.750      CL =  1.3991
      Cm = -0.0165     CD =  0.09821   =>   CDf =  0.00504    CDp =  0.09317

 Side 1  free  transition at x/c =  0.0287   35
 Side 2 forced transition at x/c =  1.0000   61

   5   rms: 0.9169E-03   max: 0.6419E-02   D at   78  2
       a = 18.750      CL =  1.3985
      Cm = -0.0164     CD =  0.09796   =>   CDf =  0.00503    CDp =  0.09292

 Side 1  free  transition at x/c =  0.0287   35
 Side 2 forced transition at x/c =  1.0000   61

   6   rms: 0.3494E-04   max: 0.3001E-03   D at   77  2
       a = 18.750      CL =  1.3985
      Cm = -0.0164     CD =  0.09794   =>   CDf =  0.00504    CDp =  0.09290
 plradd ia,ip,cpol           10           0  1.95646251E-04

 Point added to stored polar  1
 Point written to save file  goe479_Re400k.ext.pol                           
 Dump file unspecified or not available
 Calculating wake trajectory ...
 Calculating source influence matrix ...

 Solving BL system ...

 Side 1  free  transition at x/c =  0.0287   35
 Side 2 forced transition at x/c =  1.0000   61

   1   rms: 0.6452E-01   max: 0.2785E+00   D at   64  1   RLX: 0.372
       a = 19.250      CL =  1.3925
      Cm = -0.0186     CD =  0.10272   =>   CDf =  0.00504    CDp =  0.09768

 Side 1  free  transition at x/c =  0.0285   35
 Side 2 forced transition at x/c =  1.0000   61

   2   rms: 0.3897E-01   max: 0.1681E+00   D at   65  1
       a = 19.250      CL =  1.3833
      Cm = -0.0217     CD =  0.10978   =>   CDf =  0.00490    CDp =  0.10488

 Side 1  free  transition at x/c =  0.0279   35
 Side 2 forced transition at x/c =  1.0000   61

   3   rms: 0.6269E-02   max: 0.3812E-01   D at   64  1
       a = 19.250      CL =  1.3790
      Cm = -0.0214     CD =  0.10832   =>   CDf =  0.00466    CDp =  0.10367

 Side 1  free  transition at x/c =  0.0280   35
 Side 2 forced transition at x/c =  1.0000   61

   4   rms: 0.4238E-03   max: -.1629E-02   D at   65  1
       a = 19.250      CL =  1.3793
      Cm = -0.0213     CD =  0.10822   =>   CDf =  0.00467    CDp =  0.10355

 Side 1  free  transition at x/c =  0.0279   35
 Side 2 forced transition at x/c =  1.0000   61

   5   rms: 0.4065E-04   max: -.2746E-03   D at   78  2
       a = 19.250      CL =  1.3793
      Cm = -0.0214     CD =  0.10824   =>   CDf =  0.00467    CDp =  0.10357
 plradd ia,ip,cpol           11           0 -1.94352411E-04

 Point added to stored polar  1
 Point written to save file  goe479_Re400k.ext.pol                           
 Dump file unspecified or not available
 Calculating wake trajectory ...
 Calculating source influence matrix ...

 Solving BL system ...

 Side 1  free  transition at x/c =  0.0279   35
 Side 2 forced transition at x/c =  1.0000   61

   1   rms: 0.5963E-01   max: 0.2571E+00   D at   61  1   RLX: 0.354
       a = 19.750      CL =  1.3754
      Cm = -0.0233     CD =  0.11274   =>   CDf =  0.00468    CDp =  0.10807

 Side 1  free  transition at x/c =  0.0276   35
 Side 2 forced transition at x/c =  1.0000   61

   2   rms: 0.3891E-01   max: 0.1685E+00   D at   63  1
       a = 19.750      CL =  1.3671
      Cm = -0.0267     CD =  0.12046   =>   CDf =  0.00455    CDp =  0.11591

 Side 1  free  transition at x/c =  0.0269   35
 Side 2 forced transition at x/c =  1.0000   61

   3   rms: 0.7284E-02   max: 0.3924E-01   D at   62  1
       a = 19.750      CL =  1.3624
      Cm = -0.0265     CD =  0.11867   =>   CDf =  0.00434    CDp =  0.11433

 Side 1  free  transition at x/c =  0.0271   35
 Side 2 forced transition at x/c =  1.0000   61

   4   rms: 0.7929E-03   max: -.3267E-02   D at   63  1
       a = 19.750      CL =  1.3628
      Cm = -0.0265     CD =  0.11840   =>   CDf =  0.00435    CDp =  0.11405

 Side 1  free  transition at x/c =  0.0270   35
 Side 2 forced transition at x/c =  1.0000   61

   5   rms: 0.1241E-03   max: -.6155E-03   D at   78  2
       a = 19.750      CL =  1.3629
      Cm = -0.0265     CD =  0.11843   =>   CDf =  0.00436    CDp =  0.11408

 Side 1  free  transition at x/c =  0.0270   35
 Side 2 forced transition at x/c =  1.0000   61

   6   rms: 0.8512E-05   max: -.6901E-04   D at   78  2
       a = 19.750      CL =  1.3629
      Cm = -0.0265     CD =  0.11844   =>   CDf =  0.00436    CDp =  0.11408
 plradd ia,ip,cpol           12           0 -1.94352411E-04

 Point added to stored polar  1
 Point written to save file  goe479_Re400k.ext.pol                           
 Dump file unspecified or not available
 Calculating wake trajectory ...
 Calculating source influence matrix ...

 Solving BL system ...

 Side 1  free  transition at x/c =  0.0270   35
 Side 2 forced transition at x/c =  1.0000   61

   1   rms: 0.5589E-01   max: 0.2442E+00   D at   59  1   RLX: 0.337
       a = 20.250      CL =  1.3600
      Cm = -0.0284     CD =  0.12270   =>   CDf =  0.00436    CDp =  0.11833

 Side 1  free  transition at x/c =  0.0267   35
 Side 2 forced transition at x/c =  1.0000   61

   2   rms: 0.3559E-01   max: 0.1507E+00   D at   60  1
       a = 20.250      CL =  1.3551
      Cm = -0.0319     CD =  0.13006   =>   CDf =  0.00427    CDp =  0.12579

 Side 1  free  transition at x/c =  0.0260   35
 Side 2 forced transition at x/c =  1.0000   61

   3   rms: 0.6863E-02   max: 0.3348E-01   D at   79  2
       a = 20.250      CL =  1.3511
      Cm = -0.0317     CD =  0.12806   =>   CDf =  0.00413    CDp =  0.12394

 Side 1  free  transition at x/c =  0.0261   35
 Side 2 forced transition at x/c =  1.0000   61

   4   rms: 0.9493E-03   max: -.3407E-02   D at   61  1
       a = 20.250      CL =  1.3516
      Cm = -0.0316     CD =  0.12783   =>   CDf =  0.00414    CDp =  0.12370

 Side 1  free  transition at x/c =  0.0261   35
 Side 2 forced transition at x/c =  1.0000   61

   5   rms: 0.1713E-03   max: -.7953E-03   D at   79  2
       a = 20.250      CL =  1.3517
      Cm = -0.0316     CD =  0.12787   =>   CDf =  0.00414    CDp =  0.12373

 Side 1  free  transition at x/c =  0.0261   35
 Side 2 forced transition at x/c =  1.0000   61

   6   rms: 0.1461E-04   max: -.1048E-03   D at   79  2
       a = 20.250      CL =  1.3517
      Cm = -0.0316     CD =  0.12788   =>   CDf =  0.00414    CDp =  0.12374
 plradd ia,ip,cpol           13           0 -1.94352411E-04

 Point added to stored polar  1
 Point written to save file  goe479_Re400k.ext.pol                           
 Dump file unspecified or not available
 Calculating wake trajectory ...
 Calculating source influence matrix ...

 Solving BL system ...

 Side 1  free  transition at x/c =  0.0261   35
 Side 2 forced transition at x/c =  1.0000   61

   1   rms: 0.5401E-01   max: 0.2398E+00   D at   57  1   RLX: 0.323
       a = 20.750      CL =  1.3491
      Cm = -0.0336     CD =  0.13205   =>   CDf =  0.00415    CDp =  0.12790

 Side 1  free  transition at x/c =  0.0258   35
 Side 2 forced transition at x/c =  1.0000   61

   2   rms: 0.3429E-01   max: 0.1429E+00   D at   58  1
       a = 20.750      CL =  1.3461
      Cm = -0.0373     CD =  0.13931   =>   CDf =  0.00408    CDp =  0.13524

 Side 1  free  transition at x/c =  0.0252   35
 Side 2 forced transition at x/c =  1.0000   61

   3   rms: 0.7970E-02   max: -.3139E-01   T at   35  1
       a = 20.750      CL =  1.3414
      Cm = -0.0372     CD =  0.13741   =>   CDf =  0.00396    CDp =  0.13345

 Side 1  free  transition at x/c =  0.0253   35
 Side 2 forced transition at x/c =  1.0000   61

   4   rms: 0.1755E-02   max: -.7316E-02   D at   59  1
       a = 20.750      CL =  1.3423
      Cm = -0.0370     CD =  0.13705   =>   CDf =  0.00396    CDp =  0.13309

 Side 1  free  transition at x/c =  0.0253   35
 Side 2 forced transition at x/c =  1.0000   61

   5   rms: 0.3747E-03   max: -.1448E-02   D at   81  2
       a = 20.750      CL =  1.3425
      Cm = -0.0370     CD =  0.13711   =>   CDf =  0.00397    CDp =  0.13314

 Side 1  free  transition at x/c =  0.0253   35
 Side 2 forced transition at x/c =  1.0000   61

   6   rms: 0.5065E-04   max: -.2485E-03   D at   78  2
       a = 20.750      CL =  1.3425
      Cm = -0.0370     CD =  0.13712   =>   CDf =  0.00397    CDp =  0.13315
 plradd ia,ip,cpol           14           0 -1.94352411E-04

 Point added to stored polar  1
 Point written to save file  goe479_Re400k.ext.pol                           
 Dump file unspecified or not available
 Calculating wake trajectory ...
 Calculating source influence matrix ...

 Solving BL system ...

 Side 1  free  transition at x/c =  0.0253   35
 Side 2 forced transition at x/c =  1.0000   61

   1   rms: 0.4835E-01   max: 0.2350E+00   T at   35  1   RLX: 0.312
       a = 21.250      CL =  1.3425
      Cm = -0.0386     CD =  0.14044   =>   CDf =  0.00398    CDp =  0.13646

 Side 1  free  transition at x/c =  0.0251   35
 Side 2 forced transition at x/c =  1.0000   61

   2   rms: 0.3248E-01   max: 0.1880E+00   T at   35  1
       a = 21.250      CL =  1.3479
      Cm = -0.0410     CD =  0.14537   =>   CDf =  0.00354    CDp =  0.14183

 Side 1  free  transition at x/c =  0.0245   36
 Side 2 forced transition at x/c =  1.0000   60

   3   rms: 0.1322E-01   max: 0.7039E-01   T at   36  1
       a = 21.250      CL =  1.3430
      Cm = -0.0402     CD =  0.14323   =>   CDf =  0.00387    CDp =  0.13935

 Side 1  free  transition at x/c =  0.0243   35
 Side 2 forced transition at x/c =  1.0000   60

   4   rms: 0.1089E-01   max: 0.5681E-01   D at   59  1
       a = 21.250      CL =  1.3414
      Cm = -0.0411     CD =  0.14533   =>   CDf =  0.00391    CDp =  0.14141

 Side 1  free  transition at x/c =  0.0243   35
 Side 2 forced transition at x/c =  1.0000   60

   5   rms: 0.1828E-02   max: 0.9557E-02   D at   80  2
       a = 21.250      CL =  1.3405
      Cm = -0.0409     CD =  0.14460   =>   CDf =  0.00389    CDp =  0.14071

 Side 1  free  transition at x/c =  0.0243   35
 Side 2 forced transition at x/c =  1.0000   60

   6   rms: 0.1217E-03   max: 0.1158E-02   D at   79  2
       a = 21.250      CL =  1.3405
      Cm = -0.0409     CD =  0.14446   =>   CDf =  0.00389    CDp =  0.14057

 Side 1  free  transition at x/c =  0.0243   35
 Side 2 forced transition at x/c =  1.0000   60

   7   rms: 0.6575E-05   max: 0.4475E-04   C at   60  2
       a = 21.250      CL =  1.3405
      Cm = -0.0409     CD =  0.14446   =>   CDf =  0.00390    CDp =  0.14057
 plradd ia,ip,cpol           15           0 -1.94352411E-04

 Point added to stored polar  1
 Point written to save file  goe479_Re400k.ext.pol                           
 Dump file unspecified or not available
 Calculating wake trajectory ...
 Calculating source influence matrix ...

 Solving BL system ...

 Side 1  free  transition at x/c =  0.0243   35
 Side 2 forced transition at x/c =  1.0000   60

   1   rms: 0.9028E-01   max: 0.4204E+00   D at   56  1   RLX: 0.295
       a = 21.750      CL =  1.3303
      Cm = -0.0445     CD =  0.15129   =>   CDf =  0.00390    CDp =  0.14739

 Side 1  free  transition at x/c =  0.0242   35
 Side 2 forced transition at x/c =  1.0000   60

   2   rms: 0.7021E-01   max: 0.3202E+00   D at   57  1
       a = 21.750      CL =  1.3045
      Cm = -0.0532     CD =  0.16734   =>   CDf =  0.00376    CDp =  0.16358

 Side 1  free  transition at x/c =  0.0239   35
 Side 2 forced transition at x/c =  1.0000   60
 idif Ue xi dudx           1  7.76023567E-02  7.96401501E-03   9.7441244    
 Uenew xinew           2  7.08570005E-04  7.27176666E-05

   3   rms: 0.1415E-01   max: 0.1288E+00   D at   56  1
       a = 21.750      CL =  1.2982
      Cm = -0.0527     CD =  0.16238   =>   CDf =  0.00379    CDp =  0.15859

 Side 1  free  transition at x/c =  0.0240   34
 Side 2 forced transition at x/c =  1.0000   61

   4   rms: 0.3078E-02   max: -.4955E-01   T at    2  2
       a = 21.750      CL =  1.2983
      Cm = -0.0526     CD =  0.16171   =>   CDf =  0.00346    CDp =  0.15825

 Side 1  free  transition at x/c =  0.0240   34
 Side 2 forced transition at x/c =  1.0000   61

   5   rms: 0.3394E-03   max: 0.3938E-02   D at    4  2
       a = 21.750      CL =  1.2983
      Cm = -0.0526     CD =  0.16170   =>   CDf =  0.00346    CDp =  0.15824

 Side 1  free  transition at x/c =  0.0240   34
 Side 2 forced transition at x/c =  1.0000   61

   6   rms: 0.3286E-05   max: 0.4142E-04   C at   61  2
       a = 21.750      CL =  1.2983
      Cm = -0.0526     CD =  0.16170   =>   CDf =  0.00346    CDp =  0.15824
 plradd ia,ip,cpol           16           0 -1.94352411E-04

 Point added to stored polar  1
 Point written to save file  goe479_Re400k.ext.pol                           
 Dump file unspecified or not available
 Calculating wake trajectory ...
 Calculating source influence matrix ...

 Solving BL system ...

 Side 1  free  transition at x/c =  0.0240   34
 Side 2 forced transition at x/c =  1.0000   61

   1   rms: 0.1203E+00   max: 0.5511E+00   D at   52  1   RLX: 0.278
       a = 22.250      CL =  1.2858
      Cm = -0.0568     CD =  0.17000   =>   CDf =  0.00347    CDp =  0.16653

 Side 1  free  transition at x/c =  0.0238   34
 Side 2 forced transition at x/c =  1.0000   61

   2   rms: 0.1068E+00   max: 0.4668E+00   D at   53  1
       a = 22.250      CL =  1.2483
      Cm = -0.0690     CD =  0.19349   =>   CDf =  0.00332    CDp =  0.19017

 Side 1  free  transition at x/c =  0.0236   34
 Side 2 forced transition at x/c =  1.0000   61

   3   rms: 0.6552E-01   max: 0.3974E+00   D at   52  1
       a = 22.250      CL =  1.2232
      Cm = -0.0726     CD =  0.19601   =>   CDf =  0.00298    CDp =  0.19303

 Side 1  free  transition at x/c =  0.0238   34
 Side 2 forced transition at x/c =  1.0000   61

   4   rms: 0.2210E-01   max: -.1071E+00   D at   46  1
       a = 22.250      CL =  1.2274
      Cm = -0.0700     CD =  0.18670   =>   CDf =  0.00290    CDp =  0.18380

 Side 1  free  transition at x/c =  0.0239   34
 Side 2 forced transition at x/c =  1.0000   61

   5   rms: 0.6771E-02   max: 0.3157E-01   D at   49  1
       a = 22.250      CL =  1.2259
      Cm = -0.0706     CD =  0.18801   =>   CDf =  0.00296    CDp =  0.18505

 Side 1  free  transition at x/c =  0.0239   34
 Side 2 forced transition at x/c =  1.0000   61

   6   rms: 0.5767E-03   max: -.2295E-02   C at   61  2
       a = 22.250      CL =  1.2257
      Cm = -0.0706     CD =  0.18795   =>   CDf =  0.00294    CDp =  0.18501

 Side 1  free  transition at x/c =  0.0239   34
 Side 2 forced transition at x/c =  1.0000   61

   7   rms: 0.1619E-03   max: -.6028E-03   D at   48  1
       a = 22.250      CL =  1.2258
      Cm = -0.0706     CD =  0.18784   =>   CDf =  0.00295    CDp =  0.18490

 Side 1  free  transition at x/c =  0.0239   34
 Side 2 forced transition at x/c =  1.0000   61

   8   rms: 0.4257E-04   max: 0.1850E-03   D at   47  1
       a = 22.250      CL =  1.2258
      Cm = -0.0706     CD =  0.18786   =>   CDf =  0.00295    CDp =  0.18492
 plradd ia,ip,cpol           17           0 -1.94352411E-04

 Point added to stored polar  1
 Point written to save file  goe479_Re400k.ext.pol                           
 Dump file unspecified or not available

.OPERva   c>  
 Polar accumulation disabled

.OPERv   c>  
 XFOIL   c>  
 XFOIL   c>  