
 ===================================================
  XFOIL Version 6.99
  Copyright (C) 2000   Mark Drela, Harold Youngren

  This software comes with ABSOLUTELY NO WARRANTY,
    subject to the GNU General Public License.

  Caveat computor
 ===================================================

 File  xfoil.def  not found

   QUIT    Exit program

  .OPER    Direct operating point(s)
  .MDES    Complex mapping design routine
  .QDES    Surface speed design routine
  .GDES    Geometry design routine

   SAVE f  Write airfoil to labeled coordinate file
   PSAV f  Write airfoil to plain coordinate file
   ISAV f  Write airfoil to ISES coordinate file
   MSAV f  Write airfoil to MSES coordinate file
   REVE    Reverse written-airfoil node ordering

   LOAD f  Read buffer airfoil from coordinate file
   NACA i  Set NACA 4,5-digit airfoil and buffer airfoil
   INTE    Set buffer airfoil by interpolating two airfoils
   NORM    Buffer airfoil normalization toggle
   XYCM rr Change CM reference location, currently  0.25000 0.00000

   BEND    Display structural properties of current airfoil

   PCOP    Set current-airfoil panel nodes directly from buffer airfoil points
   PANE    Set current-airfoil panel nodes ( 160 ) based on curvature
  .PPAR    Show/change paneling

  .PLOP    Plotting options

   WDEF f  Write  current-settings file
   RDEF f  Reread current-settings file
   NAME s  Specify new airfoil name
   NINC    Increment name version number

   Z       Zoom    | (available in all menus)
   U       Unzoom  | 

 XFOIL   c>  
 Labeled airfoil file.  Name:  GOE 451 AIRFOIL                                 

 Number of input coordinate points:  33
 Counterclockwise ordering
 Max thickness =     0.044011  at x =   0.300
 Max camber    =     0.055105  at x =   0.400

  LE  x,y  =  -0.00019   0.00099  |   Chord =   1.00019
  TE  x,y  =   1.00000   0.00000  |

 Current airfoil nodes set from buffer airfoil nodes (  33 )

 WARNING: Poor input coordinate distribution
          Excessive panel angle   88.0  at i =  16
          Repaneling with PANE and/or PPAR suggested
           (doing GDES,CADD before repaneling _may_
            improve excessively coarse LE spacing

 XFOIL   c>  
 XFOIL   c>  
 Sharp trailing edge

 Paneling parameters used...
   Number of panel nodes       160
   Panel bunching parameter    1.000
   TE/LE panel density ratio   0.150
   Refined-area/LE panel density ratio    0.200
   Top    side refined area x/c limits  1.000 1.000
   Bottom side refined area x/c limits  1.000 1.000

 XFOIL   c>  
.OPERi   c>  
 Xtr/c     =  1.0000    top    side
 Xtr/c     =  1.0000    bottom side
 Ncrit     =    9.00   ( 0.070 % turb. level )
 Vacc      =  0.0100

 Klag  =  5.6000     Uxwt  =    1.00
 A     =  6.7000     B     =  0.7500       KCt = 0.01485
 CtiniK=  1.8000     CtiniX=  3.3000

..VPAR   c>  
..VPAR   c>  
.OPERi   c>  
 M  =    0.0000
 Re =    600000

.OPERv   c>  
.OPERv   c>  
.OPERv   c>  
 Polar  1 newly created for accumulation
 Airfoil archived with polar: GOE 451 AIRFOIL                                 

Enter  polar save filename  OR  <return> for no file   s>  
 New polar save file available

Enter  polar dump filename  OR  <return> for no file   s>  
 Polar dump file will NOT be written

 Polar accumulation enabled

.OPERva   c>   Calculating unit vorticity distributions ...
 Calculating wake trajectory ...
 Calculating source influence matrix ...

 Solving BL system ...

 Initializing BL ...
    side            1  ...
 MRCHUE: Inverse mode at   3     Hk =  18.322
 MRCHUE: Inverse mode at   4     Hk =   2.500
 MRCHUE: Inverse mode at   5     Hk =   2.500
 MRCHUE: Convergence failed at   6  side 1    Res =  0.3033E+04
 MRCHUE: Convergence failed at   7  side 1    Res =  0.2887E+01
 MRCHUE: Inverse mode at   8     Hk =   2.500
 MRCHUE: Inverse mode at   9     Hk =   2.500
    side            2  ...
 TRCHEK2: N2 convergence failed.
 x:  0.01161  0.02083  0.02083  N:  0.000  9.000    NaN  Nx:     NaN   dN:       NaN
 MRCHUE: Inverse mode at   4     Hk =  18.210
 TRCHEK2: N2 convergence failed.
 x:  0.01161  0.02083  0.02083  N:  0.000  9.000    NaN  Nx:     NaN   dN:       NaN
 TRCHEK2: N2 convergence failed.
 x:  0.01161  0.02083  0.02083  N:  0.000  9.000    NaN  Nx:     NaN   dN:       NaN
 TRCHEK2: N2 convergence failed.
 x:  0.01161  0.02083  0.02083  N:  0.000  9.000    NaN  Nx:     NaN   dN:       NaN
 TRCHEK2: N2 convergence failed.
 x:  0.01161  0.02083  0.02083  N:  0.000  9.000    NaN  Nx:     NaN   dN:       NaN
 TRCHEK2: N2 convergence failed.
 x:  0.01161  0.02083  0.02083  N:  0.000  9.000    NaN  Nx:     NaN   dN:       NaN
 TRCHEK2: N2 convergence failed.
 x:  0.01161  0.02083  0.02083  N:  0.000  9.000    NaN  Nx:     NaN   dN:       NaN
 TRCHEK2: N2 convergence failed.
 x:  0.01161  0.02083  0.02083  N:  0.000  9.000    NaN  Nx:     NaN   dN:       NaN
 TRCHEK2: N2 convergence failed.
 x:  0.01161  0.02083  0.02083  N:  0.000  9.000    NaN  Nx:     NaN   dN:       NaN
 TRCHEK2: N2 convergence failed.
 x:  0.01161  0.02083  0.02083  N:  0.000  9.000    NaN  Nx:     NaN   dN:       NaN
 TRCHEK2: N2 convergence failed.
 x:  0.01161  0.02083  0.02083  N:  0.000  9.000    NaN  Nx:     NaN   dN:       NaN
 TRCHEK2: N2 convergence failed.
 x:  0.01161  0.02083  0.02083  N:  0.000  9.000    NaN  Nx:     NaN   dN:       NaN
 TRCHEK2: N2 convergence failed.
 x:  0.01161  0.02083  0.02083  N:  0.000  9.000    NaN  Nx:     NaN   dN:       NaN
 TRCHEK2: N2 convergence failed.
 x:  0.01161  0.02083  0.02083  N:  0.000  9.000    NaN  Nx:     NaN   dN:       NaN
 TRCHEK2: N2 convergence failed.
 x:  0.01161  0.02083  0.02083  N:  0.000  9.000    NaN  Nx:     NaN   dN:       NaN
 TRCHEK2: N2 convergence failed.
 x:  0.01161  0.02083  0.02083  N:  0.000  9.000    NaN  Nx:     NaN   dN:       NaN
 TRCHEK2: N2 convergence failed.
 x:  0.01161  0.02083  0.02083  N:  0.000  9.000    NaN  Nx:     NaN   dN:       NaN
 TRCHEK2: N2 convergence failed.
 x:  0.01161  0.02083  0.02083  N:  0.000  9.000    NaN  Nx:     NaN   dN:       NaN
 TRCHEK2: N2 convergence failed.
 x:  0.01161  0.02083  0.02083  N:  0.000  9.000    NaN  Nx:     NaN   dN:       NaN
 TRCHEK2: N2 convergence failed.
 x:  0.01161  0.02083  0.02083  N:  0.000  9.000    NaN  Nx:     NaN   dN:       NaN
 TRCHEK2: N2 convergence failed.
 x:  0.01161  0.02083  0.02083  N:  0.000  9.000    NaN  Nx:     NaN   dN:       NaN
 TRCHEK2: N2 convergence failed.
 x:  0.01161  0.02083  0.02083  N:  0.000  9.000    NaN  Nx:     NaN   dN:       NaN
 TRCHEK2: N2 convergence failed.
 x:  0.01161  0.02083  0.02083  N:  0.000  9.000    NaN  Nx:     NaN   dN:       NaN
 TRCHEK2: N2 convergence failed.
 x:  0.01161  0.02083  0.02083  N:  0.000  9.000    NaN  Nx:     NaN   dN:       NaN
 TRCHEK2: N2 convergence failed.
 x:  0.01161  0.02083  0.02083  N:  0.000  9.000    NaN  Nx:     NaN   dN:       NaN
 MRCHUE: Convergence failed at   4  side 2    Res =         NaN
 MRCHUE: Inverse mode at   5     Hk =  12.656
 MRCHUE: Inverse mode at   6     Hk =   2.500
 MRCHUE: Inverse mode at   7     Hk =   2.500
 MRCHUE: Convergence failed at   7  side 2    Res =         NaN
 MRCHUE: Inverse mode at   8     Hk =   2.500
 MRCHUE: Convergence failed at   8  side 2    Res =         NaN
 MRCHUE: Inverse mode at   9     Hk =   2.500
 MRCHUE: Convergence failed at   9  side 2    Res =         NaN
 MRCHUE: Inverse mode at  10     Hk =   2.500
 MRCHUE: Convergence failed at  10  side 2    Res =         NaN
 MRCHUE: Inverse mode at  11     Hk =   2.500
 MRCHUE: Convergence failed at  11  side 2    Res =         NaN
 MRCHUE: Inverse mode at  12     Hk =   2.500
 MRCHUE: Convergence failed at  12  side 2    Res =         NaN
 MRCHUE: Inverse mode at  13     Hk =   2.500
 MRCHUE: Convergence failed at  13  side 2    Res =         NaN
 MRCHUE: Inverse mode at  14     Hk =   2.500
 MRCHUE: Convergence failed at  14  side 2    Res =         NaN
 MRCHUE: Inverse mode at  15     Hk =   2.500
 MRCHUE: Convergence failed at  15  side 2    Res =         NaN
 MRCHUE: Inverse mode at  16     Hk =   2.500
 MRCHUE: Convergence failed at  16  side 2    Res =         NaN
 MRCHUE: Inverse mode at  17     Hk =   2.500
 MRCHUE: Convergence failed at  17  side 2    Res =         NaN
 MRCHUE: Inverse mode at  18     Hk =   2.500
 MRCHUE: Convergence failed at  18  side 2    Res =         NaN
 MRCHUE: Inverse mode at  19     Hk =   2.500
 MRCHUE: Convergence failed at  19  side 2    Res =         NaN
 MRCHUE: Inverse mode at  20     Hk =   2.500
 MRCHUE: Convergence failed at  20  side 2    Res =         NaN
 MRCHUE: Inverse mode at  21     Hk =   2.500
 MRCHUE: Convergence failed at  21  side 2    Res =         NaN
 MRCHUE: Inverse mode at  22     Hk =   2.500
 MRCHUE: Convergence failed at  22  side 2    Res =         NaN
 MRCHUE: Inverse mode at  24     Hk =   2.500
 MRCHUE: Inverse mode at  25     Hk =   2.500
 MRCHUE: Convergence failed at  26  side 2    Res =  0.1919E+03
 MRCHUE: Inverse mode at  27     Hk =   2.500
 MRCHUE: Convergence failed at  28  side 2    Res =  0.3548E+02
 MRCHUE: Inverse mode at  29     Hk =   2.500
 MRCHUE: Convergence failed at  30  side 2    Res =  0.1273E+02
 MRCHUE: Inverse mode at  31     Hk =   2.500
 MRCHUE: Inverse mode at  32     Hk =   2.500
 MRCHUE: Convergence failed at  33  side 2    Res =  0.2312E+01
 MRCHUE: Inverse mode at  34     Hk =   2.500
 MRCHUE: Convergence failed at  35  side 2    Res =  0.1342E+02
 MRCHUE: Convergence failed at  36  side 2    Res =  0.2166E+02
 MRCHUE: Inverse mode at  37     Hk =   2.500

 MRCHDU: Convergence failed at   6  side 1    Res =  0.2639E+01
 MRCHDU: Convergence failed at   7  side 1    Res =  0.2454E+01
 MRCHDU: Convergence failed at   8  side 1    Res =  0.1401E+02
 MRCHDU: Convergence failed at   9  side 1    Res =  0.7589E+02
 MRCHDU: Convergence failed at  10  side 1    Res =  0.5979E+01
 MRCHDU: Convergence failed at  11  side 1    Res =  0.9591E+01
 MRCHDU: Convergence failed at  12  side 1    Res =  0.7664E+02
 MRCHDU: Convergence failed at  13  side 1    Res =  0.2728E+02
 MRCHDU: Convergence failed at  14  side 1    Res =  0.1608E+03
 MRCHDU: Convergence failed at  15  side 1    Res =  0.1580E+02
 MRCHDU: Convergence failed at  16  side 1    Res =  0.1170E+03
 MRCHDU: Convergence failed at  17  side 1    Res =  0.2146E+02
 MRCHDU: Convergence failed at  18  side 1    Res =  0.1823E+02
 MRCHDU: Convergence failed at  19  side 1    Res =  0.1187E+02
 MRCHDU: Convergence failed at  20  side 1    Res =  0.2072E+02
 MRCHDU: Convergence failed at  21  side 1    Res =  0.1909E+02
 MRCHDU: Convergence failed at  22  side 1    Res =  0.1843E+02
 MRCHDU: Convergence failed at  23  side 1    Res =  0.1748E+02
 MRCHDU: Convergence failed at  24  side 1    Res =  0.1776E+02
 MRCHDU: Convergence failed at  25  side 1    Res =  0.1102E+02
 MRCHDU: Convergence failed at  26  side 1    Res =  0.1113E+02
 MRCHDU: Convergence failed at  27  side 1    Res =  0.1171E+02
 MRCHDU: Convergence failed at  28  side 1    Res =  0.1198E+02
 MRCHDU: Convergence failed at  29  side 1    Res =  0.1256E+02
 MRCHDU: Convergence failed at  30  side 1    Res =  0.1203E+02
 MRCHDU: Convergence failed at  31  side 1    Res =  0.1315E+02
 MRCHDU: Convergence failed at  32  side 1    Res =  0.1026E+02
 MRCHDU: Convergence failed at  33  side 1    Res =  0.1084E+02
 MRCHDU: Convergence failed at  34  side 1    Res =  0.1091E+02
 MRCHDU: Convergence failed at  35  side 1    Res =  0.1136E+02
 MRCHDU: Convergence failed at  36  side 1    Res =  0.1282E+02
 MRCHDU: Convergence failed at  37  side 1    Res =  0.1451E+02
 MRCHDU: Convergence failed at  38  side 1    Res =  0.2117E+02
 MRCHDU: Convergence failed at  39  side 1    Res =  0.2504E+02
 MRCHDU: Convergence failed at  40  side 1    Res =  0.3232E+02
 MRCHDU: Convergence failed at  41  side 1    Res =  0.2160E+02
 MRCHDU: Convergence failed at  42  side 1    Res =  0.3176E+03
 MRCHDU: Convergence failed at  43  side 1    Res =  0.5297E+04
 MRCHDU: Convergence failed at  44  side 1    Res =  0.2164E+03
 MRCHDU: Convergence failed at  45  side 1    Res =  0.1848E+03
 MRCHDU: Convergence failed at  46  side 1    Res =  0.1089E+03
 MRCHDU: Convergence failed at  47  side 1    Res =  0.8951E+02
 MRCHDU: Convergence failed at  48  side 1    Res =  0.7066E+02
 MRCHDU: Convergence failed at  49  side 1    Res =  0.6077E+02
 MRCHDU: Convergence failed at  50  side 1    Res =  0.2040E+02
 MRCHDU: Convergence failed at  51  side 1    Res =  0.1908E+02
 MRCHDU: Convergence failed at  52  side 1    Res =  0.1755E+02
 MRCHDU: Convergence failed at  53  side 1    Res =  0.1607E+02
 MRCHDU: Convergence failed at  54  side 1    Res =  0.1522E+02
 MRCHDU: Convergence failed at  55  side 1    Res =  0.1415E+02
 MRCHDU: Convergence failed at  56  side 1    Res =  0.1359E+02
 MRCHDU: Convergence failed at  57  side 1    Res =  0.1287E+02
 MRCHDU: Convergence failed at  58  side 1    Res =  0.9509E+01
 MRCHDU: Convergence failed at  59  side 1    Res =  0.9979E+01
 MRCHDU: Convergence failed at  60  side 1    Res =  0.1136E+02
 MRCHDU: Convergence failed at  61  side 1    Res =  0.1116E+03
 MRCHDU: Convergence failed at  62  side 1    Res =  0.3282E+02
 MRCHDU: Convergence failed at  63  side 1    Res =  0.4617E+02
 MRCHDU: Convergence failed at  64  side 1    Res =  0.2526E+02
 MRCHDU: Convergence failed at   4  side 2    Res =  0.6994E+00
 MRCHDU: Convergence failed at   5  side 2    Res =  0.3562E+01
 MRCHDU: Convergence failed at   6  side 2    Res =  0.7750E+01
 MRCHDU: Convergence failed at   7  side 2    Res =  0.3260E+01
 MRCHDU: Convergence failed at   8  side 2    Res =  0.1880E+01
 MRCHDU: Convergence failed at   9  side 2    Res =  0.1771E+01
 MRCHDU: Convergence failed at  10  side 2    Res =  0.5391E+01
 TRCHEK2: N2 convergence failed.
 x:  0.05240  0.05468  0.05468  N:  0.000  9.000    NaN  Nx:     NaN   dN:       NaN
 TRCHEK2: N2 convergence failed.
 x:  0.05240  0.05468  0.05468  N:  0.000  9.000    NaN  Nx:     NaN   dN:       NaN
 TRCHEK2: N2 convergence failed.
 x:  0.05240  0.05468  0.05468  N:  0.000  9.000    NaN  Nx:     NaN   dN:       NaN
 TRCHEK2: N2 convergence failed.
 x:  0.05240  0.05468  0.05468  N:  0.000  9.000    NaN  Nx:     NaN   dN:       NaN
 TRCHEK2: N2 convergence failed.
 x:  0.05240  0.05468  0.05468  N:  0.000  9.000    NaN  Nx:     NaN   dN:       NaN
 TRCHEK2: N2 convergence failed.
 x:  0.05240  0.05468  0.05468  N:  0.000  9.000    NaN  Nx:     NaN   dN:       NaN
 TRCHEK2: N2 convergence failed.
 x:  0.05240  0.05468  0.05468  N:  0.000  9.000    NaN  Nx:     NaN   dN:       NaN
 TRCHEK2: N2 convergence failed.
 x:  0.05240  0.05468  0.05468  N:  0.000  9.000    NaN  Nx:     NaN   dN:       NaN
 TRCHEK2: N2 convergence failed.
 x:  0.05240  0.05468  0.05468  N:  0.000  9.000    NaN  Nx:     NaN   dN:       NaN
 TRCHEK2: N2 convergence failed.
 x:  0.05240  0.05468  0.05468  N:  0.000  9.000    NaN  Nx:     NaN   dN:       NaN
 TRCHEK2: N2 convergence failed.
 x:  0.05240  0.05468  0.05468  N:  0.000  9.000    NaN  Nx:     NaN   dN:       NaN
 TRCHEK2: N2 convergence failed.
 x:  0.05240  0.05468  0.05468  N:  0.000  9.000    NaN  Nx:     NaN   dN:       NaN
 TRCHEK2: N2 convergence failed.
 x:  0.05240  0.05468  0.05468  N:  0.000  9.000    NaN  Nx:     NaN   dN:       NaN
 TRCHEK2: N2 convergence failed.
 x:  0.05240  0.05468  0.05468  N:  0.000  9.000    NaN  Nx:     NaN   dN:       NaN
 TRCHEK2: N2 convergence failed.
 x:  0.05240  0.05468  0.05468  N:  0.000  9.000    NaN  Nx:     NaN   dN:       NaN
 TRCHEK2: N2 convergence failed.
 x:  0.05240  0.05468  0.05468  N:  0.000  9.000    NaN  Nx:     NaN   dN:       NaN
 TRCHEK2: N2 convergence failed.
 x:  0.05240  0.05468  0.05468  N:  0.000  9.000    NaN  Nx:     NaN   dN:       NaN
 TRCHEK2: N2 convergence failed.
 x:  0.05240  0.05468  0.05468  N:  0.000  9.000    NaN  Nx:     NaN   dN:       NaN
 TRCHEK2: N2 convergence failed.
 x:  0.05240  0.05468  0.05468  N:  0.000  9.000    NaN  Nx:     NaN   dN:       NaN
 TRCHEK2: N2 convergence failed.
 x:  0.05240  0.05468  0.05468  N:  0.000  9.000    NaN  Nx:     NaN   dN:       NaN
 TRCHEK2: N2 convergence failed.
 x:  0.05240  0.05468  0.05468  N:  0.000  9.000    NaN  Nx:     NaN   dN:       NaN
 TRCHEK2: N2 convergence failed.
 x:  0.05240  0.05468  0.05468  N:  0.000  9.000    NaN  Nx:     NaN   dN:       NaN
 TRCHEK2: N2 convergence failed.
 x:  0.05240  0.05468  0.05468  N:  0.000  9.000    NaN  Nx:     NaN   dN:       NaN
 TRCHEK2: N2 convergence failed.
 x:  0.05240  0.05468  0.05468  N:  0.000  9.000    NaN  Nx:     NaN   dN:       NaN
 TRCHEK2: N2 convergence failed.
 x:  0.05240  0.05468  0.05468  N:  0.000  9.000    NaN  Nx:     NaN   dN:       NaN
 MRCHDU: Convergence failed at  11  side 2    Res =         NaN
 TRCHEK2: N2 convergence failed.
 x:  0.05468  0.05651  0.05651  N:  0.000  9.000    NaN  Nx:     NaN   dN:       NaN
 TRCHEK2: N2 convergence failed.
 x:  0.05468  0.05651  0.05651  N:  0.000  9.000    NaN  Nx:     NaN   dN:       NaN
 TRCHEK2: N2 convergence failed.
 x:  0.05468  0.05651  0.05651  N:  0.000  9.000    NaN  Nx:     NaN   dN:       NaN
 TRCHEK2: N2 convergence failed.
 x:  0.05468  0.05651  0.05651  N:  0.000  9.000    NaN  Nx:     NaN   dN:       NaN
 TRCHEK2: N2 convergence failed.
 x:  0.05468  0.05651  0.05651  N:  0.000  9.000    NaN  Nx:     NaN   dN:       NaN
 TRCHEK2: N2 convergence failed.
 x:  0.05468  0.05651  0.05651  N:  0.000  9.000    NaN  Nx:     NaN   dN:       NaN
 TRCHEK2: N2 convergence failed.
 x:  0.05468  0.05651  0.05651  N:  0.000  9.000    NaN  Nx:     NaN   dN:       NaN
 TRCHEK2: N2 convergence failed.
 x:  0.05468  0.05651  0.05651  N:  0.000  9.000    NaN  Nx:     NaN   dN:       NaN
 TRCHEK2: N2 convergence failed.
 x:  0.05468  0.05651  0.05651  N:  0.000  9.000    NaN  Nx:     NaN   dN:       NaN
 TRCHEK2: N2 convergence failed.
 x:  0.05468  0.05651  0.05651  N:  0.000  9.000    NaN  Nx:     NaN   dN:       NaN
 TRCHEK2: N2 convergence failed.
 x:  0.05468  0.05651  0.05651  N:  0.000  9.000    NaN  Nx:     NaN   dN:       NaN
 TRCHEK2: N2 convergence failed.
 x:  0.05468  0.05651  0.05651  N:  0.000  9.000    NaN  Nx:     NaN   dN:       NaN
 TRCHEK2: N2 convergence failed.
 x:  0.05468  0.05651  0.05651  N:  0.000  9.000    NaN  Nx:     NaN   dN:       NaN
 TRCHEK2: N2 convergence failed.
 x:  0.05468  0.05651  0.05651  N:  0.000  9.000    NaN  Nx:     NaN   dN:       NaN
 TRCHEK2: N2 convergence failed.
 x:  0.05468  0.05651  0.05651  N:  0.000  9.000    NaN  Nx:     NaN   dN:       NaN
 TRCHEK2: N2 convergence failed.
 x:  0.05468  0.05651  0.05651  N:  0.000  9.000    NaN  Nx:     NaN   dN:       NaN
 TRCHEK2: N2 convergence failed.
 x:  0.05468  0.05651  0.05651  N:  0.000  9.000    NaN  Nx:     NaN   dN:       NaN
 TRCHEK2: N2 convergence failed.
 x:  0.05468  0.05651  0.05651  N:  0.000  9.000    NaN  Nx:     NaN   dN:       NaN
 TRCHEK2: N2 convergence failed.
 x:  0.05468  0.05651  0.05651  N:  0.000  9.000    NaN  Nx:     NaN   dN:       NaN
 TRCHEK2: N2 convergence failed.
 x:  0.05468  0.05651  0.05651  N:  0.000  9.000    NaN  Nx:     NaN   dN:       NaN
 TRCHEK2: N2 convergence failed.
 x:  0.05468  0.05651  0.05651  N:  0.000  9.000    NaN  Nx:     NaN   dN:       NaN
 TRCHEK2: N2 convergence failed.
 x:  0.05468  0.05651  0.05651  N:  0.000  9.000    NaN  Nx:     NaN   dN:       NaN
 TRCHEK2: N2 convergence failed.
 x:  0.05468  0.05651  0.05651  N:  0.000  9.000    NaN  Nx:     NaN   dN:       NaN
 TRCHEK2: N2 convergence failed.
 x:  0.05468  0.05651  0.05651  N:  0.000  9.000    NaN  Nx:     NaN   dN:       NaN
 TRCHEK2: N2 convergence failed.
 x:  0.05468  0.05651  0.05651  N:  0.000  9.000    NaN  Nx:     NaN   dN:       NaN
 MRCHDU: Convergence failed at  12  side 2    Res =         NaN
 TRCHEK2: N2 convergence failed.
 x:  0.05651  0.05838  0.05838  N:  0.000  9.000    NaN  Nx:     NaN   dN:       NaN
 TRCHEK2: N2 convergence failed.
 x:  0.05651  0.05838  0.05838  N:  0.000  9.000    NaN  Nx:     NaN   dN:       NaN
 TRCHEK2: N2 convergence failed.
 x:  0.05651  0.05838  0.05838  N:  0.000  9.000    NaN  Nx:     NaN   dN:       NaN
 TRCHEK2: N2 convergence failed.
 x:  0.05651  0.05838  0.05838  N:  0.000  9.000    NaN  Nx:     NaN   dN:       NaN
 TRCHEK2: N2 convergence failed.
 x:  0.05651  0.05838  0.05838  N:  0.000  9.000    NaN  Nx:     NaN   dN:       NaN
 TRCHEK2: N2 convergence failed.
 x:  0.05651  0.05838  0.05838  N:  0.000  9.000    NaN  Nx:     NaN   dN:       NaN
 TRCHEK2: N2 convergence failed.
 x:  0.05651  0.05838  0.05838  N:  0.000  9.000    NaN  Nx:     NaN   dN:       NaN
 TRCHEK2: N2 convergence failed.
 x:  0.05651  0.05838  0.05838  N:  0.000  9.000    NaN  Nx:     NaN   dN:       NaN
 TRCHEK2: N2 convergence failed.
 x:  0.05651  0.05838  0.05838  N:  0.000  9.000    NaN  Nx:     NaN   dN:       NaN
 TRCHEK2: N2 convergence failed.
 x:  0.05651  0.05838  0.05838  N:  0.000  9.000    NaN  Nx:     NaN   dN:       NaN
 TRCHEK2: N2 convergence failed.
 x:  0.05651  0.05838  0.05838  N:  0.000  9.000    NaN  Nx:     NaN   dN:       NaN
 TRCHEK2: N2 convergence failed.
 x:  0.05651  0.05838  0.05838  N:  0.000  9.000    NaN  Nx:     NaN   dN:       NaN
 TRCHEK2: N2 convergence failed.
 x:  0.05651  0.05838  0.05838  N:  0.000  9.000    NaN  Nx:     NaN   dN:       NaN
 TRCHEK2: N2 convergence failed.
 x:  0.05651  0.05838  0.05838  N:  0.000  9.000    NaN  Nx:     NaN   dN:       NaN
 TRCHEK2: N2 convergence failed.
 x:  0.05651  0.05838  0.05838  N:  0.000  9.000    NaN  Nx:     NaN   dN:       NaN
 TRCHEK2: N2 convergence failed.
 x:  0.05651  0.05838  0.05838  N:  0.000  9.000    NaN  Nx:     NaN   dN:       NaN
 TRCHEK2: N2 convergence failed.
 x:  0.05651  0.05838  0.05838  N:  0.000  9.000    NaN  Nx:     NaN   dN:       NaN
 TRCHEK2: N2 convergence failed.
 x:  0.05651  0.05838  0.05838  N:  0.000  9.000    NaN  Nx:     NaN   dN:       NaN
 TRCHEK2: N2 convergence failed.
 x:  0.05651  0.05838  0.05838  N:  0.000  9.000    NaN  Nx:     NaN   dN:       NaN
 TRCHEK2: N2 convergence failed.
 x:  0.05651  0.05838  0.05838  N:  0.000  9.000    NaN  Nx:     NaN   dN:       NaN
 TRCHEK2: N2 convergence failed.
 x:  0.05651  0.05838  0.05838  N:  0.000  9.000    NaN  Nx:     NaN   dN:       NaN
 TRCHEK2: N2 convergence failed.
 x:  0.05651  0.05838  0.05838  N:  0.000  9.000    NaN  Nx:     NaN   dN:       NaN
 TRCHEK2: N2 convergence failed.
 x:  0.05651  0.05838  0.05838  N:  0.000  9.000    NaN  Nx:     NaN   dN:       NaN
 TRCHEK2: N2 convergence failed.
 x:  0.05651  0.05838  0.05838  N:  0.000  9.000    NaN  Nx:     NaN   dN:       NaN
 TRCHEK2: N2 convergence failed.
 x:  0.05651  0.05838  0.05838  N:  0.000  9.000    NaN  Nx:     NaN   dN:       NaN
 MRCHDU: Convergence failed at  13  side 2    Res =         NaN
 TRCHEK2: N2 convergence failed.
 x:  0.05838  0.06098  0.06098  N:  0.000  9.000    NaN  Nx:     NaN   dN:       NaN
 TRCHEK2: N2 convergence failed.
 x:  0.05838  0.06098  0.06098  N:  0.000  9.000    NaN  Nx:     NaN   dN:       NaN
 TRCHEK2: N2 convergence failed.
 x:  0.05838  0.06098  0.06098  N:  0.000  9.000    NaN  Nx:     NaN   dN:       NaN
 TRCHEK2: N2 convergence failed.
 x:  0.05838  0.06098  0.06098  N:  0.000  9.000    NaN  Nx:     NaN   dN:       NaN
 TRCHEK2: N2 convergence failed.
 x:  0.05838  0.06098  0.06098  N:  0.000  9.000    NaN  Nx:     NaN   dN:       NaN
 TRCHEK2: N2 convergence failed.
 x:  0.05838  0.06098  0.06098  N:  0.000  9.000    NaN  Nx:     NaN   dN:       NaN
 TRCHEK2: N2 convergence failed.
 x:  0.05838  0.06098  0.06098  N:  0.000  9.000    NaN  Nx:     NaN   dN:       NaN
 TRCHEK2: N2 convergence failed.
 x:  0.05838  0.06098  0.06098  N:  0.000  9.000    NaN  Nx:     NaN   dN:       NaN
 TRCHEK2: N2 convergence failed.
 x:  0.05838  0.06098  0.06098  N:  0.000  9.000    NaN  Nx:     NaN   dN:       NaN
 TRCHEK2: N2 convergence failed.
 x:  0.05838  0.06098  0.06098  N:  0.000  9.000    NaN  Nx:     NaN   dN:       NaN
 TRCHEK2: N2 convergence failed.
 x:  0.05838  0.06098  0.06098  N:  0.000  9.000    NaN  Nx:     NaN   dN:       NaN
 TRCHEK2: N2 convergence failed.
 x:  0.05838  0.06098  0.06098  N:  0.000  9.000    NaN  Nx:     NaN   dN:       NaN
 TRCHEK2: N2 convergence failed.
 x:  0.05838  0.06098  0.06098  N:  0.000  9.000    NaN  Nx:     NaN   dN:       NaN
 TRCHEK2: N2 convergence failed.
 x:  0.05838  0.06098  0.06098  N:  0.000  9.000    NaN  Nx:     NaN   dN:       NaN
 TRCHEK2: N2 convergence failed.
 x:  0.05838  0.06098  0.06098  N:  0.000  9.000    NaN  Nx:     NaN   dN:       NaN
 TRCHEK2: N2 convergence failed.
 x:  0.05838  0.06098  0.06098  N:  0.000  9.000    NaN  Nx:     NaN   dN:       NaN
 TRCHEK2: N2 convergence failed.
 x:  0.05838  0.06098  0.06098  N:  0.000  9.000    NaN  Nx:     NaN   dN:       NaN
 TRCHEK2: N2 convergence failed.
 x:  0.05838  0.06098  0.06098  N:  0.000  9.000    NaN  Nx:     NaN   dN:       NaN
 TRCHEK2: N2 convergence failed.
 x:  0.05838  0.06098  0.06098  N:  0.000  9.000    NaN  Nx:     NaN   dN:       NaN
 TRCHEK2: N2 convergence failed.
 x:  0.05838  0.06098  0.06098  N:  0.000  9.000    NaN  Nx:     NaN   dN:       NaN
 TRCHEK2: N2 convergence failed.
 x:  0.05838  0.06098  0.06098  N:  0.000  9.000    NaN  Nx:     NaN   dN:       NaN
 TRCHEK2: N2 convergence failed.
 x:  0.05838  0.06098  0.06098  N:  0.000  9.000    NaN  Nx:     NaN   dN:       NaN
 TRCHEK2: N2 convergence failed.
 x:  0.05838  0.06098  0.06098  N:  0.000  9.000    NaN  Nx:     NaN   dN:       NaN
 TRCHEK2: N2 convergence failed.
 x:  0.05838  0.06098  0.06098  N:  0.000  9.000    NaN  Nx:     NaN   dN:       NaN
 TRCHEK2: N2 convergence failed.
 x:  0.05838  0.06098  0.06098  N:  0.000  9.000    NaN  Nx:     NaN   dN:       NaN
 MRCHDU: Convergence failed at  14  side 2    Res =         NaN
 TRCHEK2: N2 convergence failed.
 x:  0.06098  0.06453  0.06453  N:  0.000  9.000    NaN  Nx:     NaN   dN:       NaN
 TRCHEK2: N2 convergence failed.
 x:  0.06098  0.06453  0.06453  N:  0.000  9.000    NaN  Nx:     NaN   dN:       NaN
 TRCHEK2: N2 convergence failed.
 x:  0.06098  0.06453  0.06453  N:  0.000  9.000    NaN  Nx:     NaN   dN:       NaN
 TRCHEK2: N2 convergence failed.
 x:  0.06098  0.06453  0.06453  N:  0.000  9.000    NaN  Nx:     NaN   dN:       NaN
 TRCHEK2: N2 convergence failed.
 x:  0.06098  0.06453  0.06453  N:  0.000  9.000    NaN  Nx:     NaN   dN:       NaN
 TRCHEK2: N2 convergence failed.
 x:  0.06098  0.06453  0.06453  N:  0.000  9.000    NaN  Nx:     NaN   dN:       NaN
 TRCHEK2: N2 convergence failed.
 x:  0.06098  0.06453  0.06453  N:  0.000  9.000    NaN  Nx:     NaN   dN:       NaN
 TRCHEK2: N2 convergence failed.
 x:  0.06098  0.06453  0.06453  N:  0.000  9.000    NaN  Nx:     NaN   dN:       NaN
 TRCHEK2: N2 convergence failed.
 x:  0.06098  0.06453  0.06453  N:  0.000  9.000    NaN  Nx:     NaN   dN:       NaN
 TRCHEK2: N2 convergence failed.
 x:  0.06098  0.06453  0.06453  N:  0.000  9.000    NaN  Nx:     NaN   dN:       NaN
 TRCHEK2: N2 convergence failed.
 x:  0.06098  0.06453  0.06453  N:  0.000  9.000    NaN  Nx:     NaN   dN:       NaN
 TRCHEK2: N2 convergence failed.
 x:  0.06098  0.06453  0.06453  N:  0.000  9.000    NaN  Nx:     NaN   dN:       NaN
 TRCHEK2: N2 convergence failed.
 x:  0.06098  0.06453  0.06453  N:  0.000  9.000    NaN  Nx:     NaN   dN:       NaN
 TRCHEK2: N2 convergence failed.
 x:  0.06098  0.06453  0.06453  N:  0.000  9.000    NaN  Nx:     NaN   dN:       NaN
 TRCHEK2: N2 convergence failed.
 x:  0.06098  0.06453  0.06453  N:  0.000  9.000    NaN  Nx:     NaN   dN:       NaN
 TRCHEK2: N2 convergence failed.
 x:  0.06098  0.06453  0.06453  N:  0.000  9.000    NaN  Nx:     NaN   dN:       NaN
 TRCHEK2: N2 convergence failed.
 x:  0.06098  0.06453  0.06453  N:  0.000  9.000    NaN  Nx:     NaN   dN:       NaN
 TRCHEK2: N2 convergence failed.
 x:  0.06098  0.06453  0.06453  N:  0.000  9.000    NaN  Nx:     NaN   dN:       NaN
 TRCHEK2: N2 convergence failed.
 x:  0.06098  0.06453  0.06453  N:  0.000  9.000    NaN  Nx:     NaN   dN:       NaN
 TRCHEK2: N2 convergence failed.
 x:  0.06098  0.06453  0.06453  N:  0.000  9.000    NaN  Nx:     NaN   dN:       NaN
 TRCHEK2: N2 convergence failed.
 x:  0.06098  0.06453  0.06453  N:  0.000  9.000    NaN  Nx:     NaN   dN:       NaN
 TRCHEK2: N2 convergence failed.
 x:  0.06098  0.06453  0.06453  N:  0.000  9.000    NaN  Nx:     NaN   dN:       NaN
 TRCHEK2: N2 convergence failed.
 x:  0.06098  0.06453  0.06453  N:  0.000  9.000    NaN  Nx:     NaN   dN:       NaN
 TRCHEK2: N2 convergence failed.
 x:  0.06098  0.06453  0.06453  N:  0.000  9.000    NaN  Nx:     NaN   dN:       NaN
 TRCHEK2: N2 convergence failed.
 x:  0.06098  0.06453  0.06453  N:  0.000  9.000    NaN  Nx:     NaN   dN:       NaN
 MRCHDU: Convergence failed at  15  side 2    Res =         NaN
 TRCHEK2: N2 convergence failed.
 x:  0.06453  0.06868  0.06868  N:  0.000  9.000    NaN  Nx:     NaN   dN:       NaN
 TRCHEK2: N2 convergence failed.
 x:  0.06453  0.06868  0.06868  N:  0.000  9.000    NaN  Nx:     NaN   dN:       NaN
 TRCHEK2: N2 convergence failed.
 x:  0.06453  0.06868  0.06868  N:  0.000  9.000    NaN  Nx:     NaN   dN:       NaN
 TRCHEK2: N2 convergence failed.
 x:  0.06453  0.06868  0.06868  N:  0.000  9.000    NaN  Nx:     NaN   dN:       NaN
 TRCHEK2: N2 convergence failed.
 x:  0.06453  0.06868  0.06868  N:  0.000  9.000    NaN  Nx:     NaN   dN:       NaN
 TRCHEK2: N2 convergence failed.
 x:  0.06453  0.06868  0.06868  N:  0.000  9.000    NaN  Nx:     NaN   dN:       NaN
 TRCHEK2: N2 convergence failed.
 x:  0.06453  0.06868  0.06868  N:  0.000  9.000    NaN  Nx:     NaN   dN:       NaN
 TRCHEK2: N2 convergence failed.
 x:  0.06453  0.06868  0.06868  N:  0.000  9.000    NaN  Nx:     NaN   dN:       NaN
 TRCHEK2: N2 convergence failed.
 x:  0.06453  0.06868  0.06868  N:  0.000  9.000    NaN  Nx:     NaN   dN:       NaN
 TRCHEK2: N2 convergence failed.
 x:  0.06453  0.06868  0.06868  N:  0.000  9.000    NaN  Nx:     NaN   dN:       NaN
 TRCHEK2: N2 convergence failed.
 x:  0.06453  0.06868  0.06868  N:  0.000  9.000    NaN  Nx:     NaN   dN:       NaN
 TRCHEK2: N2 convergence failed.
 x:  0.06453  0.06868  0.06868  N:  0.000  9.000    NaN  Nx:     NaN   dN:       NaN
 TRCHEK2: N2 convergence failed.
 x:  0.06453  0.06868  0.06868  N:  0.000  9.000    NaN  Nx:     NaN   dN:       NaN
 TRCHEK2: N2 convergence failed.
 x:  0.06453  0.06868  0.06868  N:  0.000  9.000    NaN  Nx:     NaN   dN:       NaN
 TRCHEK2: N2 convergence failed.
 x:  0.06453  0.06868  0.06868  N:  0.000  9.000    NaN  Nx:     NaN   dN:       NaN
 TRCHEK2: N2 convergence failed.
 x:  0.06453  0.06868  0.06868  N:  0.000  9.000    NaN  Nx:     NaN   dN:       NaN
 TRCHEK2: N2 convergence failed.
 x:  0.06453  0.06868  0.06868  N:  0.000  9.000    NaN  Nx:     NaN   dN:       NaN
 TRCHEK2: N2 convergence failed.
 x:  0.06453  0.06868  0.06868  N:  0.000  9.000    NaN  Nx:     NaN   dN:       NaN
 TRCHEK2: N2 convergence failed.
 x:  0.06453  0.06868  0.06868  N:  0.000  9.000    NaN  Nx:     NaN   dN:       NaN
 TRCHEK2: N2 convergence failed.
 x:  0.06453  0.06868  0.06868  N:  0.000  9.000    NaN  Nx:     NaN   dN:       NaN
 TRCHEK2: N2 convergence failed.
 x:  0.06453  0.06868  0.06868  N:  0.000  9.000    NaN  Nx:     NaN   dN:       NaN
 TRCHEK2: N2 convergence failed.
 x:  0.06453  0.06868  0.06868  N:  0.000  9.000    NaN  Nx:     NaN   dN:       NaN
 TRCHEK2: N2 convergence failed.
 x:  0.06453  0.06868  0.06868  N:  0.000  9.000    NaN  Nx:     NaN   dN:       NaN
 TRCHEK2: N2 convergence failed.
 x:  0.06453  0.06868  0.06868  N:  0.000  9.000    NaN  Nx:     NaN   dN:       NaN
 TRCHEK2: N2 convergence failed.
 x:  0.06453  0.06868  0.06868  N:  0.000  9.000    NaN  Nx:     NaN   dN:       NaN
 MRCHDU: Convergence failed at  16  side 2    Res =         NaN
 TRCHEK2: N2 convergence failed.
 x:  0.06868  0.07270  0.07270  N:  0.000  9.000    NaN  Nx:     NaN   dN:       NaN
 TRCHEK2: N2 convergence failed.
 x:  0.06868  0.07270  0.07270  N:  0.000  9.000    NaN  Nx:     NaN   dN:       NaN
 TRCHEK2: N2 convergence failed.
 x:  0.06868  0.07270  0.07270  N:  0.000  9.000    NaN  Nx:     NaN   dN:       NaN
 TRCHEK2: N2 convergence failed.
 x:  0.06868  0.07270  0.07270  N:  0.000  9.000    NaN  Nx:     NaN   dN:       NaN
 TRCHEK2: N2 convergence failed.
 x:  0.06868  0.07270  0.07270  N:  0.000  9.000    NaN  Nx:     NaN   dN:       NaN
 TRCHEK2: N2 convergence failed.
 x:  0.06868  0.07270  0.07270  N:  0.000  9.000    NaN  Nx:     NaN   dN:       NaN
 TRCHEK2: N2 convergence failed.
 x:  0.06868  0.07270  0.07270  N:  0.000  9.000    NaN  Nx:     NaN   dN:       NaN
 TRCHEK2: N2 convergence failed.
 x:  0.06868  0.07270  0.07270  N:  0.000  9.000    NaN  Nx:     NaN   dN:       NaN
 TRCHEK2: N2 convergence failed.
 x:  0.06868  0.07270  0.07270  N:  0.000  9.000    NaN  Nx:     NaN   dN:       NaN
 TRCHEK2: N2 convergence failed.
 x:  0.06868  0.07270  0.07270  N:  0.000  9.000    NaN  Nx:     NaN   dN:       NaN
 TRCHEK2: N2 convergence failed.
 x:  0.06868  0.07270  0.07270  N:  0.000  9.000    NaN  Nx:     NaN   dN:       NaN
 TRCHEK2: N2 convergence failed.
 x:  0.06868  0.07270  0.07270  N:  0.000  9.000    NaN  Nx:     NaN   dN:       NaN
 TRCHEK2: N2 convergence failed.
 x:  0.06868  0.07270  0.07270  N:  0.000  9.000    NaN  Nx:     NaN   dN:       NaN
 TRCHEK2: N2 convergence failed.
 x:  0.06868  0.07270  0.07270  N:  0.000  9.000    NaN  Nx:     NaN   dN:       NaN
 TRCHEK2: N2 convergence failed.
 x:  0.06868  0.07270  0.07270  N:  0.000  9.000    NaN  Nx:     NaN   dN:       NaN
 TRCHEK2: N2 convergence failed.
 x:  0.06868  0.07270  0.07270  N:  0.000  9.000    NaN  Nx:     NaN   dN:       NaN
 TRCHEK2: N2 convergence failed.
 x:  0.06868  0.07270  0.07270  N:  0.000  9.000    NaN  Nx:     NaN   dN:       NaN
 TRCHEK2: N2 convergence failed.
 x:  0.06868  0.07270  0.07270  N:  0.000  9.000    NaN  Nx:     NaN   dN:       NaN
 TRCHEK2: N2 convergence failed.
 x:  0.06868  0.07270  0.07270  N:  0.000  9.000    NaN  Nx:     NaN   dN:       NaN
 TRCHEK2: N2 convergence failed.
 x:  0.06868  0.07270  0.07270  N:  0.000  9.000    NaN  Nx:     NaN   dN:       NaN
 TRCHEK2: N2 convergence failed.
 x:  0.06868  0.07270  0.07270  N:  0.000  9.000    NaN  Nx:     NaN   dN:       NaN
 TRCHEK2: N2 convergence failed.
 x:  0.06868  0.07270  0.07270  N:  0.000  9.000    NaN  Nx:     NaN   dN:       NaN
 TRCHEK2: N2 convergence failed.
 x:  0.06868  0.07270  0.07270  N:  0.000  9.000    NaN  Nx:     NaN   dN:       NaN
 TRCHEK2: N2 convergence failed.
 x:  0.06868  0.07270  0.07270  N:  0.000  9.000    NaN  Nx:     NaN   dN:       NaN
 TRCHEK2: N2 convergence failed.
 x:  0.06868  0.07270  0.07270  N:  0.000  9.000    NaN  Nx:     NaN   dN:       NaN
 MRCHDU: Convergence failed at  17  side 2    Res =         NaN
 TRCHEK2: N2 convergence failed.
 x:  0.07270  0.07607  0.07607  N:  0.000  9.000    NaN  Nx:     NaN   dN:       NaN
 TRCHEK2: N2 convergence failed.
 x:  0.07270  0.07607  0.07607  N:  0.000  9.000    NaN  Nx:     NaN   dN:       NaN
 TRCHEK2: N2 convergence failed.
 x:  0.07270  0.07607  0.07607  N:  0.000  9.000    NaN  Nx:     NaN   dN:       NaN
 TRCHEK2: N2 convergence failed.
 x:  0.07270  0.07607  0.07607  N:  0.000  9.000    NaN  Nx:     NaN   dN:       NaN
 TRCHEK2: N2 convergence failed.
 x:  0.07270  0.07607  0.07607  N:  0.000  9.000    NaN  Nx:     NaN   dN:       NaN
 TRCHEK2: N2 convergence failed.
 x:  0.07270  0.07607  0.07607  N:  0.000  9.000    NaN  Nx:     NaN   dN:       NaN
 TRCHEK2: N2 convergence failed.
 x:  0.07270  0.07607  0.07607  N:  0.000  9.000    NaN  Nx:     NaN   dN:       NaN
 TRCHEK2: N2 convergence failed.
 x:  0.07270  0.07607  0.07607  N:  0.000  9.000    NaN  Nx:     NaN   dN:       NaN
 TRCHEK2: N2 convergence failed.
 x:  0.07270  0.07607  0.07607  N:  0.000  9.000    NaN  Nx:     NaN   dN:       NaN
 TRCHEK2: N2 convergence failed.
 x:  0.07270  0.07607  0.07607  N:  0.000  9.000    NaN  Nx:     NaN   dN:       NaN
 TRCHEK2: N2 convergence failed.
 x:  0.07270  0.07607  0.07607  N:  0.000  9.000    NaN  Nx:     NaN   dN:       NaN
 TRCHEK2: N2 convergence failed.
 x:  0.07270  0.07607  0.07607  N:  0.000  9.000    NaN  Nx:     NaN   dN:       NaN
 TRCHEK2: N2 convergence failed.
 x:  0.07270  0.07607  0.07607  N:  0.000  9.000    NaN  Nx:     NaN   dN:       NaN
 TRCHEK2: N2 convergence failed.
 x:  0.07270  0.07607  0.07607  N:  0.000  9.000    NaN  Nx:     NaN   dN:       NaN
 TRCHEK2: N2 convergence failed.
 x:  0.07270  0.07607  0.07607  N:  0.000  9.000    NaN  Nx:     NaN   dN:       NaN
 TRCHEK2: N2 convergence failed.
 x:  0.07270  0.07607  0.07607  N:  0.000  9.000    NaN  Nx:     NaN   dN:       NaN
 TRCHEK2: N2 convergence failed.
 x:  0.07270  0.07607  0.07607  N:  0.000  9.000    NaN  Nx:     NaN   dN:       NaN
 TRCHEK2: N2 convergence failed.
 x:  0.07270  0.07607  0.07607  N:  0.000  9.000    NaN  Nx:     NaN   dN:       NaN
 TRCHEK2: N2 convergence failed.
 x:  0.07270  0.07607  0.07607  N:  0.000  9.000    NaN  Nx:     NaN   dN:       NaN
 TRCHEK2: N2 convergence failed.
 x:  0.07270  0.07607  0.07607  N:  0.000  9.000    NaN  Nx:     NaN   dN:       NaN
 TRCHEK2: N2 convergence failed.
 x:  0.07270  0.07607  0.07607  N:  0.000  9.000    NaN  Nx:     NaN   dN:       NaN
 TRCHEK2: N2 convergence failed.
 x:  0.07270  0.07607  0.07607  N:  0.000  9.000    NaN  Nx:     NaN   dN:       NaN
 TRCHEK2: N2 convergence failed.
 x:  0.07270  0.07607  0.07607  N:  0.000  9.000    NaN  Nx:     NaN   dN:       NaN
 TRCHEK2: N2 convergence failed.
 x:  0.07270  0.07607  0.07607  N:  0.000  9.000    NaN  Nx:     NaN   dN:       NaN
 TRCHEK2: N2 convergence failed.
 x:  0.07270  0.07607  0.07607  N:  0.000  9.000    NaN  Nx:     NaN   dN:       NaN
 MRCHDU: Convergence failed at  18  side 2    Res =         NaN
 TRCHEK2: N2 convergence failed.
 x:  0.07607  0.07911  0.07911  N:  0.000  9.000    NaN  Nx:     NaN   dN:       NaN
 TRCHEK2: N2 convergence failed.
 x:  0.07607  0.07911  0.07911  N:  0.000  9.000    NaN  Nx:     NaN   dN:       NaN
 TRCHEK2: N2 convergence failed.
 x:  0.07607  0.07911  0.07911  N:  0.000  9.000    NaN  Nx:     NaN   dN:       NaN
 TRCHEK2: N2 convergence failed.
 x:  0.07607  0.07911  0.07911  N:  0.000  9.000    NaN  Nx:     NaN   dN:       NaN
 TRCHEK2: N2 convergence failed.
 x:  0.07607  0.07911  0.07911  N:  0.000  9.000    NaN  Nx:     NaN   dN:       NaN
 TRCHEK2: N2 convergence failed.
 x:  0.07607  0.07911  0.07911  N:  0.000  9.000    NaN  Nx:     NaN   dN:       NaN
 TRCHEK2: N2 convergence failed.
 x:  0.07607  0.07911  0.07911  N:  0.000  9.000    NaN  Nx:     NaN   dN:       NaN
 TRCHEK2: N2 convergence failed.
 x:  0.07607  0.07911  0.07911  N:  0.000  9.000    NaN  Nx:     NaN   dN:       NaN
 TRCHEK2: N2 convergence failed.
 x:  0.07607  0.07911  0.07911  N:  0.000  9.000    NaN  Nx:     NaN   dN:       NaN
 TRCHEK2: N2 convergence failed.
 x:  0.07607  0.07911  0.07911  N:  0.000  9.000    NaN  Nx:     NaN   dN:       NaN
 TRCHEK2: N2 convergence failed.
 x:  0.07607  0.07911  0.07911  N:  0.000  9.000    NaN  Nx:     NaN   dN:       NaN
 TRCHEK2: N2 convergence failed.
 x:  0.07607  0.07911  0.07911  N:  0.000  9.000    NaN  Nx:     NaN   dN:       NaN
 TRCHEK2: N2 convergence failed.
 x:  0.07607  0.07911  0.07911  N:  0.000  9.000    NaN  Nx:     NaN   dN:       NaN
 TRCHEK2: N2 convergence failed.
 x:  0.07607  0.07911  0.07911  N:  0.000  9.000    NaN  Nx:     NaN   dN:       NaN
 TRCHEK2: N2 convergence failed.
 x:  0.07607  0.07911  0.07911  N:  0.000  9.000    NaN  Nx:     NaN   dN:       NaN
 TRCHEK2: N2 convergence failed.
 x:  0.07607  0.07911  0.07911  N:  0.000  9.000    NaN  Nx:     NaN   dN:       NaN
 TRCHEK2: N2 convergence failed.
 x:  0.07607  0.07911  0.07911  N:  0.000  9.000    NaN  Nx:     NaN   dN:       NaN
 TRCHEK2: N2 convergence failed.
 x:  0.07607  0.07911  0.07911  N:  0.000  9.000    NaN  Nx:     NaN   dN:       NaN
 TRCHEK2: N2 convergence failed.
 x:  0.07607  0.07911  0.07911  N:  0.000  9.000    NaN  Nx:     NaN   dN:       NaN
 TRCHEK2: N2 convergence failed.
 x:  0.07607  0.07911  0.07911  N:  0.000  9.000    NaN  Nx:     NaN   dN:       NaN
 TRCHEK2: N2 convergence failed.
 x:  0.07607  0.07911  0.07911  N:  0.000  9.000    NaN  Nx:     NaN   dN:       NaN
 TRCHEK2: N2 convergence failed.
 x:  0.07607  0.07911  0.07911  N:  0.000  9.000    NaN  Nx:     NaN   dN:       NaN
 TRCHEK2: N2 convergence failed.
 x:  0.07607  0.07911  0.07911  N:  0.000  9.000    NaN  Nx:     NaN   dN:       NaN
 TRCHEK2: N2 convergence failed.
 x:  0.07607  0.07911  0.07911  N:  0.000  9.000    NaN  Nx:     NaN   dN:       NaN
 TRCHEK2: N2 convergence failed.
 x:  0.07607  0.07911  0.07911  N:  0.000  9.000    NaN  Nx:     NaN   dN:       NaN
 MRCHDU: Convergence failed at  19  side 2    Res =         NaN
 TRCHEK2: N2 convergence failed.
 x:  0.07911  0.08204  0.08204  N:  0.000  9.000    NaN  Nx:     NaN   dN:       NaN
 TRCHEK2: N2 convergence failed.
 x:  0.07911  0.08204  0.08204  N:  0.000  9.000    NaN  Nx:     NaN   dN:       NaN
 TRCHEK2: N2 convergence failed.
 x:  0.07911  0.08204  0.08204  N:  0.000  9.000    NaN  Nx:     NaN   dN:       NaN
 TRCHEK2: N2 convergence failed.
 x:  0.07911  0.08204  0.08204  N:  0.000  9.000    NaN  Nx:     NaN   dN:       NaN
 TRCHEK2: N2 convergence failed.
 x:  0.07911  0.08204  0.08204  N:  0.000  9.000    NaN  Nx:     NaN   dN:       NaN
 TRCHEK2: N2 convergence failed.
 x:  0.07911  0.08204  0.08204  N:  0.000  9.000    NaN  Nx:     NaN   dN:       NaN
 TRCHEK2: N2 convergence failed.
 x:  0.07911  0.08204  0.08204  N:  0.000  9.000    NaN  Nx:     NaN   dN:       NaN
 TRCHEK2: N2 convergence failed.
 x:  0.07911  0.08204  0.08204  N:  0.000  9.000    NaN  Nx:     NaN   dN:       NaN
 TRCHEK2: N2 convergence failed.
 x:  0.07911  0.08204  0.08204  N:  0.000  9.000    NaN  Nx:     NaN   dN:       NaN
 TRCHEK2: N2 convergence failed.
 x:  0.07911  0.08204  0.08204  N:  0.000  9.000    NaN  Nx:     NaN   dN:       NaN
 TRCHEK2: N2 convergence failed.
 x:  0.07911  0.08204  0.08204  N:  0.000  9.000    NaN  Nx:     NaN   dN:       NaN
 TRCHEK2: N2 convergence failed.
 x:  0.07911  0.08204  0.08204  N:  0.000  9.000    NaN  Nx:     NaN   dN:       NaN
 TRCHEK2: N2 convergence failed.
 x:  0.07911  0.08204  0.08204  N:  0.000  9.000    NaN  Nx:     NaN   dN:       NaN
 TRCHEK2: N2 convergence failed.
 x:  0.07911  0.08204  0.08204  N:  0.000  9.000    NaN  Nx:     NaN   dN:       NaN
 TRCHEK2: N2 convergence failed.
 x:  0.07911  0.08204  0.08204  N:  0.000  9.000    NaN  Nx:     NaN   dN:       NaN
 TRCHEK2: N2 convergence failed.
 x:  0.07911  0.08204  0.08204  N:  0.000  9.000    NaN  Nx:     NaN   dN:       NaN
 TRCHEK2: N2 convergence failed.
 x:  0.07911  0.08204  0.08204  N:  0.000  9.000    NaN  Nx:     NaN   dN:       NaN
 TRCHEK2: N2 convergence failed.
 x:  0.07911  0.08204  0.08204  N:  0.000  9.000    NaN  Nx:     NaN   dN:       NaN
 TRCHEK2: N2 convergence failed.
 x:  0.07911  0.08204  0.08204  N:  0.000  9.000    NaN  Nx:     NaN   dN:       NaN
 TRCHEK2: N2 convergence failed.
 x:  0.07911  0.08204  0.08204  N:  0.000  9.000    NaN  Nx:     NaN   dN:       NaN
 TRCHEK2: N2 convergence failed.
 x:  0.07911  0.08204  0.08204  N:  0.000  9.000    NaN  Nx:     NaN   dN:       NaN
 TRCHEK2: N2 convergence failed.
 x:  0.07911  0.08204  0.08204  N:  0.000  9.000    NaN  Nx:     NaN   dN:       NaN
 TRCHEK2: N2 convergence failed.
 x:  0.07911  0.08204  0.08204  N:  0.000  9.000    NaN  Nx:     NaN   dN:       NaN
 TRCHEK2: N2 convergence failed.
 x:  0.07911  0.08204  0.08204  N:  0.000  9.000    NaN  Nx:     NaN   dN:       NaN
 TRCHEK2: N2 convergence failed.
 x:  0.07911  0.08204  0.08204  N:  0.000  9.000    NaN  Nx:     NaN   dN:       NaN
 MRCHDU: Convergence failed at  20  side 2    Res =         NaN
 TRCHEK2: N2 convergence failed.
 x:  0.08204  0.08476  0.08476  N:  0.000  9.000    NaN  Nx:     NaN   dN:       NaN
 TRCHEK2: N2 convergence failed.
 x:  0.08204  0.08476  0.08476  N:  0.000  9.000    NaN  Nx:     NaN   dN:       NaN
 TRCHEK2: N2 convergence failed.
 x:  0.08204  0.08476  0.08476  N:  0.000  9.000    NaN  Nx:     NaN   dN:       NaN
 TRCHEK2: N2 convergence failed.
 x:  0.08204  0.08476  0.08476  N:  0.000  9.000    NaN  Nx:     NaN   dN:       NaN
 TRCHEK2: N2 convergence failed.
 x:  0.08204  0.08476  0.08476  N:  0.000  9.000    NaN  Nx:     NaN   dN:       NaN
 TRCHEK2: N2 convergence failed.
 x:  0.08204  0.08476  0.08476  N:  0.000  9.000    NaN  Nx:     NaN   dN:       NaN
 TRCHEK2: N2 convergence failed.
 x:  0.08204  0.08476  0.08476  N:  0.000  9.000    NaN  Nx:     NaN   dN:       NaN
 TRCHEK2: N2 convergence failed.
 x:  0.08204  0.08476  0.08476  N:  0.000  9.000    NaN  Nx:     NaN   dN:       NaN
 TRCHEK2: N2 convergence failed.
 x:  0.08204  0.08476  0.08476  N:  0.000  9.000    NaN  Nx:     NaN   dN:       NaN
 TRCHEK2: N2 convergence failed.
 x:  0.08204  0.08476  0.08476  N:  0.000  9.000    NaN  Nx:     NaN   dN:       NaN
 TRCHEK2: N2 convergence failed.
 x:  0.08204  0.08476  0.08476  N:  0.000  9.000    NaN  Nx:     NaN   dN:       NaN
 TRCHEK2: N2 convergence failed.
 x:  0.08204  0.08476  0.08476  N:  0.000  9.000    NaN  Nx:     NaN   dN:       NaN
 TRCHEK2: N2 convergence failed.
 x:  0.08204  0.08476  0.08476  N:  0.000  9.000    NaN  Nx:     NaN   dN:       NaN
 TRCHEK2: N2 convergence failed.
 x:  0.08204  0.08476  0.08476  N:  0.000  9.000    NaN  Nx:     NaN   dN:       NaN
 TRCHEK2: N2 convergence failed.
 x:  0.08204  0.08476  0.08476  N:  0.000  9.000    NaN  Nx:     NaN   dN:       NaN
 TRCHEK2: N2 convergence failed.
 x:  0.08204  0.08476  0.08476  N:  0.000  9.000    NaN  Nx:     NaN   dN:       NaN
 TRCHEK2: N2 convergence failed.
 x:  0.08204  0.08476  0.08476  N:  0.000  9.000    NaN  Nx:     NaN   dN:       NaN
 TRCHEK2: N2 convergence failed.
 x:  0.08204  0.08476  0.08476  N:  0.000  9.000    NaN  Nx:     NaN   dN:       NaN
 TRCHEK2: N2 convergence failed.
 x:  0.08204  0.08476  0.08476  N:  0.000  9.000    NaN  Nx:     NaN   dN:       NaN
 TRCHEK2: N2 convergence failed.
 x:  0.08204  0.08476  0.08476  N:  0.000  9.000    NaN  Nx:     NaN   dN:       NaN
 TRCHEK2: N2 convergence failed.
 x:  0.08204  0.08476  0.08476  N:  0.000  9.000    NaN  Nx:     NaN   dN:       NaN
 TRCHEK2: N2 convergence failed.
 x:  0.08204  0.08476  0.08476  N:  0.000  9.000    NaN  Nx:     NaN   dN:       NaN
 TRCHEK2: N2 convergence failed.
 x:  0.08204  0.08476  0.08476  N:  0.000  9.000    NaN  Nx:     NaN   dN:       NaN
 TRCHEK2: N2 convergence failed.
 x:  0.08204  0.08476  0.08476  N:  0.000  9.000    NaN  Nx:     NaN   dN:       NaN
 TRCHEK2: N2 convergence failed.
 x:  0.08204  0.08476  0.08476  N:  0.000  9.000    NaN  Nx:     NaN   dN:       NaN
 MRCHDU: Convergence failed at  21  side 2    Res =         NaN
 MRCHDU: Convergence failed at  22  side 2    Res =  0.2874E+02
 MRCHDU: Convergence failed at  23  side 2    Res =  0.3695E+01
 MRCHDU: Convergence failed at  26  side 2    Res =  0.1045E+02
 MRCHDU: Convergence failed at  27  side 2    Res =  0.3852E+02
 MRCHDU: Convergence failed at  28  side 2    Res =  0.1469E+03
 MRCHDU: Convergence failed at  29  side 2    Res =  0.3008E+04
 MRCHDU: Convergence failed at  30  side 2    Res =  0.9912E+01
 MRCHDU: Convergence failed at  31  side 2    Res =  0.1119E+02
 MRCHDU: Convergence failed at  32  side 2    Res =  0.4143E+02
 MRCHDU: Convergence failed at  33  side 2    Res =  0.5331E+01
 MRCHDU: Convergence failed at  34  side 2    Res =  0.7489E+01
 MRCHDU: Convergence failed at  35  side 2    Res =  0.1352E+02
 MRCHDU: Convergence failed at  36  side 2    Res =  0.1301E+02
 MRCHDU: Convergence failed at  37  side 2    Res =  0.1253E+02
 MRCHDU: Convergence failed at  38  side 2    Res =  0.2589E+02
 MRCHDU: Convergence failed at  39  side 2    Res =  0.1302E+02
 MRCHDU: Convergence failed at  40  side 2    Res =  0.1490E+02
 MRCHDU: Convergence failed at  41  side 2    Res =  0.1119E+03
 MRCHDU: Convergence failed at  42  side 2    Res =  0.9058E+01
 MRCHDU: Convergence failed at  43  side 2    Res =  0.5324E+02
 MRCHDU: Convergence failed at  44  side 2    Res =  0.1845E+02
 MRCHDU: Convergence failed at  45  side 2    Res =  0.2279E+01
 MRCHDU: Convergence failed at  46  side 2    Res =  0.1787E+02
 MRCHDU: Convergence failed at  47  side 2    Res =  0.1674E+02
 MRCHDU: Convergence failed at  48  side 2    Res =  0.4363E+02
 MRCHDU: Convergence failed at  49  side 2    Res =  0.1175E+03
 MRCHDU: Convergence failed at  50  side 2    Res =  0.1572E+02
 MRCHDU: Convergence failed at  51  side 2    Res =  0.1492E+02
 MRCHDU: Convergence failed at  52  side 2    Res =  0.5127E+02
 MRCHDU: Convergence failed at  53  side 2    Res =  0.7870E+02
 MRCHDU: Convergence failed at  54  side 2    Res =  0.6812E+02
 MRCHDU: Convergence failed at  55  side 2    Res =  0.1391E+02
 MRCHDU: Convergence failed at  56  side 2    Res =  0.1339E+02
 MRCHDU: Convergence failed at  57  side 2    Res =  0.6475E+02
 MRCHDU: Convergence failed at  58  side 2    Res =  0.6925E+02
 MRCHDU: Convergence failed at  59  side 2    Res =  0.7741E+02
 MRCHDU: Convergence failed at  60  side 2    Res =  0.8519E+02
 MRCHDU: Convergence failed at  61  side 2    Res =  0.6228E+02
 MRCHDU: Convergence failed at  62  side 2    Res =  0.5822E+02
 MRCHDU: Convergence failed at  63  side 2    Res =  0.5417E+02
 MRCHDU: Convergence failed at  64  side 2    Res =  0.1905E+02
 MRCHDU: Convergence failed at  65  side 2    Res =  0.1870E+02
 MRCHDU: Convergence failed at  66  side 2    Res =  0.1873E+02
 MRCHDU: Convergence failed at  67  side 2    Res =  0.1872E+02
 MRCHDU: Convergence failed at  68  side 2    Res =  0.1855E+02
 MRCHDU: Convergence failed at  69  side 2    Res =  0.9749E+01
 MRCHDU: Convergence failed at  70  side 2    Res =  0.9878E+01
 MRCHDU: Convergence failed at  71  side 2    Res =  0.9848E+01
 MRCHDU: Convergence failed at  72  side 2    Res =  0.9869E+01
 MRCHDU: Convergence failed at  73  side 2    Res =  0.1108E+02
 MRCHDU: Convergence failed at  74  side 2    Res =  0.1113E+02
 MRCHDU: Convergence failed at  75  side 2    Res =  0.1115E+02
 MRCHDU: Convergence failed at  76  side 2    Res =  0.1114E+02
 MRCHDU: Convergence failed at  77  side 2    Res =  0.1115E+02
 MRCHDU: Convergence failed at  78  side 2    Res =  0.1129E+02
 MRCHDU: Convergence failed at  79  side 2    Res =  0.1144E+02
 MRCHDU: Convergence failed at  80  side 2    Res =  0.1153E+02
 MRCHDU: Convergence failed at  81  side 2    Res =  0.1173E+02
 MRCHDU: Convergence failed at  82  side 2    Res =  0.1176E+02
 MRCHDU: Convergence failed at  83  side 2    Res =  0.1181E+02
 MRCHDU: Convergence failed at  84  side 2    Res =  0.1189E+02
 MRCHDU: Convergence failed at  85  side 2    Res =  0.1184E+02
 MRCHDU: Convergence failed at  86  side 2    Res =  0.1184E+02
 MRCHDU: Convergence failed at  87  side 2    Res =  0.1175E+02
 MRCHDU: Convergence failed at  88  side 2    Res =  0.1174E+02
 MRCHDU: Convergence failed at  89  side 2    Res =  0.1166E+02
 MRCHDU: Convergence failed at  90  side 2    Res =  0.1174E+02
 MRCHDU: Convergence failed at  91  side 2    Res =  0.1204E+02
 MRCHDU: Convergence failed at  92  side 2    Res =  0.1269E+02
 MRCHDU: Convergence failed at  93  side 2    Res =  0.1295E+02
 MRCHDU: Convergence failed at  94  side 2    Res =  0.1378E+02
 MRCHDU: Convergence failed at  95  side 2    Res =  0.1543E+02
 MRCHDU: Convergence failed at  96  side 2    Res =  0.1722E+02
 MRCHDU: Convergence failed at  97  side 2    Res =  0.1831E+02
 MRCHDU: Convergence failed at  98  side 2    Res =  0.3911E+01
 Side 1  free  transition at x/c =  0.0888    4
 Side 2  free  transition at x/c =  0.0048   31

   1   rms: 0.1245E+02   max: -.9461E+01   U at   98  2   RLX: 0.039
       a = -4.000      CL =-96.6329
      Cm = 24.6952     CD =  0.00379   =>   CDf =  0.08829    CDp = -0.08450

 MRCHDU: Convergence failed at  59  side 2    Res =  0.6242E-02
 MRCHDU: Convergence failed at  60  side 2    Res =  0.1518E-02
 MRCHDU: Convergence failed at  61  side 2    Res =  0.2989E-01
 MRCHDU: Convergence failed at  62  side 2    Res =  0.2732E-01
 MRCHDU: Convergence failed at  63  side 2    Res =  0.2420E-01
 MRCHDU: Convergence failed at  64  side 2    Res =  0.3409E-01
 MRCHDU: Convergence failed at  73  side 2    Res =  0.6406E+00
 MRCHDU: Convergence failed at  76  side 2    Res =  0.2694E-02
 MRCHDU: Convergence failed at  81  side 2    Res =  0.2899E-03
 MRCHDU: Convergence failed at  84  side 2    Res =  0.2911E-01
 MRCHDU: Convergence failed at  88  side 2    Res =  0.4123E-01
 MRCHDU: Convergence failed at  90  side 2    Res =  0.2995E-01
 MRCHDU: Convergence failed at  92  side 2    Res =  0.3679E-02
 Side 1  free  transition at x/c =  0.0895    4
 Side 2  free  transition at x/c =  0.0932   38

   2   rms: 0.1254E+02   max: 0.1004E+03   C at   38  2   RLX: 0.005
       a = -4.000      CL =-92.9652
      Cm = 23.7967     CD =  0.00528   =>   CDf =  0.30900    CDp = -0.30372

 MRCHDU: Convergence failed at  62  side 2    Res =  0.2287E-01
 MRCHDU: Convergence failed at  64  side 2    Res =  0.3232E-01
 Side 1  free  transition at x/c =  0.0896    4
 Side 2  free  transition at x/c =  0.0586   36

   3   rms: 0.2859E+02   max: 0.4577E+03   C at   36  2   RLX: 0.002
       a = -4.000      CL =-92.6003
      Cm = 23.7057     CD =  0.00542   =>   CDf =  0.31320    CDp = -0.30778

 MRCHDU: Convergence failed at  62  side 2    Res =  0.1604E-01
 MRCHDU: Convergence failed at  64  side 2    Res =  0.3058E-01
 Side 1  free  transition at x/c =  0.0897    4
 Side 2  free  transition at x/c =  0.0428   35

   4   rms: 0.1188E+02   max: -.9071E+01   U at   98  2   RLX: 0.005
       a = -4.000      CL =-91.6691
      Cm = 23.4674     CD =  0.00541   =>   CDf =  0.31575    CDp = -0.31034

 MRCHDU: Convergence failed at  62  side 2    Res =  0.1649E-01
 MRCHDU: Convergence failed at  64  side 2    Res =  0.3043E-01
 Side 1  free  transition at x/c =  0.0898    4
 Side 2  free  transition at x/c =  0.0434   35

   5   rms: 0.1189E+02   max: -.9022E+01   U at   98  2   RLX: 0.005
       a = -4.000      CL =-90.7490
      Cm = 23.2305     CD =  0.00544   =>   CDf =  0.31276    CDp = -0.30732

 MRCHDU: Convergence failed at  62  side 2    Res =  0.1654E-01
 MRCHDU: Convergence failed at  64  side 2    Res =  0.3013E-01
 Side 1  free  transition at x/c =  0.0900    4
 Side 2  free  transition at x/c =  0.0401   35

   6   rms: 0.1220E+02   max: 0.4780E+02   D at   35  2   RLX: 0.006
       a = -4.000      CL =-89.8243
      Cm = 22.9928     CD =  0.00549   =>   CDf =  0.31073    CDp = -0.30525

 MRCHDU: Convergence failed at  62  side 2    Res =  0.1869E-01
 MRCHDU: Convergence failed at  64  side 2    Res =  0.3046E-01
 Side 1  free  transition at x/c =  0.0903    4
 Side 2  free  transition at x/c =  0.0487   35

   7   rms: 0.6019E+02   max: 0.1567E+04   C at   35  2   RLX: 0.001
       a = -4.000      CL =-89.6673
      Cm = 22.9523     CD =  0.00549   =>   CDf =  0.30578    CDp = -0.30029

 MRCHDU: Convergence failed at  62  side 2    Res =  0.1535E-01
 MRCHDU: Convergence failed at  64  side 2    Res =  0.2939E-01
 Side 1  free  transition at x/c =  0.0903    4
 Side 2  free  transition at x/c =  0.0327   34

   8   rms: 0.1159E+02   max: -.8910E+01   U at   98  2   RLX: 0.006
       a = -4.000      CL =-88.7512
      Cm = 22.7168     CD =  0.00555   =>   CDf =  0.30911    CDp = -0.30356

 MRCHDU: Convergence failed at  62  side 2    Res =  0.1447E-01
 MRCHDU: Convergence failed at  64  side 2    Res =  0.2891E-01
 Side 1  free  transition at x/c =  0.0906    4
 Side 2  free  transition at x/c =  0.0320   34

   9   rms: 0.1158E+02   max: -.8859E+01   U at   98  2   RLX: 0.006
       a = -4.000      CL =-87.8384
      Cm = 22.4805     CD =  0.00561   =>   CDf =  0.30649    CDp = -0.30089

 MRCHDU: Convergence failed at  62  side 2    Res =  0.1360E-01
 MRCHDU: Convergence failed at  64  side 2    Res =  0.2841E-01
 Side 1  free  transition at x/c =  0.0910    4
 Side 2  free  transition at x/c =  0.0313   34

  10   rms: 0.1174E+02   max: -.8803E+01   U at   98  2   RLX: 0.006
       a = -4.000      CL =-86.9293
      Cm = 22.2451     CD =  0.00570   =>   CDf =  0.30386    CDp = -0.29816

 MRCHDU: Convergence failed at  62  side 2    Res =  0.1270E-01
 MRCHDU: Convergence failed at  64  side 2    Res =  0.2790E-01
 Side 1  free  transition at x/c =  0.0916    4
 Side 2  free  transition at x/c =  0.0306   34

  11   rms: 0.1518E+02   max: 0.6954E+02   D at    6  1   RLX: 0.005
       a = -4.000      CL =-86.0706
      Cm = 22.0227     CD =  0.00598   =>   CDf =  0.30117    CDp = -0.29520

 MRCHDU: Convergence failed at  62  side 2    Res =  0.1173E-01
 MRCHDU: Convergence failed at  64  side 2    Res =  0.2734E-01
 Side 1  free  transition at x/c =  0.0931    4
 Side 2  free  transition at x/c =  0.0295   34

  12   rms: 0.1081E+03   max: -.6736E+03   D at    4  1   RLX: 0.001
       a = -4.000      CL =-85.9412
      Cm = 21.9915     CD =  0.00551   =>   CDf =  0.29858    CDp = -0.29308

 MRCHDU: Convergence failed at   4  side 1    Res =  0.4009E+01
 MRCHDU: Convergence failed at   5  side 1    Res =  0.2712E+02
 MRCHDU: Convergence failed at   6  side 1    Res =  0.4633E+02
 MRCHDU: Convergence failed at   7  side 1    Res =  0.3056E+04
 MRCHDU: Convergence failed at   8  side 1    Res =  0.4407E+03
 MRCHDU: Convergence failed at   9  side 1    Res =  0.8463E+02
 MRCHDU: Convergence failed at  10  side 1    Res =  0.4549E+02
 MRCHDU: Convergence failed at  11  side 1    Res =  0.4469E+02
 MRCHDU: Convergence failed at  12  side 1    Res =  0.4543E+02
 MRCHDU: Convergence failed at  13  side 1    Res =  0.4521E+02
 MRCHDU: Convergence failed at  14  side 1    Res =  0.6177E+02
 MRCHDU: Convergence failed at  15  side 1    Res =  0.4503E+02
 MRCHDU: Convergence failed at  16  side 1    Res =  0.2280E+03
 MRCHDU: Convergence failed at  17  side 1    Res =  0.2568E+03
 MRCHDU: Convergence failed at  18  side 1    Res =  0.1503E+03
 MRCHDU: Convergence failed at  19  side 1    Res =  0.4723E+02
 MRCHDU: Convergence failed at  20  side 1    Res =  0.5406E+02
 MRCHDU: Convergence failed at  21  side 1    Res =  0.5534E+02
 MRCHDU: Convergence failed at  22  side 1    Res =  0.5655E+02
 MRCHDU: Convergence failed at  23  side 1    Res =  0.5765E+02
 MRCHDU: Convergence failed at  24  side 1    Res =  0.5866E+02
 MRCHDU: Convergence failed at  25  side 1    Res =  0.5961E+02
 MRCHDU: Convergence failed at  26  side 1    Res =  0.6044E+02
 MRCHDU: Convergence failed at  27  side 1    Res =  0.6122E+02
 MRCHDU: Convergence failed at  28  side 1    Res =  0.6191E+02
 MRCHDU: Convergence failed at  29  side 1    Res =  0.6252E+02
 MRCHDU: Convergence failed at  30  side 1    Res =  0.6308E+02
 MRCHDU: Convergence failed at  31  side 1    Res =  0.6355E+02
 MRCHDU: Convergence failed at  32  side 1    Res =  0.6396E+02
 MRCHDU: Convergence failed at  33  side 1    Res =  0.6432E+02
 MRCHDU: Convergence failed at  34  side 1    Res =  0.6463E+02
 MRCHDU: Convergence failed at  35  side 1    Res =  0.6490E+02
 MRCHDU: Convergence failed at  36  side 1    Res =  0.6514E+02
 MRCHDU: Convergence failed at  37  side 1    Res =  0.6537E+02
 MRCHDU: Convergence failed at  38  side 1    Res =  0.6557E+02
 MRCHDU: Convergence failed at  39  side 1    Res =  0.6576E+02
 MRCHDU: Convergence failed at  40  side 1    Res =  0.6590E+02
 MRCHDU: Convergence failed at  41  side 1    Res =  0.6598E+02
 MRCHDU: Convergence failed at  42  side 1    Res =  0.6606E+02
 MRCHDU: Convergence failed at  43  side 1    Res =  0.6609E+02
 MRCHDU: Convergence failed at  44  side 1    Res =  0.6608E+02
 MRCHDU: Convergence failed at  45  side 1    Res =  0.6610E+02
 MRCHDU: Convergence failed at  46  side 1    Res =  0.6605E+02
 MRCHDU: Convergence failed at  47  side 1    Res =  0.6602E+02
 MRCHDU: Convergence failed at  48  side 1    Res =  0.6591E+02
 MRCHDU: Convergence failed at  49  side 1    Res =  0.6581E+02
 MRCHDU: Convergence failed at  50  side 1    Res =  0.6581E+02
 MRCHDU: Convergence failed at  51  side 1    Res =  0.6584E+02
 MRCHDU: Convergence failed at  52  side 1    Res =  0.6589E+02
 MRCHDU: Convergence failed at  53  side 1    Res =  0.6591E+02
 MRCHDU: Convergence failed at  54  side 1    Res =  0.6586E+02
 MRCHDU: Convergence failed at  55  side 1    Res =  0.6575E+02
 MRCHDU: Convergence failed at  56  side 1    Res =  0.6555E+02
 MRCHDU: Convergence failed at  57  side 1    Res =  0.6557E+02
 MRCHDU: Convergence failed at  58  side 1    Res =  0.6580E+02
 MRCHDU: Convergence failed at  59  side 1    Res =  0.6575E+02
 MRCHDU: Convergence failed at  60  side 1    Res =  0.6438E+02
 MRCHDU: Convergence failed at  61  side 1    Res =  0.6403E+02
 MRCHDU: Convergence failed at  62  side 1    Res =  0.6358E+02
 MRCHDU: Convergence failed at  63  side 1    Res =  0.6311E+02
 MRCHDU: Convergence failed at  64  side 1    Res =  0.6178E+02
 MRCHDU: Convergence failed at  62  side 2    Res =  0.1156E-01
 MRCHDU: Convergence failed at  64  side 2    Res =  0.2705E-01
 Side 1  free  transition at x/c =  0.0912    4
 Side 2  free  transition at x/c =  0.0298   34

  13   rms: 0.1152E+02   max: 0.1188E+02   D at  100  2   RLX: 0.006
       a = -4.000      CL =-80.6373
      Cm = 20.4368     CD =  0.00239   =>   CDf =  0.28440    CDp = -0.28201

 MRCHDU: Convergence failed at  62  side 2    Res =  0.1032E-01
 MRCHDU: Convergence failed at  64  side 2    Res =  0.2642E-01
 Side 1  free  transition at x/c =  0.0934    4
 Side 2  free  transition at x/c =  0.0275   34

  14   rms: 0.1085E+02   max: 0.1482E+02   D at  101  2   RLX: 0.006
       a = -4.000      CL =-82.1070
      Cm = 20.9969     CD =  0.04307   =>   CDf =  0.28342    CDp = -0.24035

 MRCHDU: Convergence failed at  33  side 2    Res =  0.1174E-01
 MRCHDU: Convergence failed at  62  side 2    Res =  0.9510E-02
 MRCHDU: Convergence failed at  64  side 2    Res =  0.2602E-01
 Side 1  free  transition at x/c =  0.0944    4
 Side 2  free  transition at x/c =  0.0325   34

  15   rms: 0.1379E+02   max: -.1250E+03   T at    4  1   RLX: 0.004
       a = -4.000      CL =-81.5639
      Cm = 20.8463     CD =  0.04594   =>   CDf =  0.27954    CDp = -0.23360

 MRCHDU: Convergence failed at  62  side 2    Res =  0.3849E-02
 MRCHDU: Convergence failed at  64  side 2    Res =  0.2395E-01
 Side 1  free  transition at x/c =  0.0969    4
 Side 2  free  transition at x/c =  0.0281   12

  16   rms: 0.1073E+02   max: -.3627E+02   T at    4  1   RLX: 0.006
       a = -4.000      CL =-80.6485
      Cm = 20.6081     CD =  0.04670   =>   CDf =  0.28278    CDp = -0.23608

 MRCHDU: Convergence failed at  62  side 2    Res =  0.2815E-02
 MRCHDU: Convergence failed at  64  side 2    Res =  0.2338E-01
 Side 1  free  transition at x/c =  0.0969    4
 Side 2  free  transition at x/c =  0.0323   10

  17   rms: 0.1071E+02   max: 0.8450E+01   D at  101  2   RLX: 0.006
       a = -4.000      CL =-79.7546
      Cm = 20.3769     CD =  0.04751   =>   CDf =  0.27979    CDp = -0.23227

 MRCHDU: Convergence failed at  62  side 2    Res =  0.1870E-02
 MRCHDU: Convergence failed at  64  side 2    Res =  0.2276E-01
 Side 1  free  transition at x/c =  0.0971    4
 Side 2  free  transition at x/c =  0.0352    8

  18   rms: 0.1062E+02   max: 0.8920E+01   D at  101  2   RLX: 0.006
       a = -4.000      CL =-78.8762
      Cm = 20.1497     CD =  0.04869   =>   CDf =  0.27683    CDp = -0.22814

 MRCHDU: Convergence failed at  62  side 2    Res =  0.1134E-02
 MRCHDU: Convergence failed at  64  side 2    Res =  0.2216E-01
 Side 1  free  transition at x/c =  0.0972    4
 Side 2  free  transition at x/c =  0.0372    8

  19   rms: 0.1096E+03   max: -.2121E+04   C at    8  2   RLX: 0.000
       a = -4.000      CL =-78.8439
      Cm = 20.1446     CD =  0.04987   =>   CDf =  0.27401    CDp = -0.22413

 MRCHDU: Convergence failed at  62  side 2    Res =  0.1146E-02
 MRCHDU: Convergence failed at  64  side 2    Res =  0.2171E-01
 Side 1  free  transition at x/c =  0.0974    4
 Side 2  free  transition at x/c =  0.0346    9

  20   rms: 0.1056E+02   max: 0.7938E+01   D at  101  2   RLX: 0.006
       a = -4.000      CL =-77.9654
      Cm = 19.9178     CD =  0.05018   =>   CDf =  0.27411    CDp = -0.22393

 MRCHDU: Convergence failed at  62  side 2    Res =  0.3971E-03
 MRCHDU: Convergence failed at  64  side 2    Res =  0.2112E-01
 Side 1  free  transition at x/c =  0.0975    4
 Side 2  free  transition at x/c =  0.0373    7

  21   rms: 0.1857E+02   max: -.3771E+03   C at    7  2   RLX: 0.001
       a = -4.000      CL =-77.7804
      Cm = 19.8712     CD =  0.05100   =>   CDf =  0.27121    CDp = -0.22021

 MRCHDU: Convergence failed at  62  side 2    Res =  0.2581E-03
 MRCHDU: Convergence failed at  64  side 2    Res =  0.2066E-01
 Side 1  free  transition at x/c =  0.0975    4
 Side 2  free  transition at x/c =  0.0366    8

  22   rms: 0.1101E+02   max: -.6921E+02   C at    8  2   RLX: 0.006
       a = -4.000      CL =-76.9234
      Cm = 19.6514     CD =  0.05181   =>   CDf =  0.27068    CDp = -0.21888

 MRCHDU: Convergence failed at  62  side 2    Res =  0.6261E-04
 MRCHDU: Convergence failed at  64  side 2    Res =  0.1972E-01
 Side 1  free  transition at x/c =  0.0970    4
 Side 2  free  transition at x/c =  0.0361    8

  23   rms: 0.1096E+02   max: -.6168E+02   C at    8  2   RLX: 0.006
       a = -4.000      CL =-76.0587
      Cm = 19.4300     CD =  0.05273   =>   CDf =  0.26812    CDp = -0.21539

 MRCHDU: Convergence failed at  62  side 2    Res =  0.1231E-03
 MRCHDU: Convergence failed at  64  side 2    Res =  0.1843E-01
 Side 1  free  transition at x/c =  0.0960    4
 Side 2  free  transition at x/c =  0.0355    8

  24   rms: 0.1184E+02   max: -.9565E+02   C at    8  2   RLX: 0.005
       a = -4.000      CL =-75.3339
      Cm = 19.2453     CD =  0.05369   =>   CDf =  0.26558    CDp = -0.21189

 MRCHDU: Convergence failed at  62  side 2    Res =  0.1122E-03
 MRCHDU: Convergence failed at  64  side 2    Res =  0.1725E-01
 Side 1  free  transition at x/c =  0.0937    4
 Side 2  free  transition at x/c =  0.0353    8

  25   rms: 0.1087E+02   max: -.7951E+01   U at   98  2   RLX: 0.007
       a = -4.000      CL =-74.4046
      Cm = 19.0028     CD =  0.05385   =>   CDf =  0.26341    CDp = -0.20956

 MRCHDU: Convergence failed at  64  side 2    Res =  0.1591E-01
 Side 1  free  transition at x/c =  0.0941    4
 Side 2  free  transition at x/c =  0.0353    8

  26   rms: 0.1088E+02   max: -.7938E+01   U at   98  2   RLX: 0.007
       a = -4.000      CL =-73.4950
      Cm = 18.7674     CD =  0.05436   =>   CDf =  0.26060    CDp = -0.20624

 MRCHDU: Convergence failed at  64  side 2    Res =  0.1488E-01
 Side 1  free  transition at x/c =  0.0944    4
 Side 2  free  transition at x/c =  0.0356    8

  27   rms: 0.1091E+02   max: -.7916E+01   U at   98  2   RLX: 0.007
       a = -4.000      CL =-72.5910
      Cm = 18.5343     CD =  0.05478   =>   CDf =  0.25778    CDp = -0.20300

 MRCHDU: Convergence failed at  64  side 2    Res =  0.1388E-01
 Side 1  free  transition at x/c =  0.0946    4
 Side 2  free  transition at x/c =  0.0358    8

  28   rms: 0.1093E+02   max: -.7863E+01   U at   98  2   RLX: 0.007
       a = -4.000      CL =-71.6932
      Cm = 18.3047     CD =  0.05527   =>   CDf =  0.25496    CDp = -0.19969

 MRCHDU: Convergence failed at  64  side 2    Res =  0.1293E-01
 Side 1  free  transition at x/c =  0.0948    4
 Side 2  free  transition at x/c =  0.0355    8

  29   rms: 0.1078E+02   max: -.7796E+01   U at   98  2   RLX: 0.007
       a = -4.000      CL =-70.7958
      Cm = 18.0758     CD =  0.05578   =>   CDf =  0.25216    CDp = -0.19638

 MRCHDU: Convergence failed at  64  side 2    Res =  0.1200E-01
 Side 1  free  transition at x/c =  0.0949    4
 Side 2  free  transition at x/c =  0.0354    8

  30   rms: 0.1077E+02   max: -.7755E+01   U at   98  2   RLX: 0.007
       a = -4.000      CL =-69.9017
      Cm = 17.8477     CD =  0.05620   =>   CDf =  0.24935    CDp = -0.19315

 MRCHDU: Convergence failed at  64  side 2    Res =  0.1108E-01
 Side 1  free  transition at x/c =  0.0951    4
 Side 2  free  transition at x/c =  0.0355    8

  31   rms: 0.1078E+02   max: -.7721E+01   U at   98  2   RLX: 0.007
       a = -4.000      CL =-69.0092
      Cm = 17.6202     CD =  0.05658   =>   CDf =  0.24653    CDp = -0.18995

 MRCHDU: Convergence failed at  64  side 2    Res =  0.1017E-01
 Side 1  free  transition at x/c =  0.0952    4
 Side 2  free  transition at x/c =  0.0356    8

  32   rms: 0.1091E+02   max: -.7704E+01   U at   98  2   RLX: 0.007
       a = -4.000      CL =-68.1222
      Cm = 17.3943     CD =  0.05684   =>   CDf =  0.24371    CDp = -0.18687

 MRCHDU: Convergence failed at  64  side 2    Res =  0.9275E-02
 Side 1  free  transition at x/c =  0.0950    4
 Side 2  free  transition at x/c =  0.0360    8

  33   rms: 0.1087E+02   max: -.7651E+01   U at   98  2   RLX: 0.007
       a = -4.000      CL =-67.2266
      Cm = 17.1653     CD =  0.05715   =>   CDf =  0.24089    CDp = -0.18375

 MRCHDU: Convergence failed at  64  side 2    Res =  0.8378E-02
 Side 1  free  transition at x/c =  0.0948    4
 Side 2  free  transition at x/c =  0.0363    8

  34   rms: 0.1092E+02   max: -.7623E+01   U at   98  2   RLX: 0.007
       a = -4.000      CL =-66.3436
      Cm = 16.9401     CD =  0.05730   =>   CDf =  0.23808    CDp = -0.18077

 MRCHDU: Convergence failed at  64  side 2    Res =  0.7479E-02
 Side 1  free  transition at x/c =  0.0944    4
 Side 2  free  transition at x/c =  0.0367    8

  35   rms: 0.1090E+02   max: -.7577E+01   U at   98  2   RLX: 0.007
       a = -4.000      CL =-65.4600
      Cm = 16.7146     CD =  0.05746   =>   CDf =  0.23526    CDp = -0.17780

 MRCHDU: Convergence failed at  64  side 2    Res =  0.6585E-02
 Side 1  free  transition at x/c =  0.0940    4
 Side 2  free  transition at x/c =  0.0372    8

  36   rms: 0.1090E+02   max: -.7545E+01   U at   98  2   RLX: 0.007
       a = -4.000      CL =-64.5749
      Cm = 16.4886     CD =  0.05755   =>   CDf =  0.23244    CDp = -0.17489

 MRCHDU: Convergence failed at  64  side 2    Res =  0.5702E-02
 Side 1  free  transition at x/c =  0.0935    4
 Side 2  free  transition at x/c =  0.0376    7

  37   rms: 0.1066E+02   max: -.7483E+01   U at   98  2   RLX: 0.008
       a = -4.000      CL =-63.6869
      Cm = 16.2622     CD =  0.05777   =>   CDf =  0.23408    CDp = -0.17631

 MRCHDU: Convergence failed at  63  side 2    Res =  0.4847E-02
 Side 1  free  transition at x/c =  0.0929    5
 Side 2  free  transition at x/c =  0.0351    7
 idif Ue xi dudx           1   3.8859067      1.06343031E-02   365.41245    
 Uenew xinew           2  6.09847833E-04  1.66893005E-06

  38   rms: 0.9549E+01   max: -.7193E+01   U at   97  2   RLX: 0.008
       a = -4.000      CL =-62.7965
      Cm = 16.0329     CD =  0.05919   =>   CDf =  0.22465    CDp = -0.16546

 MRCHDU: Convergence failed at  64  side 2    Res =  0.3670E-02
 Side 1  free  transition at x/c =  0.0935    4
 Side 2  free  transition at x/c =  0.0351    8

  39   rms: 0.1093E+02   max: -.9675E+02   T at    2  2   RLX: 0.005
       a = -4.000      CL =-62.2417
      Cm = 15.8932     CD =  0.06039   =>   CDf =  0.22857    CDp = -0.16818

 MRCHDU: Convergence failed at  63  side 2    Res =  0.3012E-02
 Side 1  free  transition at x/c =  0.0937    5
 Side 2  free  transition at x/c =  0.0399    6

  40   rms: 0.2952E+02   max: -.4885E+03   D at    2  1   RLX: 0.001
       a = -4.000      CL =-62.1203
      Cm = 15.8638     CD =  0.06072   =>   CDf =  0.22420    CDp = -0.16348

 MRCHDU: Convergence failed at  63  side 2    Res =  0.2899E-02
 Side 1  free  transition at x/c =  0.0934    5
 Side 2  free  transition at x/c =  0.0400    6

  41   rms: 0.9732E+01   max: -.7212E+01   U at   97  2   RLX: 0.008
       a = -4.000      CL =-61.2083
      Cm = 15.6278     CD =  0.06013   =>   CDf =  0.22375    CDp = -0.16362

 MRCHDU: Convergence failed at  63  side 2    Res =  0.1716E-02
 Side 1  free  transition at x/c =  0.0933    5
 Side 2  free  transition at x/c =  0.0402    5

  42   rms: 0.1265E+02   max: 0.1212E+03   C at    5  2   RLX: 0.008
       a = -4.000      CL =-60.3343
      Cm = 15.4069     CD =  0.05887   =>   CDf =  0.22086    CDp = -0.16199

 MRCHDU: Convergence failed at  63  side 2    Res =  0.6466E-03
 Side 1  free  transition at x/c =  0.0918    5
 Side 2  free  transition at x/c =  0.0425    5

  43   rms: 0.9718E+01   max: 0.3443E+02   C at    5  2   RLX: 0.008
       a = -4.000      CL =-59.4000
      Cm = 15.1645     CD =  0.06033   =>   CDf =  0.21799    CDp = -0.15766

 MRCHDU: Convergence failed at  63  side 2    Res =  0.5794E-04
 Side 1  free  transition at x/c =  0.0917    5
 Side 2  free  transition at x/c =  0.0436    4

  44   rms: 0.1199E+02   max: 0.1941E+03   C at    4  2   RLX: 0.008
       a = -4.000      CL =-58.5756
      Cm = 14.9546     CD =  0.06100   =>   CDf =  0.21508    CDp = -0.15407

 MRCHDU: Convergence failed at  63  side 2    Res =  0.1516E-03
 Side 1  free  transition at x/c =  0.0917    5
 Side 2  free  transition at x/c =  0.0451    4

  45   rms: 0.1003E+02   max: -.7045E+01   U at   97  2   RLX: 0.008
       a = -4.000      CL =-57.6891
      Cm = 14.7302     CD =  0.06103   =>   CDf =  0.21227    CDp = -0.15123

 Side 1  free  transition at x/c =  0.0915    5
 Side 2  free  transition at x/c =  0.0461    4

  46   rms: 0.9316E+01   max: -.6868E+01   U at   97  2   RLX: 0.009
       a = -4.000      CL =-56.8071
      Cm = 14.5055     CD =  0.06207   =>   CDf =  0.20928    CDp = -0.14721

 Side 1  free  transition at x/c =  0.0916    5
 Side 2  free  transition at x/c =  0.0469    4

  47   rms: 0.8706E+01   max: -.6666E+01   U at   97  2   RLX: 0.009
       a = -4.000      CL =-55.9406
      Cm = 14.2799     CD =  0.06374   =>   CDf =  0.20639    CDp = -0.14266

 Side 1  free  transition at x/c =  0.0922    5
 Side 2  free  transition at x/c =  0.0472    4
 idif Ue xi dudx           1   3.6958249      1.08165741E-02   341.68164    
 Uenew xinew           2  6.28488958E-02  1.83939934E-04

  48   rms: 0.1632E+02   max: 0.1588E+02   D at  108  2   RLX: 0.005
       a = -4.000      CL =-55.5078
      Cm = 14.1580     CD =  0.06794   =>   CDf =  0.19953    CDp = -0.13160

 Side 1  free  transition at x/c =  0.0923    4
 Side 2  free  transition at x/c =  0.0475    5

  49   rms: 0.8919E+01   max: -.6713E+01   U at   98  2   RLX: 0.009
       a = -4.000      CL =-54.5679
      Cm = 13.9097     CD =  0.06742   =>   CDf =  0.20038    CDp = -0.13296

 Side 1  free  transition at x/c =  0.0924    4
 Side 2  free  transition at x/c =  0.0476    5

  50   rms: 0.8827E+01   max: -.6668E+01   U at   98  2   RLX: 0.009
       a = -4.000      CL =-53.6827
      Cm = 13.6823     CD =  0.06820   =>   CDf =  0.19731    CDp = -0.12911

 Side 1  free  transition at x/c =  0.0924    4
 Side 2  free  transition at x/c =  0.0476    5

  51   rms: 0.8765E+01   max: -.6614E+01   U at   98  2   RLX: 0.009
       a = -4.000      CL =-52.7988
      Cm = 13.4550     CD =  0.06893   =>   CDf =  0.19439    CDp = -0.12546

 Side 1  free  transition at x/c =  0.0925    4
 Side 2  free  transition at x/c =  0.0476    5

  52   rms: 0.8553E+01   max: -.6379E+01   U at   98  2   RLX: 0.009
       a = -4.000      CL =-51.9483
      Cm = 13.2367     CD =  0.07108   =>   CDf =  0.19147    CDp = -0.12039

 Side 1  free  transition at x/c =  0.0928    4
 Side 2  free  transition at x/c =  0.0471    5

  53   rms: 0.8413E+01   max: -.6406E+01   U at   98  2   RLX: 0.010
       a = -4.000      CL =-51.0741
      Cm = 13.0098     CD =  0.07178   =>   CDf =  0.18865    CDp = -0.11686

 Side 1  free  transition at x/c =  0.0925    4
 Side 2  free  transition at x/c =  0.0471    5

  54   rms: 0.8347E+01   max: -.6341E+01   U at   98  2   RLX: 0.010
       a = -4.000      CL =-50.2071
      Cm = 12.7850     CD =  0.07283   =>   CDf =  0.18576    CDp = -0.11294

 Side 1  free  transition at x/c =  0.0922    4
 Side 2  free  transition at x/c =  0.0470    5

  55   rms: 0.8283E+01   max: -.6156E+01   U at   98  2   RLX: 0.010
       a = -4.000      CL =-49.3585
      Cm = 12.5662     CD =  0.07476   =>   CDf =  0.18288    CDp = -0.10812

 Side 1  free  transition at x/c =  0.0911    4
 Side 2  free  transition at x/c =  0.0462    5

  56   rms: 0.8293E+01   max: -.6264E+01   U at   98  2   RLX: 0.010
       a = -4.000      CL =-48.4586
      Cm = 12.3318     CD =  0.07534   =>   CDf =  0.18005    CDp = -0.10471

 Side 1  free  transition at x/c =  0.0907    4
 Side 2  free  transition at x/c =  0.0462    5

  57   rms: 0.8232E+01   max: -.6207E+01   U at   98  2   RLX: 0.010
       a = -4.000      CL =-47.5774
      Cm = 12.1043     CD =  0.07644   =>   CDf =  0.17714    CDp = -0.10070

 Side 1  free  transition at x/c =  0.0901    4
 Side 2  free  transition at x/c =  0.0460    5

  58   rms: 0.8357E+01   max: -.6157E+01   U at   98  2   RLX: 0.010
       a = -4.000      CL =-46.6922
      Cm = 11.8758     CD =  0.07777   =>   CDf =  0.17423    CDp = -0.09646

 Side 1  free  transition at x/c =  0.0891    4
 Side 2  free  transition at x/c =  0.0459    5

  59   rms: 0.1061E+02   max: 0.7222E+02   T at    4  1   RLX: 0.010
       a = -4.000      CL =-45.7728
      Cm = 11.6423     CD =  0.08109   =>   CDf =  0.17132    CDp = -0.09023

 MRCHDU: Convergence failed at   4  side 1    Res =  0.2187E+01
 MRCHDU: Convergence failed at   5  side 1    Res =  0.1170E-01
 MRCHDU: Convergence failed at   6  side 1    Res =  0.2726E-03
 Side 1  free  transition at x/c =  0.0880    3
 Side 2  free  transition at x/c =  0.0452    5

  60   rms: 0.2996E+04   max: -.5291E+03   U at  120  2   RLX: 0.000
       a = -4.000      CL =-46.4167
      Cm = 11.7888     CD =  3.53766   =>   CDf =  0.16855    CDp =  3.36911

 MRCHDU: Convergence failed at   4  side 1    Res =  0.5893E+01
 MRCHDU: Convergence failed at   5  side 1    Res =  0.1207E-01
 MRCHDU: Convergence failed at   6  side 1    Res =  0.2775E-03
 Side 1  free  transition at x/c =  0.0880    3
 Side 2  free  transition at x/c =  0.0452    5

  61   rms: 0.8829E+06   max: 0.1392E+06   U at  120  2   RLX: 0.000
       a = -4.000      CL =-46.4102
      Cm = 11.7867     CD =  3.81106   =>   CDf =  0.16857    CDp =  3.64249

 MRCHDU: Convergence failed at   4  side 1    Res =  0.5890E+01
 MRCHDU: Convergence failed at   5  side 1    Res =  0.1207E-01
 MRCHDU: Convergence failed at   6  side 1    Res =  0.2775E-03
 Side 1  free  transition at x/c =  0.0880    3
 Side 2  free  transition at x/c =  0.0452    5

  62   rms: 0.1900E+06   max: 0.3136E+05   U at  120  2   RLX: 0.000
       a = -4.000      CL =-46.4103
      Cm = 11.7867     CD =  3.81063   =>   CDf =  0.16857    CDp =  3.64207

 MRCHDU: Convergence failed at   4  side 1    Res =  0.5889E+01
 MRCHDU: Convergence failed at   5  side 1    Res =  0.1207E-01
 MRCHDU: Convergence failed at   6  side 1    Res =  0.2774E-03
 Side 1  free  transition at x/c =  0.0880    3
 Side 2  free  transition at x/c =  0.0452    5

  63   rms: 0.5820E+07   max: -.9359E+06   U at  120  2   RLX: 0.000
       a = -4.000      CL =-46.4103
      Cm = 11.7867     CD =  3.80742   =>   CDf =  0.16857    CDp =  3.63885

 MRCHDU: Convergence failed at   4  side 1    Res =  0.5889E+01
 MRCHDU: Convergence failed at   5  side 1    Res =  0.1207E-01
 MRCHDU: Convergence failed at   6  side 1    Res =  0.2774E-03
 Side 1  free  transition at x/c =  0.0880    3
 Side 2  free  transition at x/c =  0.0452    5

  64   rms: 0.5891E+06   max: -.9756E+05   U at  120  2   RLX: 0.000
       a = -4.000      CL =-46.4103
      Cm = 11.7867     CD =  3.80756   =>   CDf =  0.16857    CDp =  3.63899

 MRCHDU: Convergence failed at   4  side 1    Res =  0.5889E+01
[...]
 MRCHDU: Convergence failed at   6  side 2    Res =  0.3257E+01
 MRCHDU: Convergence failed at   7  side 2    Res =  0.1846E+01
 MRCHDU: Convergence failed at   8  side 2    Res =  0.1270E+01
 MRCHDU: Convergence failed at   9  side 2    Res =  0.1758E+01
 MRCHDU: Convergence failed at  10  side 2    Res =  0.2443E+01
 MRCHDU: Convergence failed at  11  side 2    Res =  0.2385E+01
 MRCHDU: Convergence failed at  12  side 2    Res =  0.2319E+01
 MRCHDU: Convergence failed at  13  side 2    Res =  0.1249E+01
 MRCHDU: Convergence failed at  14  side 2    Res =  0.5935E+00
 MRCHDU: Convergence failed at  15  side 2    Res =  0.2817E+00
 MRCHDU: Convergence failed at  16  side 2    Res =  0.3970E+00
 MRCHDU: Convergence failed at  17  side 2    Res =  0.3217E+00
 MRCHDU: Convergence failed at  18  side 2    Res =  0.2096E+01
 MRCHDU: Convergence failed at  19  side 2    Res =  0.3906E+00
 MRCHDU: Convergence failed at  20  side 2    Res =  0.5127E+00
 MRCHDU: Convergence failed at  21  side 2    Res =  0.1137E+01
 MRCHDU: Convergence failed at  22  side 2    Res =  0.1999E+01
 MRCHDU: Convergence failed at  23  side 2    Res =  0.9680E+00
 MRCHDU: Convergence failed at  24  side 2    Res =  0.3949E+00
 MRCHDU: Convergence failed at  30  side 2    Res =  0.1382E-03
 Side 1  free  transition at x/c =  0.0843    3
 Side 2 forced transition at x/c =  1.0000   98

  83   rms: 0.5901E+02   max: -.1024E+04   C at   98  2   RLX: 0.000
       a = 10.750      CL =  1.0412
      Cm = -0.1626     CD =  3.89567   =>   CDf =  0.00237    CDp =  3.89330

 MRCHDU: Convergence failed at   3  side 2    Res =  0.1554E+01
 MRCHDU: Convergence failed at   4  side 2    Res =  0.3012E-01
 MRCHDU: Convergence failed at   5  side 2    Res =  0.1838E-01
 MRCHDU: Convergence failed at  25  side 2    Res =  0.1042E+01
 MRCHDU: Convergence failed at  26  side 2    Res =  0.2800E+00
 Side 1  free  transition at x/c =  0.0842    3
 Side 2 forced transition at x/c =  1.0000   98

  84   rms: 0.3644E+02   max: -.4759E+03   C at   98  2   RLX: 0.001
       a = 10.750      CL =  1.0487
      Cm = -0.1592     CD =  3.89106   =>   CDf =  0.00232    CDp =  3.88874

 MRCHDU: Convergence failed at   3  side 2    Res =  0.1555E+01
 MRCHDU: Convergence failed at   4  side 2    Res =  0.3008E-01
 MRCHDU: Convergence failed at   5  side 2    Res =  0.1831E-01
 Side 1  free  transition at x/c =  0.0842    3
 Side 2 forced transition at x/c =  1.0000   98

  85   rms: 0.1751E+02   max: -.2371E+03   C at   98  2   RLX: 0.002
       a = 10.750      CL =  1.0586
      Cm = -0.1572     CD =  3.87047   =>   CDf =  0.00225    CDp =  3.86822

 MRCHDU: Convergence failed at   3  side 2    Res =  0.1555E+01
 MRCHDU: Convergence failed at   4  side 2    Res =  0.3004E-01
 MRCHDU: Convergence failed at   5  side 2    Res =  0.1819E-01
 Side 1  free  transition at x/c =  0.0841    3
 Side 2 forced transition at x/c =  1.0000   98

  86   rms: 0.9728E+01   max: -.1407E+03   C at   98  2   RLX: 0.004
       a = 10.750      CL =  1.0672
      Cm = -0.1554     CD =  3.85298   =>   CDf =  0.00219    CDp =  3.85079

 MRCHDU: Convergence failed at   3  side 2    Res =  0.1556E+01
 MRCHDU: Convergence failed at   4  side 2    Res =  0.3001E-01
 MRCHDU: Convergence failed at   5  side 2    Res =  0.1800E-01
 Side 1  free  transition at x/c =  0.0840    3
 Side 2 forced transition at x/c =  1.0000   98

  87   rms: 0.6746E+01   max: -.9955E+02   C at   98  2   RLX: 0.005
       a = 10.750      CL =  1.0754
      Cm = -0.1536     CD =  3.84341   =>   CDf =  0.00212    CDp =  3.84129

 MRCHDU: Convergence failed at   3  side 2    Res =  0.1556E+01
 MRCHDU: Convergence failed at   4  side 2    Res =  0.2998E-01
 MRCHDU: Convergence failed at   5  side 2    Res =  0.1775E-01
 Side 1  free  transition at x/c =  0.0840    3
 Side 2 forced transition at x/c =  1.0000   98

  88   rms: 0.4531E+01   max: -.7329E+02   C at   98  2   RLX: 0.007
       a = 10.750      CL =  1.0805
      Cm = -0.1521     CD =  3.83611   =>   CDf =  0.00205    CDp =  3.83406

 MRCHDU: Convergence failed at   3  side 2    Res =  0.1557E+01
 MRCHDU: Convergence failed at   4  side 2    Res =  0.2997E-01
 MRCHDU: Convergence failed at   5  side 2    Res =  0.1741E-01
 Side 1  free  transition at x/c =  0.0839    3
 Side 2 forced transition at x/c =  1.0000   98

  89   rms: 0.3427E+01   max: -.5423E+02   C at   98  2   RLX: 0.009
       a = 10.750      CL =  1.0844
      Cm = -0.1505     CD =  3.83622   =>   CDf =  0.00199    CDp =  3.83423

 MRCHDU: Convergence failed at   3  side 2    Res =  0.1557E+01
 MRCHDU: Convergence failed at   4  side 2    Res =  0.2997E-01
 MRCHDU: Convergence failed at   5  side 2    Res =  0.1697E-01
 Side 1  free  transition at x/c =  0.0839    3
 Side 2 forced transition at x/c =  1.0000   98

  90   rms: 0.2602E+01   max: -.4041E+02   C at   98  2   RLX: 0.012
       a = 10.750      CL =  1.0859
      Cm = -0.1491     CD =  3.84284   =>   CDf =  0.00192    CDp =  3.84092

 MRCHDU: Convergence failed at   3  side 2    Res =  0.1557E+01
 MRCHDU: Convergence failed at   4  side 2    Res =  0.2998E-01
 MRCHDU: Convergence failed at   5  side 2    Res =  0.1636E-01
 Side 1  free  transition at x/c =  0.0839    3
 Side 2 forced transition at x/c =  1.0000   98

  91   rms: 0.2051E+01   max: -.2922E+02   C at   98  2   RLX: 0.017
       a = 10.750      CL =  1.0827
      Cm = -0.1477     CD =  3.86120   =>   CDf =  0.00184    CDp =  3.85935

 MRCHDU: Convergence failed at   3  side 2    Res =  0.1557E+01
 MRCHDU: Convergence failed at   4  side 2    Res =  0.3002E-01
 MRCHDU: Convergence failed at   5  side 2    Res =  0.1552E-01
 Side 1  free  transition at x/c =  0.0838    3
 Side 2 forced transition at x/c =  1.0000   98

  92   rms: 0.1797E+01   max: -.2322E+02   C at   98  2   RLX: 0.022
       a = 10.750      CL =  1.0753
      Cm = -0.1468     CD =  3.90300   =>   CDf =  0.00177    CDp =  3.90123

 MRCHDU: Convergence failed at   3  side 2    Res =  0.1556E+01
 MRCHDU: Convergence failed at   4  side 2    Res =  0.3009E-01
 MRCHDU: Convergence failed at   5  side 2    Res =  0.1450E-01
 Side 1  free  transition at x/c =  0.0838    3
 Side 2 forced transition at x/c =  1.0000   98

  93   rms: 0.1628E+01   max: -.1657E+02   C at   98  2   RLX: 0.030
       a = 10.750      CL =  1.0599
      Cm = -0.1461     CD =  3.95701   =>   CDf =  0.00169    CDp =  3.95532

 MRCHDU: Convergence failed at   3  side 2    Res =  0.1555E+01
 MRCHDU: Convergence failed at   4  side 2    Res =  0.3018E-01
 MRCHDU: Convergence failed at   5  side 2    Res =  0.1337E-01
 MRCHDU: Convergence failed at   6  side 2    Res =  0.2039E+00
 MRCHDU: Convergence failed at   7  side 2    Res =  0.1444E+00
 MRCHDU: Convergence failed at  98  side 2    Res =  0.8393E-01
 Side 1  free  transition at x/c =  0.0838    3
 Side 2 forced transition at x/c =  1.0000   98

  94   rms: 0.7232E+01   max: -.1484E+03   C at   98  2   RLX: 0.003
       a = 10.750      CL =  1.0706
      Cm = -0.1432     CD =  4.11923   =>   CDf =  0.00157    CDp =  4.11767

 MRCHDU: Convergence failed at   3  side 2    Res =  0.1556E+01
 MRCHDU: Convergence failed at   4  side 2    Res =  0.3017E-01
 MRCHDU: Convergence failed at   5  side 2    Res =  0.1277E-01
 MRCHDU: Convergence failed at   8  side 2    Res =  0.9219E+00
 MRCHDU: Convergence failed at   9  side 2    Res =  0.9366E+00
 MRCHDU: Convergence failed at  10  side 2    Res =  0.7147E+00
 MRCHDU: Convergence failed at  11  side 2    Res =  0.6413E+00
 MRCHDU: Convergence failed at  12  side 2    Res =  0.5925E+00
 MRCHDU: Convergence failed at  13  side 2    Res =  0.5538E+00
 MRCHDU: Convergence failed at  14  side 2    Res =  0.4094E+00
 MRCHDU: Convergence failed at  15  side 2    Res =  0.4627E+00
 MRCHDU: Convergence failed at  16  side 2    Res =  0.3425E+00
 MRCHDU: Convergence failed at  17  side 2    Res =  0.1601E+00
 MRCHDU: Convergence failed at  98  side 2    Res =  0.2233E+00
 Side 1  free  transition at x/c =  0.0838    3
 Side 2 forced transition at x/c =  1.0000   98

  95   rms: 0.2662E+02   max: 0.6343E+03   C at   98  2   RLX: 0.002
       a = 10.750      CL =  1.0776
      Cm = -0.1411     CD =  4.04560   =>   CDf =  0.00118    CDp =  4.04442

 MRCHDU: Convergence failed at   3  side 2    Res =  0.1555E+01
 MRCHDU: Convergence failed at   4  side 2    Res =  0.3015E-01
 MRCHDU: Convergence failed at   5  side 2    Res =  0.1243E-01
 MRCHDU: Convergence failed at  18  side 2    Res =  0.4864E+00
 MRCHDU: Convergence failed at  19  side 2    Res =  0.5060E+01
 MRCHDU: Convergence failed at  20  side 2    Res =  0.4541E+00
 MRCHDU: Convergence failed at  21  side 2    Res =  0.7204E+00
 MRCHDU: Convergence failed at  27  side 2    Res =  0.5577E+00
 MRCHDU: Convergence failed at  36  side 2    Res =  0.1269E+01
 Side 1  free  transition at x/c =  0.0838    3
 Side 2 forced transition at x/c =  1.0000   98

  96   rms: 0.7178E+01   max: 0.9386E+02   C at   98  2   RLX: 0.015
       a = 10.750      CL =  1.0396
      Cm = -0.1453     CD =  3.97997   =>   CDf =  0.00099    CDp =  3.97898

 MRCHDU: Convergence failed at   3  side 2    Res =  0.1552E+01
 MRCHDU: Convergence failed at   4  side 2    Res =  0.3031E-01
 MRCHDU: Convergence failed at   5  side 2    Res =  0.1170E-01
 Side 1  free  transition at x/c =  0.0840    3
 Side 2 forced transition at x/c =  1.0000   98

  97   rms: 0.1967E+02   max: 0.2596E+03   C at   98  2   RLX: 0.006
       a = 10.750      CL =  1.0025
      Cm = -0.1503     CD =  4.11316   =>   CDf =  0.00123    CDp =  4.11192

 MRCHDU: Convergence failed at   3  side 2    Res =  0.1549E+01
 MRCHDU: Convergence failed at   4  side 2    Res =  0.3037E-01
 MRCHDU: Convergence failed at   5  side 2    Res =  0.1158E-01
 Side 1  free  transition at x/c =  0.0842    3
 Side 2 forced transition at x/c =  1.0000   98

  98   rms: 0.3137E+01   max: -.2478E+02   C at   98  2   RLX: 0.020
       a = 10.750      CL =  1.0018
      Cm = -0.1483     CD =  4.18592   =>   CDf =  0.00138    CDp =  4.18454

 MRCHDU: Convergence failed at   3  side 2    Res =  0.1549E+01
 MRCHDU: Convergence failed at   4  side 2    Res =  0.3050E-01
 MRCHDU: Convergence failed at   5  side 2    Res =  0.9261E-02
 Side 1  free  transition at x/c =  0.0842    3
 Side 2 forced transition at x/c =  1.0000   98

  99   rms: 0.4966E+01   max: -.6122E+02   C at   98  2   RLX: 0.008
       a = 10.750      CL =  1.0062
      Cm = -0.1460     CD =  4.25239   =>   CDf =  0.00142    CDp =  4.25098

 MRCHDU: Convergence failed at   3  side 2    Res =  0.1550E+01
 MRCHDU: Convergence failed at   4  side 2    Res =  0.3054E-01
 MRCHDU: Convergence failed at   5  side 2    Res =  0.8539E-02
 Side 1  free  transition at x/c =  0.0841    3
 Side 2 forced transition at x/c =  1.0000   98

 100   rms: 0.1685E+02   max: -.2270E+03   C at   98  2   RLX: 0.002
       a = 10.750      CL =  1.0152
      Cm = -0.1438     CD =  4.26803   =>   CDf =  0.00140    CDp =  4.26663

 MRCHDU: Convergence failed at   3  side 2    Res =  0.1551E+01
 MRCHDU: Convergence failed at   4  side 2    Res =  0.3055E-01
 MRCHDU: Convergence failed at   5  side 2    Res =  0.8458E-02
 Side 1  free  transition at x/c =  0.0840    3
 Side 2 forced transition at x/c =  1.0000   98

 101   rms: 0.3354E+02   max: 0.4484E+03   C at   98  2   RLX: 0.003
       a = 10.750      CL =  0.9817
      Cm = -0.1491     CD =  4.22071   =>   CDf =  0.00136    CDp =  4.21935

 MRCHDU: Convergence failed at   3  side 2    Res =  0.1548E+01
 MRCHDU: Convergence failed at   4  side 2    Res =  0.3059E-01
 MRCHDU: Convergence failed at   5  side 2    Res =  0.7933E-02
 Side 1  free  transition at x/c =  0.0843    3
 Side 2 forced transition at x/c =  1.0000   98

 102   rms: 0.3304E+01   max: -.2987E+02   C at   98  2   RLX: 0.017
       a = 10.750      CL =  0.9833
      Cm = -0.1471     CD =  4.29363   =>   CDf =  0.00151    CDp =  4.29212

 MRCHDU: Convergence failed at   3  side 2    Res =  0.1548E+01
 MRCHDU: Convergence failed at   4  side 2    Res =  0.3069E-01
 MRCHDU: Convergence failed at   5  side 2    Res =  0.5437E-02
 Side 1  free  transition at x/c =  0.0842    3
 Side 2 forced transition at x/c =  1.0000   98

 103   rms: 0.5262E+01   max: -.6516E+02   C at   98  2   RLX: 0.008
       a = 10.750      CL =  0.9890
      Cm = -0.1450     CD =  4.34214   =>   CDf =  0.00152    CDp =  4.34062

 MRCHDU: Convergence failed at   3  side 2    Res =  0.1549E+01
 MRCHDU: Convergence failed at   4  side 2    Res =  0.3074E-01
 MRCHDU: Convergence failed at   5  side 2    Res =  0.4785E-02
 Side 1  free  transition at x/c =  0.0841    3
 Side 2 forced transition at x/c =  1.0000   98

 104   rms: 0.1282E+02   max: -.1715E+03   C at   98  2   RLX: 0.003
       a = 10.750      CL =  0.9981
      Cm = -0.1430     CD =  4.35112   =>   CDf =  0.00149    CDp =  4.34963

 MRCHDU: Convergence failed at   3  side 2    Res =  0.1550E+01
 MRCHDU: Convergence failed at   4  side 2    Res =  0.3076E-01
 MRCHDU: Convergence failed at   5  side 2    Res =  0.4805E-02
 Side 1  free  transition at x/c =  0.0840    3
 Side 2 forced transition at x/c =  1.0000   98

 105   rms: 0.2855E+03   max: 0.3900E+04   C at   98  2   RLX: 0.000
       a = 10.750      CL =  0.9938
      Cm = -0.1436     CD =  4.33184   =>   CDf =  0.00145    CDp =  4.33039

 MRCHDU: Convergence failed at   3  side 2    Res =  0.1549E+01
 MRCHDU: Convergence failed at   4  side 2    Res =  0.3076E-01
 MRCHDU: Convergence failed at   5  side 2    Res =  0.4716E-02
 Side 1  free  transition at x/c =  0.0841    3
 Side 2 forced transition at x/c =  1.0000   98

 106   rms: 0.4294E+02   max: -.5769E+03   C at   98  2   RLX: 0.001
       a = 10.750      CL =  1.0049
      Cm = -0.1417     CD =  4.34722   =>   CDf =  0.00147    CDp =  4.34575

 MRCHDU: Convergence failed at   3  side 2    Res =  0.1550E+01
 MRCHDU: Convergence failed at   4  side 2    Res =  0.3076E-01
 MRCHDU: Convergence failed at   5  side 2    Res =  0.4898E-02
 Side 1  free  transition at x/c =  0.0840    3
 Side 2 forced transition at x/c =  1.0000   98

 107   rms: 0.2200E+02   max: 0.3012E+03   C at   98  2   RLX: 0.005
       a = 10.750      CL =  0.9704
      Cm = -0.1468     CD =  4.28923   =>   CDf =  0.00142    CDp =  4.28781

 MRCHDU: Convergence failed at   3  side 2    Res =  0.1547E+01
 MRCHDU: Convergence failed at   4  side 2    Res =  0.3082E-01
 MRCHDU: Convergence failed at   5  side 2    Res =  0.3496E-02
 Side 1  free  transition at x/c =  0.0842    3
 Side 2 forced transition at x/c =  1.0000   98

 108   rms: 0.4455E+01   max: -.5040E+02   C at   98  2   RLX: 0.010
       a = 10.750      CL =  0.9760
      Cm = -0.1452     CD =  4.39331   =>   CDf =  0.00159    CDp =  4.39172

 MRCHDU: Convergence failed at   3  side 2    Res =  0.1548E+01
 MRCHDU: Convergence failed at   4  side 2    Res =  0.3088E-01
 MRCHDU: Convergence failed at   5  side 2    Res =  0.2505E-02
 Side 1  free  transition at x/c =  0.0841    3
 Side 2 forced transition at x/c =  1.0000   98

 109   rms: 0.9320E+01   max: -.1203E+03   C at   98  2   RLX: 0.004
       a = 10.750      CL =  0.9840
      Cm = -0.1431     CD =  4.40962   =>   CDf =  0.00157    CDp =  4.40806

 MRCHDU: Convergence failed at   3  side 2    Res =  0.1549E+01
 MRCHDU: Convergence failed at   4  side 2    Res =  0.3091E-01
 MRCHDU: Convergence failed at   5  side 2    Res =  0.2281E-02
 Side 1  free  transition at x/c =  0.0841    3
 Side 2 forced transition at x/c =  1.0000   98

 110   rms: 0.3519E+02   max: -.4755E+03   C at   98  2   RLX: 0.001
       a = 10.750      CL =  0.9944
      Cm = -0.1412     CD =  4.40233   =>   CDf =  0.00152    CDp =  4.40081

 MRCHDU: Convergence failed at   3  side 2    Res =  0.1549E+01
 MRCHDU: Convergence failed at   4  side 2    Res =  0.3091E-01
 MRCHDU: Convergence failed at   5  side 2    Res =  0.2531E-02
 Side 1  free  transition at x/c =  0.0840    3
 Side 2 forced transition at x/c =  1.0000   98

 111   rms: 0.3407E+02   max: 0.4667E+03   C at   98  2   RLX: 0.003
       a = 10.750      CL =  0.9608
      Cm = -0.1463     CD =  4.34769   =>   CDf =  0.00147    CDp =  4.34622

 MRCHDU: Convergence failed at   3  side 2    Res =  0.1547E+01
 MRCHDU: Convergence failed at   4  side 2    Res =  0.3096E-01
 MRCHDU: Convergence failed at   5  side 2    Res =  0.7805E-03
 Side 1  free  transition at x/c =  0.0842    3
 Side 2 forced transition at x/c =  1.0000   98

 112   rms: 0.4747E+01   max: -.5286E+02   C at   98  2   RLX: 0.009
       a = 10.750      CL =  0.9671
      Cm = -0.1445     CD =  4.44356   =>   CDf =  0.00166    CDp =  4.44190

 MRCHDU: Convergence failed at   3  side 2    Res =  0.1547E+01
 MRCHDU: Convergence failed at   4  side 2    Res =  0.3102E-01
 Side 1  free  transition at x/c =  0.0841    3
 Side 2 forced transition at x/c =  1.0000   98

 113   rms: 0.9873E+01   max: -.1269E+03   C at   98  2   RLX: 0.004
       a = 10.750      CL =  0.9755
      Cm = -0.1425     CD =  4.45540   =>   CDf =  0.00162    CDp =  4.45378

 MRCHDU: Convergence failed at   3  side 2    Res =  0.1548E+01
 MRCHDU: Convergence failed at   4  side 2    Res =  0.3105E-01
 Side 1  free  transition at x/c =  0.0841    3
 Side 2 forced transition at x/c =  1.0000   98

 114   rms: 0.2815E+02   max: -.3825E+03   C at   98  2   RLX: 0.001
       a = 10.750      CL =  0.9858
      Cm = -0.1406     CD =  4.44591   =>   CDf =  0.00157    CDp =  4.44434

 MRCHDU: Convergence failed at   3  side 2    Res =  0.1549E+01
 MRCHDU: Convergence failed at   4  side 2    Res =  0.3105E-01
 MRCHDU: Convergence failed at   5  side 2    Res =  0.3188E-03
 Side 1  free  transition at x/c =  0.0840    3
 Side 2 forced transition at x/c =  1.0000   98

 115   rms: 0.1141E+03   max: 0.1701E+04   C at   98  2   RLX: 0.000
       a = 10.750      CL =  0.9752
      Cm = -0.1422     CD =  4.41089   =>   CDf =  0.00152    CDp =  4.40938

 MRCHDU: Convergence failed at   3  side 2    Res =  0.1548E+01
 MRCHDU: Convergence failed at   4  side 2    Res =  0.3106E-01
 Side 1  free  transition at x/c =  0.0841    3
 Side 2 forced transition at x/c =  1.0000   98

 116   rms: 0.3266E+02   max: -.4404E+03   C at   98  2   RLX: 0.001
       a = 10.750      CL =  0.9862
      Cm = -0.1404     CD =  4.44556   =>   CDf =  0.00157    CDp =  4.44398

 MRCHDU: Convergence failed at   3  side 2    Res =  0.1549E+01
 MRCHDU: Convergence failed at   4  side 2    Res =  0.3106E-01
 MRCHDU: Convergence failed at   5  side 2    Res =  0.2530E-03
 Side 1  free  transition at x/c =  0.0840    3
 Side 2 forced transition at x/c =  1.0000   98

 117   rms: 0.9813E+02   max: 0.1375E+04   C at   98  2   RLX: 0.000
       a = 10.750      CL =  0.9744
      Cm = -0.1423     CD =  4.41072   =>   CDf =  0.00152    CDp =  4.40920

 MRCHDU: Convergence failed at   3  side 2    Res =  0.1548E+01
 MRCHDU: Convergence failed at   4  side 2    Res =  0.3108E-01
 Side 1  free  transition at x/c =  0.0841    3
 Side 2 forced transition at x/c =  1.0000   98

 118   rms: 0.3147E+02   max: -.4253E+03   C at   98  2   RLX: 0.001
       a = 10.750      CL =  0.9852
      Cm = -0.1405     CD =  4.45064   =>   CDf =  0.00158    CDp =  4.44906

 MRCHDU: Convergence failed at   3  side 2    Res =  0.1549E+01
 MRCHDU: Convergence failed at   4  side 2    Res =  0.3108E-01
 MRCHDU: Convergence failed at   5  side 2    Res =  0.8540E-04
 Side 1  free  transition at x/c =  0.0840    3
 Side 2 forced transition at x/c =  1.0000   98

 119   rms: 0.1008E+03   max: 0.1377E+04   C at   98  2   RLX: 0.000
       a = 10.750      CL =  0.9738
      Cm = -0.1422     CD =  4.41707   =>   CDf =  0.00152    CDp =  4.41555

 MRCHDU: Convergence failed at   3  side 2    Res =  0.1548E+01
 MRCHDU: Convergence failed at   4  side 2    Res =  0.3109E-01
 Side 1  free  transition at x/c =  0.0841    3
 Side 2 forced transition at x/c =  1.0000   98


[TIMEOUT]
