  
       XFOIL         Version 6.99
  
 Calculated polar for: GOE 493 AIRFOIL                                 
  
 1 1 Reynolds number fixed          Mach number fixed         
  
 xtrf =   1.000 (top)        1.000 (bottom)  
 Mach =   0.000     Re =     0.400 e 6     Ncrit =   9.000
  
   alpha    CL        CD       CDp       CM     Top_Xtr  Bot_Xtr
  ------ -------- --------- --------- -------- -------- --------
-4.000  -0.0024   0.00980   0.00382  -0.1057   0.8398   0.3298
-3.500   0.0484   0.00946   0.00361  -0.1047   0.8285   0.3895
-3.000   0.1022   0.00922   0.00343  -0.1043   0.8174   0.4405
-2.500   0.1553   0.00907   0.00328  -0.1036   0.8052   0.4792
-2.000   0.2070   0.00896   0.00319  -0.1027   0.7919   0.5134
-1.500   0.2595   0.00888   0.00311  -0.1019   0.7785   0.5441
-1.000   0.3118   0.00879   0.00305  -0.1011   0.7644   0.5755
-0.500   0.3632   0.00871   0.00300  -0.1000   0.7485   0.6079
0.000   0.4141   0.00863   0.00296  -0.0988   0.7320   0.6388
0.500   0.4642   0.00857   0.00295  -0.0975   0.7146   0.6737
1.000   0.5135   0.00854   0.00302  -0.0960   0.6985   0.7167
1.500   0.5623   0.00853   0.00313  -0.0944   0.6830   0.7648
2.000   0.6101   0.00853   0.00327  -0.0925   0.6678   0.8174
2.500   0.6601   0.00852   0.00343  -0.0910   0.6532   0.8813
3.000   0.7442   0.00869   0.00370  -0.0971   0.6375   0.9471
3.500   0.8348   0.00896   0.00395  -0.1049   0.6193   0.9856
4.000   0.8932   0.00924   0.00413  -0.1059   0.5982   1.0000
4.500   0.9284   0.00948   0.00434  -0.1019   0.5768   1.0000
5.000   0.9636   0.00977   0.00457  -0.0977   0.5534   1.0000
5.500   0.9977   0.01010   0.00486  -0.0934   0.5280   1.0000
6.000   1.0280   0.01051   0.00519  -0.0884   0.4974   1.0000
6.500   1.0529   0.01098   0.00559  -0.0823   0.4639   1.0000
7.000   1.0726   0.01165   0.00611  -0.0754   0.4213   1.0000
7.500   1.0914   0.01260   0.00687  -0.0689   0.3733   1.0000
8.000   1.1092   0.01380   0.00786  -0.0626   0.3265   1.0000
8.500   1.1250   0.01529   0.00912  -0.0565   0.2700   1.0000
9.000   1.1127   0.01841   0.01152  -0.0473   0.1468   1.0000
10.000   1.1228   0.02401   0.01661  -0.0357   0.0563   1.0000
10.250   1.1316   0.02515   0.01776  -0.0338   0.0529   1.0000
10.500   1.1369   0.02657   0.01920  -0.0317   0.0502   1.0000
10.750   1.1476   0.02765   0.02035  -0.0303   0.0486   1.0000
11.000   1.1565   0.02889   0.02164  -0.0287   0.0469   1.0000
11.250   1.1645   0.03023   0.02304  -0.0272   0.0453   1.0000
11.500   1.1701   0.03180   0.02464  -0.0256   0.0440   1.0000
11.750   1.1709   0.03378   0.02666  -0.0238   0.0423   1.0000
12.000   1.1764   0.03546   0.02842  -0.0224   0.0413   1.0000
12.250   1.1848   0.03697   0.03001  -0.0213   0.0402   1.0000
12.500   1.1920   0.03859   0.03170  -0.0202   0.0392   1.0000
12.750   1.1976   0.04039   0.03356  -0.0192   0.0380   1.0000
13.000   1.2029   0.04227   0.03549  -0.0182   0.0369   1.0000
13.250   1.2056   0.04441   0.03766  -0.0171   0.0359   1.0000
13.500   1.2034   0.04695   0.04023  -0.0157   0.0345   1.0000
13.750   1.2123   0.04863   0.04201  -0.0151   0.0338   1.0000
14.000   1.2198   0.05045   0.04392  -0.0145   0.0330   1.0000
14.250   1.2267   0.05236   0.04591  -0.0139   0.0320   1.0000
14.500   1.2326   0.05438   0.04798  -0.0134   0.0309   1.0000
14.750   1.2377   0.05649   0.05011  -0.0129   0.0299   1.0000
15.000   1.2419   0.05856   0.05219  -0.0120   0.0288   1.0000
15.250   1.2475   0.06060   0.05432  -0.0113   0.0279   1.0000
15.500   1.2533   0.06280   0.05663  -0.0111   0.0271   1.0000
15.750   1.2585   0.06505   0.05899  -0.0109   0.0262   1.0000
16.000   1.2637   0.06730   0.06131  -0.0107   0.0255   1.0000
16.250   1.2680   0.06969   0.06377  -0.0106   0.0248   1.0000
16.500   1.2729   0.07199   0.06610  -0.0106   0.0241   1.0000
16.750   1.2806   0.07364   0.06773  -0.0094   0.0230   1.0000
17.000   1.2813   0.07666   0.07090  -0.0098   0.0227   1.0000
17.250   1.2812   0.07985   0.07425  -0.0104   0.0221   1.0000
17.500   1.2818   0.08296   0.07748  -0.0109   0.0214   1.0000
17.750   1.2819   0.08619   0.08083  -0.0116   0.0208   1.0000
18.000   1.2826   0.08934   0.08408  -0.0123   0.0203   1.0000
18.250   1.2832   0.09250   0.08732  -0.0130   0.0199   1.0000
18.750   1.2861   0.09848   0.09337  -0.0144   0.0190   1.0000
19.250   1.2774   0.10650   0.10168  -0.0166   0.0183   1.0000
19.750   1.2628   0.11606   0.11160  -0.0205   0.0176   1.0000
20.250   1.2469   0.12615   0.12201  -0.0253   0.0170   1.0000
20.750   1.2314   0.13655   0.13268  -0.0308   0.0165   1.0000
21.250   1.2140   0.14770   0.14408  -0.0374   0.0160   1.0000
21.750   1.1944   0.15963   0.15626  -0.0448   0.0157   1.0000
22.250   1.1843   0.16970   0.16644  -0.0514   0.0152   1.0000
