
 ===================================================
  XFOIL Version 6.99
  Copyright (C) 2000   Mark Drela, Harold Youngren

  This software comes with ABSOLUTELY NO WARRANTY,
    subject to the GNU General Public License.

  Caveat computor
 ===================================================

 File  xfoil.def  not found

   QUIT    Exit program

  .OPER    Direct operating point(s)
  .MDES    Complex mapping design routine
  .QDES    Surface speed design routine
  .GDES    Geometry design routine

   SAVE f  Write airfoil to labeled coordinate file
   PSAV f  Write airfoil to plain coordinate file
   ISAV f  Write airfoil to ISES coordinate file
   MSAV f  Write airfoil to MSES coordinate file
   REVE    Reverse written-airfoil node ordering

   LOAD f  Read buffer airfoil from coordinate file
   NACA i  Set NACA 4,5-digit airfoil and buffer airfoil
   INTE    Set buffer airfoil by interpolating two airfoils
   NORM    Buffer airfoil normalization toggle
   XYCM rr Change CM reference location, currently  0.25000 0.00000

   BEND    Display structural properties of current airfoil

   PCOP    Set current-airfoil panel nodes directly from buffer airfoil points
   PANE    Set current-airfoil panel nodes ( 160 ) based on curvature
  .PPAR    Show/change paneling

  .PLOP    Plotting options

   WDEF f  Write  current-settings file
   RDEF f  Reread current-settings file
   NAME s  Specify new airfoil name
   NINC    Increment name version number

   Z       Zoom    | (available in all menus)
   U       Unzoom  | 

 XFOIL   c>  
 Labeled airfoil file.  Name:  GOE 515 AIRFOIL                                 

 Number of input coordinate points:  33
 Counterclockwise ordering
 Max thickness =     0.084501  at x =   0.300
 Max camber    =     0.027717  at x =   0.400

  LE  x,y  =  -0.00001   0.00039  |   Chord =   1.00001
  TE  x,y  =   1.00000   0.00000  |

 Current airfoil nodes set from buffer airfoil nodes (  33 )

 WARNING: Poor input coordinate distribution
          Excessive panel angle   82.7  at i =  17
          Repaneling with PANE and/or PPAR suggested
           (doing GDES,CADD before repaneling _may_
            improve excessively coarse LE spacing

 XFOIL   c>  
 XFOIL   c>  
 Sharp trailing edge

 Paneling parameters used...
   Number of panel nodes       160
   Panel bunching parameter    1.000
   TE/LE panel density ratio   0.150
   Refined-area/LE panel density ratio    0.200
   Top    side refined area x/c limits  1.000 1.000
   Bottom side refined area x/c limits  1.000 1.000

 XFOIL   c>  
.OPERi   c>  
 Xtr/c     =  1.0000    top    side
 Xtr/c     =  1.0000    bottom side
 Ncrit     =    9.00   ( 0.070 % turb. level )
 Vacc      =  0.0100

 Klag  =  5.6000     Uxwt  =    1.00
 A     =  6.7000     B     =  0.7500       KCt = 0.01485
 CtiniK=  1.8000     CtiniX=  3.3000

..VPAR   c>  
..VPAR   c>  
.OPERi   c>  
 M  =    0.0000
 Re =    500000

.OPERv   c>  
.OPERv   c>  
.OPERv   c>  
 Polar  1 newly created for accumulation
 Airfoil archived with polar: GOE 515 AIRFOIL                                 

Enter  polar save filename  OR  <return> for no file   s>  
 New polar save file available

Enter  polar dump filename  OR  <return> for no file   s>  
 Polar dump file will NOT be written

 Polar accumulation enabled

.OPERva   c>   Calculating unit vorticity distributions ...
 Calculating wake trajectory ...
 Calculating source influence matrix ...

 Solving BL system ...

 Initializing BL ...
    side            1  ...
 MRCHUE: Inverse mode at  57     Hk =   4.010
 MRCHUE: Inverse mode at  58     Hk =   4.566
 MRCHUE: Inverse mode at  59     Hk =   5.114
 MRCHUE: Inverse mode at  60     Hk =   5.654
 MRCHUE: Inverse mode at  61     Hk =   6.188
 MRCHUE: Inverse mode at  62     Hk =   6.713
 MRCHUE: Inverse mode at  63     Hk =   7.229
 MRCHUE: Inverse mode at  64     Hk =   7.735
 MRCHUE: Inverse mode at  65     Hk =   8.234
 MRCHUE: Inverse mode at  66     Hk =   8.729
 MRCHUE: Inverse mode at  67     Hk =   8.621
 MRCHUE: Inverse mode at  68     Hk =   6.358
 MRCHUE: Inverse mode at  69     Hk =   4.939
 MRCHUE: Inverse mode at  70     Hk =   3.919
 MRCHUE: Inverse mode at  71     Hk =   3.112
    side            2  ...
 MRCHUE: Inverse mode at  18     Hk =   4.846
 MRCHUE: Inverse mode at  19     Hk =   6.624
 MRCHUE: Inverse mode at  20     Hk =   8.435
 MRCHUE: Inverse mode at  21     Hk =   9.836
 MRCHUE: Inverse mode at  22     Hk =   2.500
 MRCHUE: Inverse mode at  86     Hk =   2.500

 Side 1  free  transition at x/c =  0.8874   67
 Side 2  free  transition at x/c =  0.0577   21

   1   rms: 0.2042E+00   max: -.1530E+01   T at   67  1   RLX: 0.327
       a = -4.000      CL = -0.1574
      Cm = -0.0671     CD =  0.01055   =>   CDf =  0.00638    CDp =  0.00416

 MRCHDU: Convergence failed at  69  side 1    Res =  0.1922E+02
 MRCHDU: Convergence failed at  70  side 1    Res =  0.7253E+01
 MRCHDU: Convergence failed at  71  side 1    Res =  0.3267E+02
 MRCHDU: Convergence failed at  72  side 1    Res =  0.2467E+01
 MRCHDU: Convergence failed at  73  side 1    Res =  0.3533E+01
 MRCHDU: Convergence failed at  74  side 1    Res =  0.5010E+01
 MRCHDU: Convergence failed at  75  side 1    Res =  0.7698E+01
 MRCHDU: Convergence failed at  76  side 1    Res =  0.8569E+01
 Side 1  free  transition at x/c =  0.9085   69
 Side 2  free  transition at x/c =  0.0625   22
 idif Ue xi dudx           1  0.19762971      3.00526619E-03   65.761131    
 Uenew xinew           2  3.91810089E-02  5.95808029E-04

   2   rms: 0.2012E+00   max: 0.1134E+01   T at   76  1   RLX: 0.766
       a = -4.000      CL = -0.2285
      Cm = -0.0521     CD =  0.00888   =>   CDf =  0.00614    CDp =  0.00274

 Side 1  free  transition at x/c =  0.8953   67
 Side 2  free  transition at x/c =  0.0649   23

   3   rms: 0.1234E+00   max: -.7145E+00   T at   67  1   RLX: 0.700
       a = -4.000      CL = -0.1555
      Cm = -0.0659     CD =  0.00967   =>   CDf =  0.00653    CDp =  0.00314

 Side 1  free  transition at x/c =  0.9195   70
 Side 2  free  transition at x/c =  0.0802   23

   4   rms: 0.4422E-01   max: -.3155E+00   T at   23  2
       a = -4.000      CL = -0.1245
      Cm = -0.0723     CD =  0.00963   =>   CDf =  0.00623    CDp =  0.00340

 Side 1  free  transition at x/c =  0.9274   70
 Side 2  free  transition at x/c =  0.0943   24

   5   rms: 0.1601E-01   max: 0.1939E+00   D at   23  2
       a = -4.000      CL = -0.1284
      Cm = -0.0716     CD =  0.00961   =>   CDf =  0.00610    CDp =  0.00352

 Side 1  free  transition at x/c =  0.9255   70
 Side 2  free  transition at x/c =  0.0890   24

   6   rms: 0.2814E-02   max: -.3961E-01   D at   24  2
       a = -4.000      CL = -0.1278
      Cm = -0.0717     CD =  0.00966   =>   CDf =  0.00610    CDp =  0.00356

 Side 1  free  transition at x/c =  0.9258   70
 Side 2  free  transition at x/c =  0.0890   24

   7   rms: 0.8529E-04   max: 0.9260E-03   D at   24  2
       a = -4.000      CL = -0.1278
      Cm = -0.0717     CD =  0.00966   =>   CDf =  0.00611    CDp =  0.00356
 plradd ia,ip,cpol            1           0  1.43836783E-02

 Point added to stored polar  1
 Point written to save file  goe515_Re500k.base.pol                          
 Dump file unspecified or not available
 Calculating wake trajectory ...
 Calculating source influence matrix ...

 Solving BL system ...

 Side 1  free  transition at x/c =  0.9258   70
 Side 2  free  transition at x/c =  0.0889   24

   1   rms: 0.1060E+00   max: 0.8589E+00   D at   24  2   RLX: 0.770
       a = -3.500      CL = -0.0838
      Cm = -0.0717     CD =  0.00962   =>   CDf =  0.00611    CDp =  0.00351

 Side 1  free  transition at x/c =  0.9165   69
 Side 2  free  transition at x/c =  0.1049   25

   2   rms: 0.2425E-01   max: 0.2688E+00   D at   25  2
       a = -3.500      CL = -0.0725
      Cm = -0.0713     CD =  0.00949   =>   CDf =  0.00624    CDp =  0.00325

 Side 1  free  transition at x/c =  0.9129   70
 Side 2  free  transition at x/c =  0.1053   24

   3   rms: 0.7285E-02   max: -.9218E-01   D at    2  1
       a = -3.500      CL = -0.0720
      Cm = -0.0714     CD =  0.00949   =>   CDf =  0.00616    CDp =  0.00333

 Side 1  free  transition at x/c =  0.9134   70
 Side 2  free  transition at x/c =  0.1049   24

   4   rms: 0.4875E-03   max: 0.5468E-02   D at    4  1
       a = -3.500      CL = -0.0720
      Cm = -0.0714     CD =  0.00949   =>   CDf =  0.00616    CDp =  0.00334

 Side 1  free  transition at x/c =  0.9134   70
 Side 2  free  transition at x/c =  0.1049   24

   5   rms: 0.1092E-05   max: -.1134E-04   D at    4  1
       a = -3.500      CL = -0.0720
      Cm = -0.0714     CD =  0.00949   =>   CDf =  0.00616    CDp =  0.00334
 plradd ia,ip,cpol            2           0  1.43836783E-02

 Point added to stored polar  1
 Point written to save file  goe515_Re500k.base.pol                          
 Dump file unspecified or not available
 Calculating wake trajectory ...
 Calculating source influence matrix ...

 Solving BL system ...

 Side 1  free  transition at x/c =  0.9134   70
 Side 2  free  transition at x/c =  0.1049   24

   1   rms: 0.8979E-01   max: -.4928E+00   T at   24  2
       a = -3.000      CL = -0.0183
      Cm = -0.0708     CD =  0.00937   =>   CDf =  0.00616    CDp =  0.00321

 Side 1  free  transition at x/c =  0.8991   69
 Side 2  free  transition at x/c =  0.1123   25

   2   rms: 0.8361E-01   max: -.4161E+00   D at   24  2
       a = -3.000      CL = -0.0173
      Cm = -0.0710     CD =  0.00895   =>   CDf =  0.00630    CDp =  0.00264

 Side 1  free  transition at x/c =  0.9012   69
 Side 2  free  transition at x/c =  0.1181   25

   3   rms: 0.1857E-01   max: 0.1797E+00   T at   25  2
       a = -3.000      CL = -0.0178
      Cm = -0.0708     CD =  0.00920   =>   CDf =  0.00621    CDp =  0.00298

 Side 1  free  transition at x/c =  0.9005   69
 Side 2  free  transition at x/c =  0.1154   25

   4   rms: 0.9177E-03   max: -.1605E-01   D at   26  2
       a = -3.000      CL = -0.0176
      Cm = -0.0709     CD =  0.00922   =>   CDf =  0.00623    CDp =  0.00298

 Side 1  free  transition at x/c =  0.9005   69
 Side 2  free  transition at x/c =  0.1152   25

   5   rms: 0.2446E-04   max: 0.2329E-03   T at   25  2
       a = -3.000      CL = -0.0176
      Cm = -0.0709     CD =  0.00922   =>   CDf =  0.00624    CDp =  0.00298
 plradd ia,ip,cpol            3           0  1.43836783E-02

 Point added to stored polar  1
 Point written to save file  goe515_Re500k.base.pol                          
 Dump file unspecified or not available
 Calculating wake trajectory ...
 Calculating source influence matrix ...

 Solving BL system ...

 Side 1  free  transition at x/c =  0.9005   69
 Side 2  free  transition at x/c =  0.1152   25

   1   rms: 0.9213E-01   max: -.3996E+00   T at   25  2
       a = -2.500      CL =  0.0326
      Cm = -0.0696     CD =  0.00880   =>   CDf =  0.00633    CDp =  0.00247

 Side 1  free  transition at x/c =  0.8846   69
 Side 2  free  transition at x/c =  0.1241   24

   2   rms: 0.2783E-01   max: -.2065E+00   D at   24  2
       a = -2.500      CL =  0.0367
      Cm = -0.0703     CD =  0.00896   =>   CDf =  0.00632    CDp =  0.00264

 Side 1  free  transition at x/c =  0.8879   69
 Side 2  free  transition at x/c =  0.1245   24

   3   rms: 0.1468E-02   max: 0.1491E-01   D at   70  1
       a = -2.500      CL =  0.0363
      Cm = -0.0702     CD =  0.00897   =>   CDf =  0.00629    CDp =  0.00268

 Side 1  free  transition at x/c =  0.8874   69
 Side 2  free  transition at x/c =  0.1243   24

   4   rms: 0.2489E-04   max: -.3358E-03   D at   70  1
       a = -2.500      CL =  0.0363
      Cm = -0.0702     CD =  0.00897   =>   CDf =  0.00629    CDp =  0.00268
 plradd ia,ip,cpol            4           0  1.43836783E-02

 Point added to stored polar  1
 Point written to save file  goe515_Re500k.base.pol                          
 Dump file unspecified or not available
 Calculating wake trajectory ...
 Calculating source influence matrix ...

 Solving BL system ...

 Side 1  free  transition at x/c =  0.8874   69
 Side 2  free  transition at x/c =  0.1243   24

   1   rms: 0.8412E-01   max: -.3336E+00   T at   24  2
       a = -2.000      CL =  0.0876
      Cm = -0.0691     CD =  0.00882   =>   CDf =  0.00638    CDp =  0.00245

 Side 1  free  transition at x/c =  0.8633   69
 Side 2  free  transition at x/c =  0.1346   24

   2   rms: 0.3045E-01   max: -.3770E+00   D at   70  1
       a = -2.000      CL =  0.0886
      Cm = -0.0691     CD =  0.00866   =>   CDf =  0.00636    CDp =  0.00229

 Side 1  free  transition at x/c =  0.8716   69
 Side 2  free  transition at x/c =  0.1351   24

   3   rms: 0.4420E-02   max: 0.5529E-01   D at   70  1
       a = -2.000      CL =  0.0882
      Cm = -0.0690     CD =  0.00866   =>   CDf =  0.00631    CDp =  0.00236

 Side 1  free  transition at x/c =  0.8697   69
 Side 2  free  transition at x/c =  0.1350   24

   4   rms: 0.2809E-03   max: -.3270E-02   C at   69  1
       a = -2.000      CL =  0.0882
      Cm = -0.0690     CD =  0.00866   =>   CDf =  0.00631    CDp =  0.00235

 Side 1  free  transition at x/c =  0.8697   69
 Side 2  free  transition at x/c =  0.1350   24

   5   rms: 0.9033E-06   max: -.5195E-05   T at   71  1
       a = -2.000      CL =  0.0882
      Cm = -0.0690     CD =  0.00866   =>   CDf =  0.00631    CDp =  0.00235
 plradd ia,ip,cpol            5           0  2.00335290E-02

 Point added to stored polar  1
 Point written to save file  goe515_Re500k.base.pol                          
 Dump file unspecified or not available
 Calculating wake trajectory ...
 Calculating source influence matrix ...

 Solving BL system ...

 Side 1  free  transition at x/c =  0.8697   69
 Side 2  free  transition at x/c =  0.1350   24

   1   rms: 0.9082E-01   max: -.3974E+00   T at   24  2
       a = -1.500      CL =  0.1387
      Cm = -0.0676     CD =  0.00843   =>   CDf =  0.00631    CDp =  0.00212

 Side 1  free  transition at x/c =  0.8457   67
 Side 2  free  transition at x/c =  0.1428   25

   2   rms: 0.5332E-01   max: -.3713E+00   D at   24  2
       a = -1.500      CL =  0.1405
      Cm = -0.0678     CD =  0.00831   =>   CDf =  0.00646    CDp =  0.00185

 Side 1  free  transition at x/c =  0.8501   68
 Side 2  free  transition at x/c =  0.1518   25

   3   rms: 0.2140E-01   max: 0.3809E+00   C at   25  2
       a = -1.500      CL =  0.1401
      Cm = -0.0678     CD =  0.00841   =>   CDf =  0.00633    CDp =  0.00208

 Side 1  free  transition at x/c =  0.8486   68
 Side 2  free  transition at x/c =  0.1478   25

   4   rms: 0.2197E-02   max: -.4113E-01   D at   26  2
       a = -1.500      CL =  0.1401
      Cm = -0.0678     CD =  0.00841   =>   CDf =  0.00636    CDp =  0.00205

 Side 1  free  transition at x/c =  0.8485   68
 Side 2  free  transition at x/c =  0.1475   25

   5   rms: 0.3552E-04   max: -.6785E-03   D at   26  2
       a = -1.500      CL =  0.1401
      Cm = -0.0678     CD =  0.00841   =>   CDf =  0.00636    CDp =  0.00205
 plradd ia,ip,cpol            6           0  2.00335290E-02

 Point added to stored polar  1
 Point written to save file  goe515_Re500k.base.pol                          
 Dump file unspecified or not available
 Calculating wake trajectory ...
 Calculating source influence matrix ...

 Solving BL system ...

 Side 1  free  transition at x/c =  0.8485   68
 Side 2  free  transition at x/c =  0.1475   25

   1   rms: 0.9962E-01   max: 0.5160E+00   D at   25  2
       a = -1.000      CL =  0.1942
      Cm = -0.0672     CD =  0.00820   =>   CDf =  0.00642    CDp =  0.00178

 Side 1  free  transition at x/c =  0.8374   68
 Side 2  free  transition at x/c =  0.1571   25

   2   rms: 0.8491E-01   max: -.5708E+00   D at   24  2   RLX: 0.876
       a = -1.000      CL =  0.1915
      Cm = -0.0667     CD =  0.00799   =>   CDf =  0.00642    CDp =  0.00158

 MRCHDU: Convergence failed at  26  side 2    Res =  0.1786E+02
 Side 1  free  transition at x/c =  0.8328   68
 Side 2  free  transition at x/c =  0.1769   26

   3   rms: 0.2748E-01   max: 0.3412E+00   C at   26  2
       a = -1.000      CL =  0.1926
      Cm = -0.0669     CD =  0.00817   =>   CDf =  0.00625    CDp =  0.00192

 Side 1  free  transition at x/c =  0.8330   68
 Side 2  free  transition at x/c =  0.1666   25

   4   rms: 0.8177E-02   max: -.1130E+00   C at   25  2
       a = -1.000      CL =  0.1930
      Cm = -0.0669     CD =  0.00821   =>   CDf =  0.00634    CDp =  0.00186

 Side 1  free  transition at x/c =  0.8330   68
 Side 2  free  transition at x/c =  0.1680   25

   5   rms: 0.3697E-03   max: 0.6348E-02   C at   25  2
       a = -1.000      CL =  0.1930
      Cm = -0.0669     CD =  0.00821   =>   CDf =  0.00633    CDp =  0.00187

 Side 1  free  transition at x/c =  0.8330   68
 Side 2  free  transition at x/c =  0.1679   25

   6   rms: 0.2140E-05   max: -.1573E-04   C at   25  2
       a = -1.000      CL =  0.1930
      Cm = -0.0669     CD =  0.00821   =>   CDf =  0.00633    CDp =  0.00187
 plradd ia,ip,cpol            7           0  2.00335290E-02

 Point added to stored polar  1
 Point written to save file  goe515_Re500k.base.pol                          
 Dump file unspecified or not available
 Calculating wake trajectory ...
 Calculating source influence matrix ...

 Solving BL system ...

 Side 1  free  transition at x/c =  0.8330   68
 Side 2  free  transition at x/c =  0.1679   25

   1   rms: 0.9675E-01   max: -.4359E+00   C at   25  2
       a = -0.500      CL =  0.2479
      Cm = -0.0664     CD =  0.00808   =>   CDf =  0.00638    CDp =  0.00170

 MRCHDU: Convergence failed at  26  side 2    Res =  0.5605E+01
 MRCHDU: Convergence failed at  27  side 2    Res =  0.7786E+00
 MRCHDU: Convergence failed at  28  side 2    Res =  0.1343E+01
 MRCHDU: Convergence failed at  29  side 2    Res =  0.1629E+01
 MRCHDU: Convergence failed at  30  side 2    Res =  0.1704E+01
 MRCHDU: Convergence failed at  31  side 2    Res =  0.1750E+01
 MRCHDU: Convergence failed at  32  side 2    Res =  0.1739E+01
 MRCHDU: Convergence failed at  33  side 2    Res =  0.1701E+01
 MRCHDU: Convergence failed at  34  side 2    Res =  0.1643E+01
 MRCHDU: Convergence failed at  35  side 2    Res =  0.1582E+01
 MRCHDU: Convergence failed at  36  side 2    Res =  0.2316E+01
 MRCHDU: Convergence failed at  37  side 2    Res =  0.1495E+01
 MRCHDU: Convergence failed at  38  side 2    Res =  0.1409E+01
 MRCHDU: Convergence failed at  39  side 2    Res =  0.1344E+01
 MRCHDU: Convergence failed at  40  side 2    Res =  0.1303E+01
 MRCHDU: Convergence failed at  41  side 2    Res =  0.8339E+00
 MRCHDU: Convergence failed at  42  side 2    Res =  0.8845E+00
 MRCHDU: Convergence failed at  43  side 2    Res =  0.9371E+00
 MRCHDU: Convergence failed at  44  side 2    Res =  0.9893E+00
 MRCHDU: Convergence failed at  45  side 2    Res =  0.1038E+01
 MRCHDU: Convergence failed at  46  side 2    Res =  0.1074E+01
 MRCHDU: Convergence failed at  47  side 2    Res =  0.1093E+01
 MRCHDU: Convergence failed at  48  side 2    Res =  0.1103E+01
 MRCHDU: Convergence failed at  49  side 2    Res =  0.1131E+01
 MRCHDU: Convergence failed at  50  side 2    Res =  0.1139E+01
 MRCHDU: Convergence failed at  51  side 2    Res =  0.1148E+01
 MRCHDU: Convergence failed at  52  side 2    Res =  0.1166E+01
 MRCHDU: Convergence failed at  53  side 2    Res =  0.1202E+01
 MRCHDU: Convergence failed at  54  side 2    Res =  0.1258E+01
 MRCHDU: Convergence failed at  55  side 2    Res =  0.1331E+01
 MRCHDU: Convergence failed at  56  side 2    Res =  0.1412E+01
 MRCHDU: Convergence failed at  57  side 2    Res =  0.1496E+01
 MRCHDU: Convergence failed at  58  side 2    Res =  0.1579E+01
 MRCHDU: Convergence failed at  59  side 2    Res =  0.1654E+01
 MRCHDU: Convergence failed at  60  side 2    Res =  0.1700E+01
 MRCHDU: Convergence failed at  61  side 2    Res =  0.1726E+01
 MRCHDU: Convergence failed at  62  side 2    Res =  0.2121E+01
 MRCHDU: Convergence failed at  63  side 2    Res =  0.2157E+01
 MRCHDU: Convergence failed at  64  side 2    Res =  0.2203E+01
 MRCHDU: Convergence failed at  65  side 2    Res =  0.2265E+01
 MRCHDU: Convergence failed at  66  side 2    Res =  0.2352E+01
 MRCHDU: Convergence failed at  67  side 2    Res =  0.2478E+01
 MRCHDU: Convergence failed at  68  side 2    Res =  0.2641E+01
 MRCHDU: Convergence failed at  69  side 2    Res =  0.2841E+01
 MRCHDU: Convergence failed at  70  side 2    Res =  0.3073E+01
 MRCHDU: Convergence failed at  71  side 2    Res =  0.3352E+01
 MRCHDU: Convergence failed at  72  side 2    Res =  0.3659E+01
 MRCHDU: Convergence failed at  73  side 2    Res =  0.3974E+01
 MRCHDU: Convergence failed at  74  side 2    Res =  0.4387E+01
 MRCHDU: Convergence failed at  75  side 2    Res =  0.5043E+01
 MRCHDU: Convergence failed at  76  side 2    Res =  0.6097E+01
 MRCHDU: Convergence failed at  77  side 2    Res =  0.8626E+01
 MRCHDU: Convergence failed at  78  side 2    Res =  0.1507E+02
 MRCHDU: Convergence failed at  79  side 2    Res =  0.6049E+02
 MRCHDU: Convergence failed at  80  side 2    Res =  0.2797E+02
 MRCHDU: Convergence failed at  81  side 2    Res =  0.9676E+01
 Side 1  free  transition at x/c =  0.8190   68
 Side 2  free  transition at x/c =  0.3355   36

   2   rms: 0.1922E+00   max: 0.9233E+00   D at   81  2   RLX: 0.983
       a = -0.500      CL =  0.2586
      Cm = -0.0690     CD =  0.00583   =>   CDf =  0.00379    CDp =  0.00204

 Side 1  free  transition at x/c =  0.8190   68
 Side 2  free  transition at x/c =  0.3005   33

   3   rms: 0.4920E-01   max: 0.6822E+00   C at   33  2
       a = -0.500      CL =  0.2431
      Cm = -0.0656     CD =  0.00775   =>   CDf =  0.00590    CDp =  0.00185

 Side 1  free  transition at x/c =  0.8174   68
 Side 2  free  transition at x/c =  0.2358   29

   4   rms: 0.1421E-01   max: -.1802E+00   D at   29  2
       a = -0.500      CL =  0.2448
      Cm = -0.0659     CD =  0.00789   =>   CDf =  0.00613    CDp =  0.00176

 Side 1  free  transition at x/c =  0.8174   68
 Side 2  free  transition at x/c =  0.2303   29

   5   rms: 0.9582E-03   max: -.1326E-01   D at   29  2
       a = -0.500      CL =  0.2450
      Cm = -0.0659     CD =  0.00790   =>   CDf =  0.00614    CDp =  0.00176

 Side 1  free  transition at x/c =  0.8174   68
 Side 2  free  transition at x/c =  0.2299   28

   6   rms: 0.6535E-04   max: -.9791E-03   D at   30  2
       a = -0.500      CL =  0.2449
      Cm = -0.0659     CD =  0.00790   =>   CDf =  0.00614    CDp =  0.00176
 plradd ia,ip,cpol            8           0  2.00335290E-02

 Point added to stored polar  1
 Point written to save file  goe515_Re500k.base.pol                          
 Dump file unspecified or not available
 Calculating wake trajectory ...
 Calculating source influence matrix ...

 Solving BL system ...

 Side 1  free  transition at x/c =  0.8174   68
 Side 2  free  transition at x/c =  0.2299   28

   1   rms: 0.1445E+00   max: -.2268E+01   C at   28  2   RLX: 0.221
       a =  0.000      CL =  0.2569
      Cm = -0.0658     CD =  0.00787   =>   CDf =  0.00615    CDp =  0.00172

 Side 1  free  transition at x/c =  0.8147   67
 Side 2  free  transition at x/c =  0.2552   30

   2   rms: 0.1580E+00   max: -.3000E+01   C at   30  2   RLX: 0.167
       a =  0.000      CL =  0.2630
      Cm = -0.0657     CD =  0.00774   =>   CDf =  0.00605    CDp =  0.00169

 Side 1  free  transition at x/c =  0.8120   67
 Side 2  free  transition at x/c =  0.2644   31

   3   rms: 0.1279E+00   max: -.2132E+01   C at   31  2   RLX: 0.235
       a =  0.000      CL =  0.2707
      Cm = -0.0655     CD =  0.00769   =>   CDf =  0.00603    CDp =  0.00166

 Side 1  free  transition at x/c =  0.8090   67
 Side 2  free  transition at x/c =  0.2759   32

   4   rms: 0.1053E+00   max: -.1558E+01   C at   32  2   RLX: 0.321
       a =  0.000      CL =  0.2787
      Cm = -0.0652     CD =  0.00764   =>   CDf =  0.00601    CDp =  0.00163

 Side 1  free  transition at x/c =  0.8062   67
 Side 2  free  transition at x/c =  0.2917   33

   5   rms: 0.9672E-01   max: -.1656E+01   C at   33  2   RLX: 0.302
       a =  0.000      CL =  0.2838
      Cm = -0.0650     CD =  0.00760   =>   CDf =  0.00596    CDp =  0.00165

 Side 1  free  transition at x/c =  0.8046   67
 Side 2  free  transition at x/c =  0.3060   34

   6   rms: 0.9320E-01   max: -.1747E+01   C at   34  2   RLX: 0.286
       a =  0.000      CL =  0.2871
      Cm = -0.0649     CD =  0.00756   =>   CDf =  0.00591    CDp =  0.00165

 Side 1  free  transition at x/c =  0.8037   67
 Side 2  free  transition at x/c =  0.3203   35

   7   rms: 0.9109E-01   max: -.1781E+01   C at   35  2   RLX: 0.281
       a =  0.000      CL =  0.2893
      Cm = -0.0649     CD =  0.00751   =>   CDf =  0.00586    CDp =  0.00165

 Side 1  free  transition at x/c =  0.8031   67
 Side 2  free  transition at x/c =  0.3348   35

   8   rms: 0.9448E-01   max: -.1906E+01   C at   35  2   RLX: 0.262
       a =  0.000      CL =  0.2908
      Cm = -0.0648     CD =  0.00749   =>   CDf =  0.00581    CDp =  0.00167

 Side 1  free  transition at x/c =  0.8027   67
 Side 2  free  transition at x/c =  0.3478   36

   9   rms: 0.9181E-01   max: -.1845E+01   C at   36  2   RLX: 0.271
       a =  0.000      CL =  0.2918
      Cm = -0.0648     CD =  0.00744   =>   CDf =  0.00577    CDp =  0.00167

 Side 1  free  transition at x/c =  0.8024   66
 Side 2  free  transition at x/c =  0.3597   37

  10   rms: 0.7865E-01   max: -.1585E+01   C at   37  2   RLX: 0.315
       a =  0.000      CL =  0.2925
      Cm = -0.0647     CD =  0.00740   =>   CDf =  0.00573    CDp =  0.00167

 Side 1  free  transition at x/c =  0.8020   66
 Side 2  free  transition at x/c =  0.3725   38

  11   rms: 0.6423E-01   max: -.1293E+01   C at   38  2   RLX: 0.387
       a =  0.000      CL =  0.2929
      Cm = -0.0646     CD =  0.00735   =>   CDf =  0.00569    CDp =  0.00167

 Side 1  free  transition at x/c =  0.8017   66
 Side 2  free  transition at x/c =  0.3864   39

  12   rms: 0.4617E-01   max: -.9231E+00   C at   39  2   RLX: 0.542
       a =  0.000      CL =  0.2931
      Cm = -0.0646     CD =  0.00731   =>   CDf =  0.00564    CDp =  0.00167

 Side 1  free  transition at x/c =  0.8014   66
 Side 2  free  transition at x/c =  0.4011   40

  13   rms: 0.2378E-01   max: -.4727E+00   C at   40  2
       a =  0.000      CL =  0.2932
      Cm = -0.0645     CD =  0.00726   =>   CDf =  0.00559    CDp =  0.00167

 Side 1  free  transition at x/c =  0.8012   66
 Side 2  free  transition at x/c =  0.4159   41

  14   rms: 0.1089E-02   max: -.1989E-01   C at   41  2
       a =  0.000      CL =  0.2932
      Cm = -0.0645     CD =  0.00726   =>   CDf =  0.00554    CDp =  0.00172

 Side 1  free  transition at x/c =  0.8012   66
 Side 2  free  transition at x/c =  0.4169   41

  15   rms: 0.5110E-04   max: -.1002E-02   C at   41  2
       a =  0.000      CL =  0.2932
      Cm = -0.0645     CD =  0.00726   =>   CDf =  0.00554    CDp =  0.00172
 plradd ia,ip,cpol            9           0  0.22643143    

 Point added to stored polar  1
 Point written to save file  goe515_Re500k.base.pol                          
 Dump file unspecified or not available
 Calculating wake trajectory ...
 Calculating source influence matrix ...

 Solving BL system ...

 Side 1  free  transition at x/c =  0.8012   66
 Side 2  free  transition at x/c =  0.4169   41

   1   rms: 0.6859E+00   max: -.1342E+02   C at   41  2   RLX: 0.037
       a =  0.500      CL =  0.2947
      Cm = -0.0644     CD =  0.00722   =>   CDf =  0.00554    CDp =  0.00167

 Side 1  free  transition at x/c =  0.8004   66
 Side 2  free  transition at x/c =  0.4333   42

   2   rms: 0.6412E+00   max: -.1242E+02   C at   42  2   RLX: 0.040
       a =  0.500      CL =  0.2963
      Cm = -0.0643     CD =  0.00717   =>   CDf =  0.00549    CDp =  0.00167

 Side 1  free  transition at x/c =  0.7997   66
 Side 2  free  transition at x/c =  0.4513   43

   3   rms: 0.5621E+00   max: -.1073E+02   C at   43  2   RLX: 0.047
       a =  0.500      CL =  0.2980
      Cm = -0.0641     CD =  0.00712   =>   CDf =  0.00544    CDp =  0.00168

 Side 1  free  transition at x/c =  0.7989   66
 Side 2  free  transition at x/c =  0.4711   45

   4   rms: 0.5206E+00   max: -.1010E+02   C at   45  2   RLX: 0.049
       a =  0.500      CL =  0.2996
      Cm = -0.0640     CD =  0.00704   =>   CDf =  0.00538    CDp =  0.00166

 Side 1  free  transition at x/c =  0.7980   66
 Side 2  free  transition at x/c =  0.4854   45

   5   rms: 0.4726E+00   max: -.8832E+01   C at   45  2   RLX: 0.057
       a =  0.500      CL =  0.3018
      Cm = -0.0639     CD =  0.00701   =>   CDf =  0.00534    CDp =  0.00168

 Side 1  free  transition at x/c =  0.7971   66
 Side 2  free  transition at x/c =  0.5056   47

   6   rms: 0.5393E+00   max: -.1031E+02   C at   47  2   RLX: 0.049
       a =  0.500      CL =  0.3031
      Cm = -0.0637     CD =  0.00693   =>   CDf =  0.00527    CDp =  0.00166

 Side 1  free  transition at x/c =  0.7964   67
 Side 2  free  transition at x/c =  0.5216   47

   7   rms: 0.6045E+00   max: -.1137E+02   C at   47  2   RLX: 0.044
       a =  0.500      CL =  0.3042
      Cm = -0.0636     CD =  0.00688   =>   CDf =  0.00521    CDp =  0.00166

 Side 1  free  transition at x/c =  0.7958   67
 Side 2  free  transition at x/c =  0.5390   48

   8   rms: 0.8184E+00   max: -.1506E+02   C at   48  2   RLX: 0.033
       a =  0.500      CL =  0.3049
      Cm = -0.0635     CD =  0.00682   =>   CDf =  0.00515    CDp =  0.00167

 Side 1  free  transition at x/c =  0.7953   67
 Side 2  free  transition at x/c =  0.5554   49

   9   rms: 0.8516E+00   max: -.1534E+02   C at   49  2   RLX: 0.033
       a =  0.500      CL =  0.3054
      Cm = -0.0633     CD =  0.00676   =>   CDf =  0.00509    CDp =  0.00167

 Side 1  free  transition at x/c =  0.7949   67
 Side 2  free  transition at x/c =  0.5813   51

  10   rms: 0.1466E+01   max: -.2643E+02   C at   51  2   RLX: 0.019
       a =  0.500      CL =  0.3052
      Cm = -0.0631     CD =  0.00667   =>   CDf =  0.00500    CDp =  0.00167

 Side 1  free  transition at x/c =  0.7947   67
 Side 2  free  transition at x/c =  0.6011   52

  11   rms: 0.1741E+01   max: -.3029E+02   C at   52  2   RLX: 0.017
       a =  0.500      CL =  0.3050
      Cm = -0.0629     CD =  0.00661   =>   CDf =  0.00494    CDp =  0.00168

 Side 1  free  transition at x/c =  0.7944   67
 Side 2  free  transition at x/c =  0.6201   54

  12   rms: 0.1466E+01   max: -.2704E+02   C at   54  2   RLX: 0.018
       a =  0.500      CL =  0.3047
      Cm = -0.0627     CD =  0.00655   =>   CDf =  0.00488    CDp =  0.00167

 Side 1  free  transition at x/c =  0.7942   67
 Side 2  free  transition at x/c =  0.6419   55

  13   rms: 0.1577E+01   max: -.2837E+02   C at   55  2   RLX: 0.018
       a =  0.500      CL =  0.3043
      Cm = -0.0625     CD =  0.00649   =>   CDf =  0.00481    CDp =  0.00167

 Side 1  free  transition at x/c =  0.7940   67
 Side 2  free  transition at x/c =  0.6655   57

  14   rms: 0.1450E+01   max: -.2705E+02   C at   57  2   RLX: 0.018
       a =  0.500      CL =  0.3038
      Cm = -0.0623     CD =  0.00641   =>   CDf =  0.00474    CDp =  0.00166

 Side 1  free  transition at x/c =  0.7938   67
 Side 2  free  transition at x/c =  0.6640   56

  15   rms: 0.6642E+00   max: -.1173E+02   C at   56  2   RLX: 0.043
       a =  0.500      CL =  0.3047
      Cm = -0.0622     CD =  0.00642   =>   CDf =  0.00475    CDp =  0.00167

 Side 1  free  transition at x/c =  0.7933   67
 Side 2  free  transition at x/c =  0.7204   60

  16   rms: 0.7174E+00   max: -.1248E+02   C at   60  2   RLX: 0.040
       a =  0.500      CL =  0.3040
      Cm = -0.0616     CD =  0.00622   =>   CDf =  0.00455    CDp =  0.00167

 Side 1  free  transition at x/c =  0.7929   67
 Side 2  free  transition at x/c =  0.7282   61

  17   rms: 0.6937E+00   max: -.1254E+02   C at   61  2   RLX: 0.040
       a =  0.500      CL =  0.3042
      Cm = -0.0614     CD =  0.00619   =>   CDf =  0.00452    CDp =  0.00167

 Side 1  free  transition at x/c =  0.7926   67
 Side 2  free  transition at x/c =  0.7486   62

  18   rms: 0.9256E+00   max: -.1611E+02   C at   62  2   RLX: 0.031
       a =  0.500      CL =  0.3041
      Cm = -0.0611     CD =  0.00612   =>   CDf =  0.00445    CDp =  0.00167

 Side 1  free  transition at x/c =  0.7923   67
 Side 2  free  transition at x/c =  0.7695   63

  19   rms: 0.1251E+01   max: -.2082E+02   C at   63  2   RLX: 0.024
       a =  0.500      CL =  0.3039
      Cm = -0.0609     CD =  0.00606   =>   CDf =  0.00437    CDp =  0.00169

 Side 1  free  transition at x/c =  0.7921   67
 Side 2  free  transition at x/c =  0.7878   65

  20   rms: 0.1317E+01   max: -.2313E+02   C at   65  2   RLX: 0.022
       a =  0.500      CL =  0.3038
      Cm = -0.0607     CD =  0.00600   =>   CDf =  0.00430    CDp =  0.00169

 Side 1  free  transition at x/c =  0.7919   67
 Side 2  free  transition at x/c =  0.8075   66

  21   rms: 0.1940E+01   max: -.3309E+02   C at   66  2   RLX: 0.015
       a =  0.500      CL =  0.3040
      Cm = -0.0606     CD =  0.00595   =>   CDf =  0.00424    CDp =  0.00171

 Side 1  free  transition at x/c =  0.7918   67
 Side 2  free  transition at x/c =  0.8314   68

  22   rms: 0.1087E+02   max: -.1923E+03   C at   68  2   RLX: 0.003
       a =  0.500      CL =  0.3047
      Cm = -0.0607     CD =  0.00589   =>   CDf =  0.00416    CDp =  0.00172

 Side 1  free  transition at x/c =  0.7919   67
 Side 2  free  transition at x/c =  0.8560   69

  23   rms: 0.3019E+01   max: 0.5126E+02   C at   69  2   RLX: 0.029
       a =  0.500      CL =  0.2986
      Cm = -0.0593     CD =  0.00603   =>   CDf =  0.00410    CDp =  0.00193

 Side 1  free  transition at x/c =  0.7913   67
 Side 2  free  transition at x/c =  0.7228   60

  24   rms: 0.6016E+00   max: -.1052E+02   C at   60  2   RLX: 0.048
       a =  0.500      CL =  0.2998
      Cm = -0.0595     CD =  0.00622   =>   CDf =  0.00456    CDp =  0.00166

 Side 1  free  transition at x/c =  0.7909   67
 Side 2  free  transition at x/c =  0.7406   62

  25   rms: 0.7280E+00   max: -.1336E+02   C at   62  2   RLX: 0.037
       a =  0.500      CL =  0.2998
      Cm = -0.0593     CD =  0.00614   =>   CDf =  0.00449    CDp =  0.00165

 Side 1  free  transition at x/c =  0.7907   67
 Side 2  free  transition at x/c =  0.7627   63

  26   rms: 0.1029E+01   max: -.1780E+02   C at   63  2   RLX: 0.028
       a =  0.500      CL =  0.2998
      Cm = -0.0591     CD =  0.00607   =>   CDf =  0.00440    CDp =  0.00166

 Side 1  free  transition at x/c =  0.7905   67
 Side 2  free  transition at x/c =  0.7765   64

  27   rms: 0.1182E+01   max: -.2027E+02   C at   64  2   RLX: 0.025
       a =  0.500      CL =  0.2999
      Cm = -0.0590     CD =  0.00602   =>   CDf =  0.00435    CDp =  0.00167

 Side 1  free  transition at x/c =  0.7904   67
 Side 2  free  transition at x/c =  0.7934   65

  28   rms: 0.1739E+01   max: -.2895E+02   C at   65  2   RLX: 0.017
       a =  0.500      CL =  0.3000
      Cm = -0.0589     CD =  0.00597   =>   CDf =  0.00428    CDp =  0.00169

 Side 1  free  transition at x/c =  0.7903   67
 Side 2  free  transition at x/c =  0.8119   66

  29   rms: 0.4027E+01   max: -.6495E+02   C at   66  2   RLX: 0.008
       a =  0.500      CL =  0.3005
      Cm = -0.0589     CD =  0.00593   =>   CDf =  0.00422    CDp =  0.00171

 Side 1  free  transition at x/c =  0.7903   67
 Side 2  free  transition at x/c =  0.8327   68

  30   rms: 0.3644E+01   max: 0.6156E+02   C at   68  2   RLX: 0.024
       a =  0.500      CL =  0.2972
      Cm = -0.0582     CD =  0.00607   =>   CDf =  0.00415    CDp =  0.00192

 Side 1  free  transition at x/c =  0.7899   67
 Side 2  free  transition at x/c =  0.7874   65

  31   rms: 0.1327E+01   max: -.2305E+02   C at   65  2   RLX: 0.022
       a =  0.500      CL =  0.2972
      Cm = -0.0580     CD =  0.00598   =>   CDf =  0.00431    CDp =  0.00167

 Side 1  free  transition at x/c =  0.7898   67
 Side 2  free  transition at x/c =  0.8055   66

  32   rms: 0.2483E+01   max: -.4158E+02   C at   66  2   RLX: 0.012
       a =  0.500      CL =  0.2976
      Cm = -0.0580     CD =  0.00594   =>   CDf =  0.00424    CDp =  0.00170

 Side 1  free  transition at x/c =  0.7898   67
 Side 2  free  transition at x/c =  0.8248   67

  33   rms: 0.9654E+01   max: 0.1545E+03   C at   67  2   RLX: 0.010
       a =  0.500      CL =  0.2950
      Cm = -0.0576     CD =  0.00606   =>   CDf =  0.00417    CDp =  0.00189

 Side 1  free  transition at x/c =  0.7895   67
 Side 2  free  transition at x/c =  0.7836   64

  34   rms: 0.1456E+01   max: -.2395E+02   C at   64  2   RLX: 0.021
       a =  0.500      CL =  0.2951
      Cm = -0.0574     CD =  0.00600   =>   CDf =  0.00433    CDp =  0.00167

 Side 1  free  transition at x/c =  0.7894   67
 Side 2  free  transition at x/c =  0.8007   66

  35   rms: 0.1821E+01   max: -.3143E+02   C at   66  2   RLX: 0.016
       a =  0.500      CL =  0.2954
      Cm = -0.0574     CD =  0.00595   =>   CDf =  0.00426    CDp =  0.00169

 Side 1  free  transition at x/c =  0.7894   67
 Side 2  free  transition at x/c =  0.8178   67

  36   rms: 0.1241E+02   max: -.2058E+03   C at   67  2   RLX: 0.002
       a =  0.500      CL =  0.2961
      Cm = -0.0574     CD =  0.00591   =>   CDf =  0.00419    CDp =  0.00172

 Side 1  free  transition at x/c =  0.7894   67
 Side 2  free  transition at x/c =  0.8352   68

  37   rms: 0.1955E+01   max: 0.3148E+02   C at   68  2   RLX: 0.048
       a =  0.500      CL =  0.2918
      Cm = -0.0565     CD =  0.00603   =>   CDf =  0.00413    CDp =  0.00190

 Side 1  free  transition at x/c =  0.7889   67
 Side 2  free  transition at x/c =  0.7874   65

  38   rms: 0.1347E+01   max: -.2360E+02   C at   65  2   RLX: 0.021
       a =  0.500      CL =  0.2921
      Cm = -0.0564     CD =  0.00598   =>   CDf =  0.00432    CDp =  0.00166

 Side 1  free  transition at x/c =  0.7888   67
 Side 2  free  transition at x/c =  0.8047   66

  39   rms: 0.2420E+01   max: -.4069E+02   C at   66  2   RLX: 0.012
       a =  0.500      CL =  0.2925
      Cm = -0.0564     CD =  0.00594   =>   CDf =  0.00425    CDp =  0.00169

 Side 1  free  transition at x/c =  0.7888   67
 Side 2  free  transition at x/c =  0.8211   67

  40   rms: 0.1740E+02   max: 0.2806E+03   C at   67  2   RLX: 0.005
       a =  0.500      CL =  0.2900
      Cm = -0.0560     CD =  0.00606   =>   CDf =  0.00418    CDp =  0.00188

 Side 1  free  transition at x/c =  0.7886   67
 Side 2  free  transition at x/c =  0.7824   64

  41   rms: 0.1333E+01   max: -.2227E+02   C at   64  2   RLX: 0.022
       a =  0.500      CL =  0.2901
      Cm = -0.0558     CD =  0.00599   =>   CDf =  0.00434    CDp =  0.00165

 Side 1  free  transition at x/c =  0.7885   67
 Side 2  free  transition at x/c =  0.8002   66

  42   rms: 0.1712E+01   max: -.2965E+02   C at   66  2   RLX: 0.017
       a =  0.500      CL =  0.2904
      Cm = -0.0557     CD =  0.00595   =>   CDf =  0.00427    CDp =  0.00168

 Side 1  free  transition at x/c =  0.7885   67
 Side 2  free  transition at x/c =  0.8150   67

  43   rms: 0.6117E+01   max: -.1021E+03   C at   67  2   RLX: 0.005
       a =  0.500      CL =  0.2911
      Cm = -0.0558     CD =  0.00592   =>   CDf =  0.00420    CDp =  0.00172

 Side 1  free  transition at x/c =  0.7885   67
 Side 2  free  transition at x/c =  0.8298   68

  44   rms: 0.2506E+01   max: 0.4056E+02   C at   68  2   RLX: 0.037
       a =  0.500      CL =  0.2872
      Cm = -0.0550     CD =  0.00603   =>   CDf =  0.00414    CDp =  0.00190

 Side 1  free  transition at x/c =  0.7881   67
 Side 2  free  transition at x/c =  0.7819   64

  45   rms: 0.1301E+01   max: -.2189E+02   C at   64  2   RLX: 0.023
       a =  0.500      CL =  0.2875
      Cm = -0.0549     CD =  0.00599   =>   CDf =  0.00435    CDp =  0.00165

 Side 1  free  transition at x/c =  0.7880   67
 Side 2  free  transition at x/c =  0.7999   65

  46   rms: 0.6272E-01   max: -.3401E+00   D at   73  2
       a =  0.500      CL =  0.3296
      Cm = -0.0601     CD =  0.00607   =>   CDf =  0.00427    CDp =  0.00180

 MRCHDU: Convergence failed at  78  side 2    Res =  0.2827E+01
 MRCHDU: Convergence failed at  79  side 2    Res =  0.1152E+01
 MRCHDU: Convergence failed at  80  side 2    Res =  0.2232E+01
 Side 1  free  transition at x/c =  0.7850   66
 Side 2  free  transition at x/c =  0.9813   78

  47   rms: 0.8554E-01   max: 0.7519E+00   D at   80  2
       a =  0.500      CL =  0.3800
      Cm = -0.0707     CD =  0.00564   =>   CDf =  0.00399    CDp =  0.00165

 Side 1  free  transition at x/c =  0.7860   66
 Side 2  free  transition at x/c =  0.9858   79

  48   rms: 0.3358E-01   max: 0.3642E+00   C at   79  2
       a =  0.500      CL =  0.3868
      Cm = -0.0722     CD =  0.00591   =>   CDf =  0.00400    CDp =  0.00191

 Side 1  free  transition at x/c =  0.7862   66
 Side 2  free  transition at x/c =  0.9788   78

  49   rms: 0.9494E-02   max: 0.6775E-01   D at   80  2
       a =  0.500      CL =  0.3949
      Cm = -0.0740     CD =  0.00594   =>   CDf =  0.00400    CDp =  0.00194

 Side 1  free  transition at x/c =  0.7863   66
 Side 2  free  transition at x/c =  0.9774   78

  50   rms: 0.1264E-02   max: -.1106E-01   D at   80  2
       a =  0.500      CL =  0.3942
      Cm = -0.0739     CD =  0.00595   =>   CDf =  0.00400    CDp =  0.00195

 Side 1  free  transition at x/c =  0.7863   66
 Side 2  free  transition at x/c =  0.9775   78

  51   rms: 0.5233E-05   max: 0.4403E-04   D at   82  2
       a =  0.500      CL =  0.3942
      Cm = -0.0739     CD =  0.00595   =>   CDf =  0.00400    CDp =  0.00195
 plradd ia,ip,cpol           10           0  0.21219476    

 Point added to stored polar  1
 Point written to save file  goe515_Re500k.base.pol                          
 Dump file unspecified or not available
 Calculating wake trajectory ...
 Calculating source influence matrix ...

 Solving BL system ...

 Side 1  free  transition at x/c =  0.7863   66
 Side 2  free  transition at x/c =  0.9775   78

   1   rms: 0.1503E+00   max: 0.4571E+00   D at   79  2
       a =  1.000      CL =  0.5015
      Cm = -0.0848     CD =  0.00604   =>   CDf =  0.00403    CDp =  0.00201

 Side 1  free  transition at x/c =  0.7507   65
 Side 2  free  transition at x/c =  0.9991   79

   2   rms: 0.3202E-01   max: -.4251E+00   D at   66  1
       a =  1.000      CL =  0.4974
      Cm = -0.0840     CD =  0.00609   =>   CDf =  0.00422    CDp =  0.00187

 Side 1  free  transition at x/c =  0.7621   66
 Side 2 forced transition at x/c =  1.0000   79

   3   rms: 0.8801E-02   max: 0.6523E-01   D at   66  1
       a =  1.000      CL =  0.4925
      Cm = -0.0830     CD =  0.00604   =>   CDf =  0.00411    CDp =  0.00193

 Side 1  free  transition at x/c =  0.7604   66
 Side 2 forced transition at x/c =  1.0000   79

   4   rms: 0.4769E-03   max: -.6696E-02   D at   68  1
       a =  1.000      CL =  0.4925
      Cm = -0.0830     CD =  0.00604   =>   CDf =  0.00412    CDp =  0.00191

 Side 1  free  transition at x/c =  0.7602   66
 Side 2 forced transition at x/c =  1.0000   79

   5   rms: 0.2901E-05   max: -.4514E-04   D at   68  1
       a =  1.000      CL =  0.4925
      Cm = -0.0830     CD =  0.00604   =>   CDf =  0.00413    CDp =  0.00191
 plradd ia,ip,cpol           11           0  7.18235672E-02

 Point added to stored polar  1
 Point written to save file  goe515_Re500k.base.pol                          
 Dump file unspecified or not available
 Calculating wake trajectory ...
 Calculating source influence matrix ...

 Solving BL system ...

 Side 1  free  transition at x/c =  0.7602   66
 Side 2 forced transition at x/c =  1.0000   79

   1   rms: 0.9208E-01   max: -.1574E+00   n at   78  2
       a =  1.500      CL =  0.5404
      Cm = -0.0810     CD =  0.00615   =>   CDf =  0.00414    CDp =  0.00201

 Side 1  free  transition at x/c =  0.7366   65
 Side 2 forced transition at x/c =  1.0000   78

   2   rms: 0.1532E-01   max: -.1598E+00   D at   68  1
       a =  1.500      CL =  0.5405
      Cm = -0.0811     CD =  0.00609   =>   CDf =  0.00420    CDp =  0.00188

 Side 1  free  transition at x/c =  0.7347   65
 Side 2 forced transition at x/c =  1.0000   78

   3   rms: 0.1076E-02   max: -.1056E-01   D at   68  1
       a =  1.500      CL =  0.5404
      Cm = -0.0811     CD =  0.00610   =>   CDf =  0.00421    CDp =  0.00189

 Side 1  free  transition at x/c =  0.7345   65
 Side 2 forced transition at x/c =  1.0000   78

   4   rms: 0.4160E-05   max: -.6669E-04   D at   68  1
       a =  1.500      CL =  0.5404
      Cm = -0.0811     CD =  0.00610   =>   CDf =  0.00421    CDp =  0.00189
 plradd ia,ip,cpol           12           0  7.18235672E-02

 Point added to stored polar  1
 Point written to save file  goe515_Re500k.base.pol                          
 Dump file unspecified or not available
 Calculating wake trajectory ...
 Calculating source influence matrix ...

 Solving BL system ...

 Side 1  free  transition at x/c =  0.7345   65
 Side 2 forced transition at x/c =  1.0000   78

   1   rms: 0.8947E-01   max: -.1568E+00   n at   77  2
       a =  2.000      CL =  0.5883
      Cm = -0.0791     CD =  0.00619   =>   CDf =  0.00420    CDp =  0.00199

 Side 1  free  transition at x/c =  0.7020   64
 Side 2 forced transition at x/c =  1.0000   77

   2   rms: 0.1491E-01   max: 0.2489E+00   D at   65  1
       a =  2.000      CL =  0.5880
      Cm = -0.0791     CD =  0.00621   =>   CDf =  0.00436    CDp =  0.00185

 Side 1  free  transition at x/c =  0.7070   64
 Side 2 forced transition at x/c =  1.0000   77

   3   rms: 0.3167E-02   max: 0.4856E-01   C at   64  1
       a =  2.000      CL =  0.5882
      Cm = -0.0791     CD =  0.00621   =>   CDf =  0.00429    CDp =  0.00192

 Side 1  free  transition at x/c =  0.7054   64
 Side 2 forced transition at x/c =  1.0000   77

   4   rms: 0.5230E-04   max: -.7307E-03   C at   64  1
       a =  2.000      CL =  0.5882
      Cm = -0.0791     CD =  0.00621   =>   CDf =  0.00430    CDp =  0.00191
 plradd ia,ip,cpol           13           0  7.18235672E-02

 Point added to stored polar  1
 Point written to save file  goe515_Re500k.base.pol                          
 Dump file unspecified or not available
 Calculating wake trajectory ...
 Calculating source influence matrix ...

 Solving BL system ...

 Side 1  free  transition at x/c =  0.7054   64
 Side 2 forced transition at x/c =  1.0000   77

   1   rms: 0.8833E-01   max: -.1195E+00   n at   76  2
       a =  2.500      CL =  0.6354
      Cm = -0.0771     CD =  0.00634   =>   CDf =  0.00430    CDp =  0.00204

 Side 1  free  transition at x/c =  0.6697   62
 Side 2 forced transition at x/c =  1.0000   77

   2   rms: 0.1535E-01   max: 0.2529E+00   D at   63  1
       a =  2.500      CL =  0.6352
      Cm = -0.0770     CD =  0.00638   =>   CDf =  0.00446    CDp =  0.00192

 Side 1  free  transition at x/c =  0.6740   62
 Side 2 forced transition at x/c =  1.0000   77

   3   rms: 0.3675E-02   max: 0.6312E-01   C at   62  1
       a =  2.500      CL =  0.6354
      Cm = -0.0771     CD =  0.00637   =>   CDf =  0.00439    CDp =  0.00198

 Side 1  free  transition at x/c =  0.6724   62
 Side 2 forced transition at x/c =  1.0000   77

   4   rms: 0.3983E-04   max: -.4445E-03   D at   63  1
       a =  2.500      CL =  0.6354
      Cm = -0.0771     CD =  0.00637   =>   CDf =  0.00441    CDp =  0.00197
 plradd ia,ip,cpol           14           0  2.84433644E-02

 Point added to stored polar  1
 Point written to save file  goe515_Re500k.base.pol                          
 Dump file unspecified or not available
 Calculating wake trajectory ...
 Calculating source influence matrix ...

 Solving BL system ...

 Side 1  free  transition at x/c =  0.6724   62
 Side 2 forced transition at x/c =  1.0000   77

   1   rms: 0.9327E-01   max: 0.6862E+00   C at   62  1
       a =  3.000      CL =  0.6815
      Cm = -0.0748     CD =  0.00663   =>   CDf =  0.00437    CDp =  0.00227

 Side 1  free  transition at x/c =  0.6254   60
 Side 2 forced transition at x/c =  1.0000   76

   2   rms: 0.2355E-01   max: 0.2786E+00   D at   62  1
       a =  3.000      CL =  0.6812
      Cm = -0.0747     CD =  0.00661   =>   CDf =  0.00461    CDp =  0.00200

 Side 1  free  transition at x/c =  0.6333   60
 Side 2 forced transition at x/c =  1.0000   76

   3   rms: 0.6629E-02   max: 0.1107E+00   C at   60  1
       a =  3.000      CL =  0.6814
      Cm = -0.0748     CD =  0.00663   =>   CDf =  0.00451    CDp =  0.00212

 Side 1  free  transition at x/c =  0.6301   60
 Side 2 forced transition at x/c =  1.0000   76

   4   rms: 0.2561E-03   max: -.5272E-02   D at   62  1
       a =  3.000      CL =  0.6814
      Cm = -0.0748     CD =  0.00663   =>   CDf =  0.00454    CDp =  0.00209

 Side 1  free  transition at x/c =  0.6301   60
 Side 2 forced transition at x/c =  1.0000   76

   5   rms: 0.1347E-05   max: -.1163E-04   C at   60  1
       a =  3.000      CL =  0.6814
      Cm = -0.0748     CD =  0.00663   =>   CDf =  0.00454    CDp =  0.00209
 plradd ia,ip,cpol           15           0  2.09891070E-02

 Point added to stored polar  1
 Point written to save file  goe515_Re500k.base.pol                          
 Dump file unspecified or not available
 Calculating wake trajectory ...
 Calculating source influence matrix ...

 Solving BL system ...

 Side 1  free  transition at x/c =  0.6301   60
 Side 2 forced transition at x/c =  1.0000   76

   1   rms: 0.1024E+00   max: 0.9802E+00   C at   60  1   RLX: 0.985
       a =  3.500      CL =  0.7248
      Cm = -0.0722     CD =  0.00700   =>   CDf =  0.00448    CDp =  0.00252

 Side 1  free  transition at x/c =  0.5612   56
 Side 2 forced transition at x/c =  1.0000   75

   2   rms: 0.2623E-01   max: -.2464E+00   C at   56  1
       a =  3.500      CL =  0.7243
      Cm = -0.0719     CD =  0.00704   =>   CDf =  0.00483    CDp =  0.00221

 Side 1  free  transition at x/c =  0.5712   57
 Side 2 forced transition at x/c =  1.0000   75

   3   rms: 0.6692E-02   max: 0.1159E+00   C at   57  1
       a =  3.500      CL =  0.7248
      Cm = -0.0720     CD =  0.00704   =>   CDf =  0.00473    CDp =  0.00230

 Side 1  free  transition at x/c =  0.5678   57
 Side 2 forced transition at x/c =  1.0000   75

   4   rms: 0.1720E-03   max: -.1911E-02   C at   57  1
       a =  3.500      CL =  0.7248
      Cm = -0.0720     CD =  0.00704   =>   CDf =  0.00476    CDp =  0.00228

 Side 1  free  transition at x/c =  0.5679   57
 Side 2 forced transition at x/c =  1.0000   75

   5   rms: 0.2721E-05   max: 0.2591E-04   C at   57  1
       a =  3.500      CL =  0.7248
      Cm = -0.0720     CD =  0.00704   =>   CDf =  0.00476    CDp =  0.00228
 plradd ia,ip,cpol           16           0  2.09891070E-02

 Point added to stored polar  1
 Point written to save file  goe515_Re500k.base.pol                          
 Dump file unspecified or not available
 Calculating wake trajectory ...
 Calculating source influence matrix ...

 Solving BL system ...

 Side 1  free  transition at x/c =  0.5679   57
 Side 2 forced transition at x/c =  1.0000   75

   1   rms: 0.1249E+00   max: 0.1601E+01   C at   57  1   RLX: 0.688
       a =  4.000      CL =  0.7524
      Cm = -0.0697     CD =  0.00747   =>   CDf =  0.00476    CDp =  0.00270

 Side 1  free  transition at x/c =  0.5103   53
 Side 2 forced transition at x/c =  1.0000   75

   2   rms: 0.3669E-01   max: 0.3492E+00   C at   53  1
       a =  4.000      CL =  0.7661
      Cm = -0.0689     CD =  0.00762   =>   CDf =  0.00499    CDp =  0.00263

 Side 1  free  transition at x/c =  0.4827   51
 Side 2 forced transition at x/c =  1.0000   75

   3   rms: 0.7071E-02   max: -.1315E+00   C at   51  1
       a =  4.000      CL =  0.7659
      Cm = -0.0689     CD =  0.00762   =>   CDf =  0.00509    CDp =  0.00253

 Side 1  free  transition at x/c =  0.4862   51
 Side 2 forced transition at x/c =  1.0000   75

   4   rms: 0.2369E-03   max: 0.4272E-02   C at   51  1
       a =  4.000      CL =  0.7659
      Cm = -0.0689     CD =  0.00762   =>   CDf =  0.00507    CDp =  0.00256

 Side 1  free  transition at x/c =  0.4861   51
 Side 2 forced transition at x/c =  1.0000   75

   5   rms: 0.7283E-06   max: -.7979E-05   C at   51  1
       a =  4.000      CL =  0.7659
      Cm = -0.0689     CD =  0.00762   =>   CDf =  0.00507    CDp =  0.00256
 plradd ia,ip,cpol           17           0  3.33142583E-03

 Point added to stored polar  1
 Point written to save file  goe515_Re500k.base.pol                          
 Dump file unspecified or not available
 Calculating wake trajectory ...
 Calculating source influence matrix ...

 Solving BL system ...

 Side 1  free  transition at x/c =  0.4861   51
 Side 2 forced transition at x/c =  1.0000   75

   1   rms: 0.1459E+00   max: 0.2397E+01   C at   51  1   RLX: 0.626
       a =  4.500      CL =  0.7911
      Cm = -0.0669     CD =  0.00807   =>   CDf =  0.00507    CDp =  0.00300

 Side 1  free  transition at x/c =  0.4265   47
 Side 2 forced transition at x/c =  1.0000   75

   2   rms: 0.3524E-01   max: 0.2745E+00   C at   47  1
       a =  4.500      CL =  0.8063
      Cm = -0.0658     CD =  0.00836   =>   CDf =  0.00525    CDp =  0.00310

 Side 1  free  transition at x/c =  0.4001   46
 Side 2 forced transition at x/c =  1.0000   74

   3   rms: 0.8548E-02   max: -.1612E+00   C at   46  1
       a =  4.500      CL =  0.8051
      Cm = -0.0656     CD =  0.00842   =>   CDf =  0.00545    CDp =  0.00297

 Side 1  free  transition at x/c =  0.4035   47
 Side 2 forced transition at x/c =  1.0000   74

   4   rms: 0.4854E-02   max: -.8089E-01   C at   47  1
       a =  4.500      CL =  0.8053
      Cm = -0.0656     CD =  0.00841   =>   CDf =  0.00544    CDp =  0.00297

 Side 1  free  transition at x/c =  0.4044   47
 Side 2 forced transition at x/c =  1.0000   74

   5   rms: 0.1573E-03   max: 0.2797E-02   C at   47  1
       a =  4.500      CL =  0.8053
      Cm = -0.0656     CD =  0.00841   =>   CDf =  0.00542    CDp =  0.00299

 Side 1  free  transition at x/c =  0.4043   47
 Side 2 forced transition at x/c =  1.0000   74

   6   rms: 0.1275E-05   max: -.2246E-04   C at   47  1
       a =  4.500      CL =  0.8053
      Cm = -0.0656     CD =  0.00841   =>   CDf =  0.00542    CDp =  0.00299
 plradd ia,ip,cpol           18           0  2.07562698E-03

 Point added to stored polar  1
 Point written to save file  goe515_Re500k.base.pol                          
 Dump file unspecified or not available
 Calculating wake trajectory ...
 Calculating source influence matrix ...

 Solving BL system ...

 Side 1  free  transition at x/c =  0.4043   47
 Side 2 forced transition at x/c =  1.0000   74

   1   rms: 0.1418E+00   max: 0.2082E+01   C at   47  1   RLX: 0.585
       a =  5.000      CL =  0.8272
      Cm = -0.0636     CD =  0.00899   =>   CDf =  0.00542    CDp =  0.00357

 Side 1  free  transition at x/c =  0.3627   44
 Side 2 forced transition at x/c =  1.0000   74

   2   rms: 0.4936E-01   max: 0.5211E+00   C at   44  1
       a =  5.000      CL =  0.8460
      Cm = -0.0627     CD =  0.00919   =>   CDf =  0.00559    CDp =  0.00360

 Side 1  free  transition at x/c =  0.3317   42
 Side 2 forced transition at x/c =  1.0000   74

   3   rms: 0.1041E-01   max: 0.1741E+00   D at   43  1
       a =  5.000      CL =  0.8461
      Cm = -0.0628     CD =  0.00917   =>   CDf =  0.00572    CDp =  0.00345

 Side 1  free  transition at x/c =  0.3354   42
 Side 2 forced transition at x/c =  1.0000   74

   4   rms: 0.1020E-02   max: -.1891E-01   D at   43  1
       a =  5.000      CL =  0.8461
      Cm = -0.0628     CD =  0.00917   =>   CDf =  0.00569    CDp =  0.00349

 Side 1  free  transition at x/c =  0.3350   42
 Side 2 forced transition at x/c =  1.0000   74

   5   rms: 0.1262E-04   max: 0.2148E-03   C at   42  1
       a =  5.000      CL =  0.8461
      Cm = -0.0628     CD =  0.00917   =>   CDf =  0.00569    CDp =  0.00348
 plradd ia,ip,cpol           19           0  1.14390615E-03

 Point added to stored polar  1
 Point written to save file  goe515_Re500k.base.pol                          
 Dump file unspecified or not available
 Calculating wake trajectory ...
 Calculating source influence matrix ...

 Solving BL system ...

 Side 1  free  transition at x/c =  0.3350   42
 Side 2 forced transition at x/c =  1.0000   74

   1   rms: 0.1384E+00   max: 0.2141E+01   C at   42  1   RLX: 0.620
       a =  5.500      CL =  0.8708
      Cm = -0.0609     CD =  0.00972   =>   CDf =  0.00569    CDp =  0.00403

 Side 1  free  transition at x/c =  0.2750   38
 Side 2 forced transition at x/c =  1.0000   74

   2   rms: 0.5257E-01   max: 0.7079E+00   C at   38  1
       a =  5.500      CL =  0.8839
      Cm = -0.0595     CD =  0.01019   =>   CDf =  0.00584    CDp =  0.00435

 Side 1  free  transition at x/c =  0.2177   35
 Side 2 forced transition at x/c =  1.0000   73

   3   rms: 0.1634E-01   max: -.2875E+00   C at   35  1
       a =  5.500      CL =  0.8825
      Cm = -0.0593     CD =  0.01028   =>   CDf =  0.00622    CDp =  0.00406

 Side 1  free  transition at x/c =  0.2245   35
 Side 2 forced transition at x/c =  1.0000   73

   4   rms: 0.1080E-02   max: -.1029E-01   D at    4  1
       a =  5.500      CL =  0.8824
      Cm = -0.0592     CD =  0.01029   =>   CDf =  0.00618    CDp =  0.00411

 Side 1  free  transition at x/c =  0.2245   35
 Side 2 forced transition at x/c =  1.0000   73

   5   rms: 0.1910E-05   max: -.1979E-04   D at   37  1
       a =  5.500      CL =  0.8824
      Cm = -0.0592     CD =  0.01029   =>   CDf =  0.00618    CDp =  0.00410
 plradd ia,ip,cpol           20           0  1.14390615E-03

 Point added to stored polar  1
 Point written to save file  goe515_Re500k.base.pol                          
 Dump file unspecified or not available
 Calculating wake trajectory ...
 Calculating source influence matrix ...

 Solving BL system ...

 Side 1  free  transition at x/c =  0.2246   35
 Side 2 forced transition at x/c =  1.0000   73

   1   rms: 0.3111E+00   max: 0.6557E+01   C at   35  1   RLX: 0.229
       a =  6.000      CL =  0.8898
      Cm = -0.0583     CD =  0.01063   =>   CDf =  0.00618    CDp =  0.00445

 Side 1  free  transition at x/c =  0.1845   33
 Side 2 forced transition at x/c =  1.0000   73

   2   rms: 0.1420E+00   max: 0.2403E+01   C at   33  1   RLX: 0.581
       a =  6.000      CL =  0.9031
      Cm = -0.0564     CD =  0.01145   =>   CDf =  0.00641    CDp =  0.00504

 Side 1  free  transition at x/c =  0.1554   31
 Side 2 forced transition at x/c =  1.0000   73

   3   rms: 0.3894E-01   max: 0.3014E+00   C at   31  1
       a =  6.000      CL =  0.9168
      Cm = -0.0555     CD =  0.01165   =>   CDf =  0.00658    CDp =  0.00507

 Side 1  free  transition at x/c =  0.1416   30
 Side 2 forced transition at x/c =  1.0000   73

   4   rms: 0.7148E-02   max: 0.1485E+00   D at   30  1
       a =  6.000      CL =  0.9176
      Cm = -0.0556     CD =  0.01156   =>   CDf =  0.00665    CDp =  0.00491

 Side 1  free  transition at x/c =  0.1437   30
 Side 2 forced transition at x/c =  1.0000   73

   5   rms: 0.1574E-02   max: 0.2244E-01   C at   30  1
       a =  6.000      CL =  0.9177
      Cm = -0.0557     CD =  0.01156   =>   CDf =  0.00661    CDp =  0.00494

 Side 1  free  transition at x/c =  0.1431   30
 Side 2 forced transition at x/c =  1.0000   73

   6   rms: 0.1614E-04   max: 0.1998E-03   C at   30  1
       a =  6.000      CL =  0.9177
      Cm = -0.0557     CD =  0.01156   =>   CDf =  0.00662    CDp =  0.00494
 plradd ia,ip,cpol           21           0  1.14390615E-03

 Point added to stored polar  1
 Point written to save file  goe515_Re500k.base.pol                          
 Dump file unspecified or not available
 Calculating wake trajectory ...
 Calculating source influence matrix ...

 Solving BL system ...

 Side 1  free  transition at x/c =  0.1431   30
 Side 2 forced transition at x/c =  1.0000   73

   1   rms: 0.1150E+00   max: 0.1050E+01   C at   30  1   RLX: 0.582
       a =  6.500      CL =  0.9396
      Cm = -0.0538     CD =  0.01223   =>   CDf =  0.00662    CDp =  0.00561

 Side 1  free  transition at x/c =  0.1231   28
 Side 2 forced transition at x/c =  1.0000   73

   2   rms: 0.4058E-01   max: -.2793E+00   D at   28  1
       a =  6.500      CL =  0.9600
      Cm = -0.0532     CD =  0.01229   =>   CDf =  0.00670    CDp =  0.00560

 Side 1  free  transition at x/c =  0.1082   27
 Side 2 forced transition at x/c =  1.0000   73

   3   rms: 0.5366E-02   max: -.9117E-01   C at   27  1
       a =  6.500      CL =  0.9587
      Cm = -0.0530     CD =  0.01237   =>   CDf =  0.00674    CDp =  0.00564

 Side 1  free  transition at x/c =  0.1090   27
 Side 2 forced transition at x/c =  1.0000   73

   4   rms: 0.1372E-03   max: 0.2361E-02   C at   27  1
       a =  6.500      CL =  0.9587
      Cm = -0.0530     CD =  0.01238   =>   CDf =  0.00673    CDp =  0.00564

 Side 1  free  transition at x/c =  0.1089   27
 Side 2 forced transition at x/c =  1.0000   73

   5   rms: 0.6173E-06   max: 0.1033E-04   C at   27  1
       a =  6.500      CL =  0.9587
      Cm = -0.0530     CD =  0.01238   =>   CDf =  0.00673    CDp =  0.00564
 plradd ia,ip,cpol           22           0  4.95399814E-04

 Point added to stored polar  1
 Point written to save file  goe515_Re500k.base.pol                          
 Dump file unspecified or not available
 Calculating wake trajectory ...
 Calculating source influence matrix ...

 Solving BL system ...

 Side 1  free  transition at x/c =  0.1089   27
 Side 2 forced transition at x/c =  1.0000   73

   1   rms: 0.8908E-01   max: -.5353E+00   D at   27  1   RLX: 0.934
       a =  7.000      CL =  0.9996
      Cm = -0.0509     CD =  0.01295   =>   CDf =  0.00660    CDp =  0.00636

 Side 1  free  transition at x/c =  0.0697   25
 Side 2 forced transition at x/c =  1.0000   72

   2   rms: 0.1840E-01   max: -.2276E+00   D at   25  1
       a =  7.000      CL =  0.9980
      Cm = -0.0501     CD =  0.01333   =>   CDf =  0.00691    CDp =  0.00641

 Side 1  free  transition at x/c =  0.0636   25
 Side 2 forced transition at x/c =  1.0000   72

   3   rms: 0.1761E-02   max: -.2121E-01   D at   25  1
       a =  7.000      CL =  0.9970
      Cm = -0.0499     CD =  0.01340   =>   CDf =  0.00695    CDp =  0.00645

 Side 1  free  transition at x/c =  0.0633   25
 Side 2 forced transition at x/c =  1.0000   72

   4   rms: 0.1686E-04   max: -.2470E-03   D at   25  1
       a =  7.000      CL =  0.9970
      Cm = -0.0499     CD =  0.01340   =>   CDf =  0.00696    CDp =  0.00644
 plradd ia,ip,cpol           23           0  4.95399814E-04

 Point added to stored polar  1
 Point written to save file  goe515_Re500k.base.pol                          
 Dump file unspecified or not available
 Calculating wake trajectory ...
 Calculating source influence matrix ...

 Solving BL system ...

 Side 1  free  transition at x/c =  0.0633   25
 Side 2 forced transition at x/c =  1.0000   72

   1   rms: 0.1347E+00   max: 0.1551E+01   C at   25  1   RLX: 0.410
       a =  7.500      CL =  1.0108
      Cm = -0.0484     CD =  0.01401   =>   CDf =  0.00696    CDp =  0.00705

 Side 1  free  transition at x/c =  0.0515   24
 Side 2 forced transition at x/c =  1.0000   72

   2   rms: 0.8290E-01   max: -.8363E+00   D at   24  1   RLX: 0.598
       a =  7.500      CL =  1.0228
      Cm = -0.0471     CD =  0.01444   =>   CDf =  0.00701    CDp =  0.00743

 Side 1  free  transition at x/c =  0.0416   23
 Side 2 forced transition at x/c =  1.0000   72

   3   rms: 0.4480E-01   max: -.7340E+00   D at   23  1   RLX: 0.681
       a =  7.500      CL =  1.0306
      Cm = -0.0470     CD =  0.01444   =>   CDf =  0.00700    CDp =  0.00744

 Side 1  free  transition at x/c =  0.0354   22
 Side 2 forced transition at x/c =  1.0000   72

   4   rms: 0.1975E-01   max: -.2405E+00   D at   23  1
       a =  7.500      CL =  1.0330
      Cm = -0.0464     CD =  0.01462   =>   CDf =  0.00706    CDp =  0.00756

 Side 1  free  transition at x/c =  0.0313   22
 Side 2 forced transition at x/c =  1.0000   72

   5   rms: 0.2106E-02   max: -.8799E-02   T at   22  1
       a =  7.500      CL =  1.0312
      Cm = -0.0461     CD =  0.01476   =>   CDf =  0.00712    CDp =  0.00764

 Side 1  free  transition at x/c =  0.0314   22
 Side 2 forced transition at x/c =  1.0000   72

   6   rms: 0.8654E-05   max: -.6712E-04   T at   22  1
       a =  7.500      CL =  1.0312
      Cm = -0.0461     CD =  0.01477   =>   CDf =  0.00712    CDp =  0.00764
 plradd ia,ip,cpol           24           0  4.95399814E-04

 Point added to stored polar  1
 Point written to save file  goe515_Re500k.base.pol                          
 Dump file unspecified or not available
 Calculating wake trajectory ...
 Calculating source influence matrix ...

 Solving BL system ...

 Side 1  free  transition at x/c =  0.0314   22
 Side 2 forced transition at x/c =  1.0000   72

   1   rms: 0.1307E+00   max: -.1217E+01   D at   22  1   RLX: 0.411
       a =  8.000      CL =  1.0439
      Cm = -0.0443     CD =  0.01550   =>   CDf =  0.00713    CDp =  0.00837

 Side 1  free  transition at x/c =  0.0264   21
 Side 2 forced transition at x/c =  1.0000   72

   2   rms: 0.5519E-01   max: -.4238E+00   D at   22  1
       a =  8.000      CL =  1.0700
      Cm = -0.0430     CD =  0.01575   =>   CDf =  0.00706    CDp =  0.00869

 Side 1  free  transition at x/c =  0.0218   21
 Side 2 forced transition at x/c =  1.0000   72

   3   rms: 0.7545E-02   max: -.4772E-01   D at   22  1
       a =  8.000      CL =  1.0642
      Cm = -0.0421     CD =  0.01623   =>   CDf =  0.00710    CDp =  0.00913

 Side 1  free  transition at x/c =  0.0215   21
 Side 2 forced transition at x/c =  1.0000   72

   4   rms: 0.2138E-03   max: 0.1414E-02   D at   20  1
       a =  8.000      CL =  1.0641
      Cm = -0.0420     CD =  0.01624   =>   CDf =  0.00711    CDp =  0.00913

 Side 1  free  transition at x/c =  0.0215   21
 Side 2 forced transition at x/c =  1.0000   72

   5   rms: 0.2198E-05   max: -.6758E-05   C at   72  2
       a =  8.000      CL =  1.0641
      Cm = -0.0420     CD =  0.01624   =>   CDf =  0.00711    CDp =  0.00913
 plradd ia,ip,cpol           25           0  4.95399814E-04

 Point added to stored polar  1
 Point written to save file  goe515_Re500k.base.pol                          
 Dump file unspecified or not available
 Calculating wake trajectory ...
 Calculating source influence matrix ...

 Solving BL system ...

 Side 1  free  transition at x/c =  0.0215   21
 Side 2 forced transition at x/c =  1.0000   72

   1   rms: 0.1341E+00   max: 0.5253E+00   T at   21  1
       a =  8.500      CL =  1.0828
      Cm = -0.0355     CD =  0.01904   =>   CDf =  0.00687    CDp =  0.01217

 Side 1  free  transition at x/c =  0.0178   21
 Side 2 forced transition at x/c =  1.0000   71

   2   rms: 0.9839E-01   max: -.6963E+00   D at   21  1   RLX: 0.718
       a =  8.500      CL =  1.0834
      Cm = -0.0361     CD =  0.01825   =>   CDf =  0.00672    CDp =  0.01153

 Side 1  free  transition at x/c =  0.0185   21
 Side 2 forced transition at x/c =  1.0000   71

   3   rms: 0.3278E-01   max: -.3298E+00   D at   21  1
       a =  8.500      CL =  1.0983
      Cm = -0.0383     CD =  0.01748   =>   CDf =  0.00689    CDp =  0.01059

 Side 1  free  transition at x/c =  0.0183   21
 Side 2 forced transition at x/c =  1.0000   71

   4   rms: 0.2364E-02   max: 0.2389E-01   D at   21  1
       a =  8.500      CL =  1.0984
      Cm = -0.0383     CD =  0.01751   =>   CDf =  0.00696    CDp =  0.01055

 Side 1  free  transition at x/c =  0.0183   21
 Side 2 forced transition at x/c =  1.0000   71

   5   rms: 0.3637E-04   max: 0.1637E-03   D at   73  2
       a =  8.500      CL =  1.0983
      Cm = -0.0383     CD =  0.01751   =>   CDf =  0.00695    CDp =  0.01055
 plradd ia,ip,cpol           26           0  4.95399814E-04

 Point added to stored polar  1
 Point written to save file  goe515_Re500k.base.pol                          
 Dump file unspecified or not available
 Calculating wake trajectory ...
 Calculating source influence matrix ...

 Solving BL system ...

 Side 1  free  transition at x/c =  0.0183   21
 Side 2 forced transition at x/c =  1.0000   71

   1   rms: 0.8122E-01   max: 0.3457E+00   T at   21  1
       a =  9.000      CL =  1.1315
      Cm = -0.0345     CD =  0.01892   =>   CDf =  0.00696    CDp =  0.01196

 Side 1  free  transition at x/c =  0.0160   21
 Side 2 forced transition at x/c =  1.0000   71

   2   rms: 0.8414E-02   max: -.5121E-01   D at   21  1
       a =  9.000      CL =  1.1264
      Cm = -0.0337     CD =  0.01915   =>   CDf =  0.00682    CDp =  0.01233

 Side 1  free  transition at x/c =  0.0159   21
 Side 2 forced transition at x/c =  1.0000   71

   3   rms: 0.2382E-03   max: 0.1788E-02   D at   21  1
       a =  9.000      CL =  1.1264
      Cm = -0.0337     CD =  0.01916   =>   CDf =  0.00684    CDp =  0.01232

 Side 1  free  transition at x/c =  0.0159   21
 Side 2 forced transition at x/c =  1.0000   71

   4   rms: 0.3756E-05   max: -.1105E-04   C at   71  2
       a =  9.000      CL =  1.1264
      Cm = -0.0337     CD =  0.01916   =>   CDf =  0.00684    CDp =  0.01232
 plradd ia,ip,cpol           27           0  4.95399814E-04

 Point added to stored polar  1
 Point written to save file  goe515_Re500k.base.pol                          
 Dump file unspecified or not available
 Calculating wake trajectory ...
 Calculating source influence matrix ...

 Solving BL system ...

 Side 1  free  transition at x/c =  0.0159   21
 Side 2 forced transition at x/c =  1.0000   71

   1   rms: 0.9515E-01   max: 0.3140E+00   T at   21  1
       a =  9.500      CL =  1.1460
      Cm = -0.0279     CD =  0.02161   =>   CDf =  0.00684    CDp =  0.01476

 MRCHDU: Convergence failed at  21  side 1    Res =  0.3137E+01
 MRCHDU: Convergence failed at  22  side 1    Res =  0.3374E+01
 MRCHDU: Convergence failed at  23  side 1    Res =  0.3994E+02
 MRCHDU: Convergence failed at  24  side 1    Res =  0.4392E+01
 MRCHDU: Convergence failed at  25  side 1    Res =  0.9208E+01
 MRCHDU: Convergence failed at  26  side 1    Res =  0.1034E+02
 MRCHDU: Convergence failed at  27  side 1    Res =  0.2834E+02
 MRCHDU: Convergence failed at  28  side 1    Res =  0.1639E+03
 MRCHDU: Convergence failed at  29  side 1    Res =  0.2986E+02
 MRCHDU: Convergence failed at  30  side 1    Res =  0.2912E+02
 MRCHDU: Convergence failed at  31  side 1    Res =  0.4148E+02
 MRCHDU: Convergence failed at  32  side 1    Res =  0.4401E+02
 MRCHDU: Convergence failed at  33  side 1    Res =  0.3087E+02
 MRCHDU: Convergence failed at  34  side 1    Res =  0.4819E+02
 MRCHDU: Convergence failed at  35  side 1    Res =  0.3416E+02
 MRCHDU: Convergence failed at  36  side 1    Res =  0.3664E+02
 MRCHDU: Convergence failed at  37  side 1    Res =  0.3596E+02
 MRCHDU: Convergence failed at  38  side 1    Res =  0.3713E+02
 MRCHDU: Convergence failed at  39  side 1    Res =  0.3828E+02
 MRCHDU: Convergence failed at  40  side 1    Res =  0.3344E+02
 MRCHDU: Convergence failed at  41  side 1    Res =  0.4063E+02
 MRCHDU: Convergence failed at  42  side 1    Res =  0.5035E+02
 MRCHDU: Convergence failed at  43  side 1    Res =  0.4821E+02
 MRCHDU: Convergence failed at  44  side 1    Res =  0.3741E+02
 MRCHDU: Convergence failed at  45  side 1    Res =  0.3087E+02
 MRCHDU: Convergence failed at  46  side 1    Res =  0.3273E+02
 MRCHDU: Convergence failed at  47  side 1    Res =  0.3479E+02
 MRCHDU: Convergence failed at  48  side 1    Res =  0.3701E+02
 MRCHDU: Convergence failed at  49  side 1    Res =  0.3929E+02
 MRCHDU: Convergence failed at  50  side 1    Res =  0.4157E+02
 MRCHDU: Convergence failed at  51  side 1    Res =  0.5075E+02
 MRCHDU: Convergence failed at  52  side 1    Res =  0.5414E+02
 MRCHDU: Convergence failed at  53  side 1    Res =  0.3415E+02
 MRCHDU: Convergence failed at  54  side 1    Res =  0.3617E+02
 MRCHDU: Convergence failed at  55  side 1    Res =  0.3985E+02
 MRCHDU: Convergence failed at  56  side 1    Res =  0.4382E+02
 MRCHDU: Convergence failed at  57  side 1    Res =  0.4739E+02
 MRCHDU: Convergence failed at  58  side 1    Res =  0.3327E+02
 MRCHDU: Convergence failed at  59  side 1    Res =  0.3589E+02
 MRCHDU: Convergence failed at  60  side 1    Res =  0.3893E+02
 MRCHDU: Convergence failed at  61  side 1    Res =  0.4192E+02
 MRCHDU: Convergence failed at  62  side 1    Res =  0.4233E+02
 MRCHDU: Convergence failed at  63  side 1    Res =  0.7594E+02
 MRCHDU: Convergence failed at  64  side 1    Res =  0.8227E+02
 MRCHDU: Convergence failed at  65  side 1    Res =  0.7900E+02
 MRCHDU: Convergence failed at  66  side 1    Res =  0.9301E+02
 MRCHDU: Convergence failed at  67  side 1    Res =  0.1053E+03
 MRCHDU: Convergence failed at  68  side 1    Res =  0.1279E+03
 MRCHDU: Convergence failed at  69  side 1    Res =  0.1663E+03
 MRCHDU: Convergence failed at  70  side 1    Res =  0.8378E+02
 MRCHDU: Convergence failed at  71  side 1    Res =  0.9874E+02
 MRCHDU: Convergence failed at  72  side 1    Res =  0.1189E+03
 MRCHDU: Convergence failed at  73  side 1    Res =  0.1534E+03
 MRCHDU: Convergence failed at  74  side 1    Res =  0.1124E+03
 MRCHDU: Convergence failed at  75  side 1    Res =  0.7578E+02
 MRCHDU: Convergence failed at  76  side 1    Res =  0.9684E+02
 MRCHDU: Convergence failed at  77  side 1    Res =  0.8764E+02
 MRCHDU: Convergence failed at  78  side 1    Res =  0.6237E+02
 MRCHDU: Convergence failed at  79  side 1    Res =  0.5994E+02
 MRCHDU: Convergence failed at  80  side 1    Res =  0.5809E+02
 MRCHDU: Convergence failed at  81  side 1    Res =  0.5501E+04
 MRCHDU: Convergence failed at  82  side 1    Res =  0.1030E+03
 MRCHDU: Convergence failed at  83  side 1    Res =  0.2935E+04
 MRCHDU: Convergence failed at  84  side 1    Res =  0.2211E+04
 MRCHDU: Convergence failed at  85  side 1    Res =  0.7038E+03
 MRCHDU: Convergence failed at  86  side 1    Res =  0.5135E+03
 MRCHDU: Convergence failed at  87  side 1    Res =  0.3156E+03
 MRCHDU: Convergence failed at  88  side 1    Res =  0.2133E+03
 MRCHDU: Convergence failed at  89  side 1    Res =  0.1621E+03
 MRCHDU: Convergence failed at  90  side 1    Res =  0.1372E+03
 MRCHDU: Convergence failed at  91  side 1    Res =  0.1018E+03
 Side 1  free  transition at x/c =  0.0144   20
 Side 2 forced transition at x/c =  1.0000   71

   2   rms: 0.2890E+01   max: 0.1178E+02   D at   73  2   RLX: 0.127
       a =  9.500      CL =  4.0561
      Cm = -0.9565     CD =  0.00375   =>   CDf =  0.00108    CDp =  0.00267

 MRCHDU: Convergence failed at  35  side 1    Res =  0.3821E-01
 MRCHDU: Convergence failed at  36  side 1    Res =  0.1646E-02
 MRCHDU: Convergence failed at  74  side 2    Res =  0.3361E+01
 MRCHDU: Convergence failed at  75  side 2    Res =  0.1591E+02
 MRCHDU: Convergence failed at  76  side 2    Res =  0.2766E+01
 Side 1  free  transition at x/c =  0.0147   21
 Side 2 forced transition at x/c =  1.0000   71

   3   rms: 0.1021E+01   max: 0.6548E+01   C at   71  2   RLX: 0.170
       a =  9.500      CL =  2.9140
      Cm = -0.6727     CD =  0.05944   =>   CDf =  0.00254    CDp =  0.05690

 Side 1  free  transition at x/c =  0.0147   21
 Side 2 forced transition at x/c =  1.0000   71

   4   rms: 0.1001E+01   max: 0.3138E+01   C at   71  2   RLX: 0.239
       a =  9.500      CL =  2.3232
      Cm = -0.4804     CD =  0.07069   =>   CDf =  0.00265    CDp =  0.06804

 Side 1  free  transition at x/c =  0.0151   21
 Side 2 forced transition at x/c =  1.0000   71
 idif Ue xi dudx           1  0.23331241      7.27355480E-03   32.076805    
 Uenew xinew           2  3.81467603E-02  1.18923187E-03

   5   rms: 0.8873E+00   max: -.3125E+01   T at   21  1   RLX: 0.160
       a =  9.500      CL =  2.0223
      Cm = -0.3870     CD =  0.09416   =>   CDf =  0.00273    CDp =  0.09142

 Side 1  free  transition at x/c =  0.0159   20
 Side 2 forced transition at x/c =  1.0000   72

   6   rms: 0.7558E+00   max: -.3437E+01   T at   20  1   RLX: 0.145
       a =  9.500      CL =  1.7973
      Cm = -0.3244     CD =  0.10644   =>   CDf =  0.00258    CDp =  0.10386

 Side 1  free  transition at x/c =  0.0176   20
 Side 2 forced transition at x/c =  1.0000   72

   7   rms: 0.6709E+00   max: -.3596E+01   T at   20  1   RLX: 0.139
       a =  9.500      CL =  1.6085
      Cm = -0.2743     CD =  0.11476   =>   CDf =  0.00260    CDp =  0.11216

 Side 1  free  transition at x/c =  0.0187   20
 Side 2 forced transition at x/c =  1.0000   72
 idif Ue xi dudx           1  0.16676475      4.69803810E-03   35.496677    
 Uenew xinew           2  3.71105503E-03  1.04546547E-04

   8   rms: 0.5982E+00   max: -.2175E+01   T at   20  1   RLX: 0.230
       a =  9.500      CL =  1.3489
      Cm = -0.2065     CD =  0.11032   =>   CDf =  0.00275    CDp =  0.10757

 Side 1  free  transition at x/c =  0.0193   19
 Side 2 forced transition at x/c =  1.0000   73

   9   rms: 0.5964E+00   max: -.5562E+01   T at    2  2   RLX: 0.090
       a =  9.500      CL =  1.2611
      Cm = -0.1804     CD =  0.13154   =>   CDf =  0.00276    CDp =  0.12878

 Side 1  free  transition at x/c =  0.0196   19
 Side 2 forced transition at x/c =  1.0000   73

  10   rms: 0.4831E+00   max: -.1869E+01   D at   18  1   RLX: 0.268
       a =  9.500      CL =  1.0630
      Cm = -0.1290     CD =  0.11006   =>   CDf =  0.00279    CDp =  0.10727

 Side 1  free  transition at x/c =  0.0205   19
 Side 2 forced transition at x/c =  1.0000   73

  11   rms: 0.4439E+00   max: 0.1380E+01   C at   73  2   RLX: 0.388
       a =  9.500      CL =  0.8731
      Cm = -0.0838     CD =  0.10072   =>   CDf =  0.00290    CDp =  0.09782

 MRCHDU: Convergence failed at  22  side 1    Res =  0.4511E+01
 MRCHDU: Convergence failed at  23  side 1    Res =  0.8947E+01
 MRCHDU: Convergence failed at  24  side 1    Res =  0.3164E+01
 MRCHDU: Convergence failed at  25  side 1    Res =  0.3357E+01
 MRCHDU: Convergence failed at  26  side 1    Res =  0.3227E+01
 MRCHDU: Convergence failed at  27  side 1    Res =  0.8447E+01
 MRCHDU: Convergence failed at  28  side 1    Res =  0.3884E+02
 MRCHDU: Convergence failed at  29  side 1    Res =  0.4421E+01
 MRCHDU: Convergence failed at  30  side 1    Res =  0.2249E+01
 MRCHDU: Convergence failed at  31  side 1    Res =  0.2387E+01
 MRCHDU: Convergence failed at  32  side 1    Res =  0.2127E+02
 MRCHDU: Convergence failed at  33  side 1    Res =  0.1921E+01
 MRCHDU: Convergence failed at  35  side 1    Res =  0.1392E+01
 MRCHDU: Convergence failed at  36  side 1    Res =  0.8724E+01
 MRCHDU: Convergence failed at  37  side 1    Res =  0.7464E+00
 MRCHDU: Convergence failed at  38  side 1    Res =  0.1179E+02
 MRCHDU: Convergence failed at  39  side 1    Res =  0.1673E+02
 MRCHDU: Convergence failed at  40  side 1    Res =  0.1802E+01
 MRCHDU: Convergence failed at  41  side 1    Res =  0.1865E+01
 MRCHDU: Convergence failed at  42  side 1    Res =  0.8638E+00
 MRCHDU: Convergence failed at  43  side 1    Res =  0.9530E+00
 MRCHDU: Convergence failed at  44  side 1    Res =  0.1157E+01
 MRCHDU: Convergence failed at  45  side 1    Res =  0.1448E+01
 MRCHDU: Convergence failed at  46  side 1    Res =  0.6018E+01
 MRCHDU: Convergence failed at  47  side 1    Res =  0.2162E+02
 MRCHDU: Convergence failed at  48  side 1    Res =  0.1465E+02
 MRCHDU: Convergence failed at  49  side 1    Res =  0.6513E+01
 MRCHDU: Convergence failed at  50  side 1    Res =  0.4327E+01
 MRCHDU: Convergence failed at  51  side 1    Res =  0.2215E+01
 MRCHDU: Convergence failed at  52  side 1    Res =  0.1958E+01
 MRCHDU: Convergence failed at  53  side 1    Res =  0.1800E+01
 MRCHDU: Convergence failed at  54  side 1    Res =  0.1014E+01
 MRCHDU: Convergence failed at  55  side 1    Res =  0.1096E+01
 MRCHDU: Convergence failed at  56  side 1    Res =  0.1200E+01
[...]
 MRCHDU: Convergence failed at  70  side 1    Res =  0.8893E-01
 MRCHDU: Convergence failed at  71  side 1    Res =  0.5179E-01
 MRCHDU: Convergence failed at  72  side 1    Res =  0.2465E-01
 MRCHDU: Convergence failed at  73  side 1    Res =  0.1569E-01
 MRCHDU: Convergence failed at  80  side 1    Res =  0.5536E-04
 MRCHDU: Convergence failed at  76  side 2    Res =  0.1326E-03
 MRCHDU: Convergence failed at  78  side 2    Res =  0.4007E-04
 MRCHDU: Convergence failed at  81  side 2    Res =  0.1861E-04
 MRCHDU: Convergence failed at  94  side 2    Res =  0.8209E-04
 MRCHDU: Convergence failed at  95  side 2    Res =  0.1224E-02
 MRCHDU: Convergence failed at  96  side 2    Res =  0.1309E-02
 Side 1  free  transition at x/c =  0.0688   23
 Side 2  free  transition at x/c =  0.9669   71

 137   rms: 0.8445E+08   max: 0.1858E+10   T at   91  2   RLX: 0.000
       a = 16.000      CL =  0.3643
      Cm = -0.0778     CD =307.42096   =>   CDf =  0.00103    CDp =307.41992

 MRCHDU: Convergence failed at  69  side 1    Res =  0.7013E-01
 MRCHDU: Convergence failed at  70  side 1    Res =  0.8893E-01
 MRCHDU: Convergence failed at  71  side 1    Res =  0.5179E-01
 MRCHDU: Convergence failed at  72  side 1    Res =  0.2465E-01
 MRCHDU: Convergence failed at  73  side 1    Res =  0.1569E-01
 MRCHDU: Convergence failed at  80  side 1    Res =  0.5536E-04
 MRCHDU: Convergence failed at  76  side 2    Res =  0.1326E-03
 MRCHDU: Convergence failed at  78  side 2    Res =  0.4007E-04
 MRCHDU: Convergence failed at  81  side 2    Res =  0.1861E-04
 MRCHDU: Convergence failed at  94  side 2    Res =  0.8208E-04
 MRCHDU: Convergence failed at  95  side 2    Res =  0.1224E-02
 MRCHDU: Convergence failed at  96  side 2    Res =  0.1309E-02
 Side 1  free  transition at x/c =  0.0688   23
 Side 2  free  transition at x/c =  0.9669   71

 138   rms: 0.2162E+08   max: 0.5094E+09   T at   91  2   RLX: 0.000
       a = 16.000      CL =  0.3643
      Cm = -0.0778     CD =307.42279   =>   CDf =  0.00103    CDp =307.42175

 MRCHDU: Convergence failed at  69  side 1    Res =  0.7010E-01
 MRCHDU: Convergence failed at  70  side 1    Res =  0.8894E-01
 MRCHDU: Convergence failed at  71  side 1    Res =  0.5179E-01
 MRCHDU: Convergence failed at  72  side 1    Res =  0.2465E-01
 MRCHDU: Convergence failed at  73  side 1    Res =  0.1570E-01
 MRCHDU: Convergence failed at  80  side 1    Res =  0.5537E-04
 MRCHDU: Convergence failed at  76  side 2    Res =  0.1328E-03
 MRCHDU: Convergence failed at  78  side 2    Res =  0.4007E-04
 MRCHDU: Convergence failed at  81  side 2    Res =  0.1861E-04
 MRCHDU: Convergence failed at  94  side 2    Res =  0.8204E-04
 MRCHDU: Convergence failed at  95  side 2    Res =  0.1224E-02
 MRCHDU: Convergence failed at  96  side 2    Res =  0.1310E-02
 Side 1  free  transition at x/c =  0.0688   23
 Side 2  free  transition at x/c =  0.9669   71

 139   rms: 0.9182E+08   max: 0.2157E+10   T at   91  2   RLX: 0.000
       a = 16.000      CL =  0.3643
      Cm = -0.0778     CD =307.47409   =>   CDf =  0.00103    CDp =307.47305

 MRCHDU: Convergence failed at  69  side 1    Res =  0.7009E-01
 MRCHDU: Convergence failed at  70  side 1    Res =  0.8894E-01
 MRCHDU: Convergence failed at  71  side 1    Res =  0.5179E-01
 MRCHDU: Convergence failed at  72  side 1    Res =  0.2465E-01
 MRCHDU: Convergence failed at  73  side 1    Res =  0.1570E-01
 MRCHDU: Convergence failed at  80  side 1    Res =  0.5535E-04
 MRCHDU: Convergence failed at  76  side 2    Res =  0.1328E-03
 MRCHDU: Convergence failed at  78  side 2    Res =  0.4007E-04
 MRCHDU: Convergence failed at  81  side 2    Res =  0.1862E-04
 MRCHDU: Convergence failed at  94  side 2    Res =  0.8203E-04
 MRCHDU: Convergence failed at  95  side 2    Res =  0.1224E-02
 MRCHDU: Convergence failed at  96  side 2    Res =  0.1310E-02
 Side 1  free  transition at x/c =  0.0688   23
 Side 2  free  transition at x/c =  0.9669   71

 140   rms: 0.5477E+09   max: 0.1227E+11   T at   91  2   RLX: 0.000
       a = 16.000      CL =  0.3643
      Cm = -0.0778     CD =307.48785   =>   CDf =  0.00103    CDp =307.48682

 MRCHDU: Convergence failed at  69  side 1    Res =  0.7016E-01
 MRCHDU: Convergence failed at  70  side 1    Res =  0.8893E-01
 MRCHDU: Convergence failed at  71  side 1    Res =  0.5179E-01
 MRCHDU: Convergence failed at  72  side 1    Res =  0.2465E-01
 MRCHDU: Convergence failed at  73  side 1    Res =  0.1570E-01
 MRCHDU: Convergence failed at  80  side 1    Res =  0.5537E-04
 MRCHDU: Convergence failed at  76  side 2    Res =  0.1328E-03
 MRCHDU: Convergence failed at  78  side 2    Res =  0.4007E-04
 MRCHDU: Convergence failed at  81  side 2    Res =  0.1861E-04
 MRCHDU: Convergence failed at  94  side 2    Res =  0.8203E-04
 MRCHDU: Convergence failed at  95  side 2    Res =  0.1224E-02
 MRCHDU: Convergence failed at  96  side 2    Res =  0.1310E-02
 Side 1  free  transition at x/c =  0.0688   23
 Side 2  free  transition at x/c =  0.9669   71

 141   rms: 0.6796E+07   max: 0.1472E+09   T at   91  2   RLX: 0.000
       a = 16.000      CL =  0.3643
      Cm = -0.0778     CD =307.51932   =>   CDf =  0.00103    CDp =307.51828

 MRCHDU: Convergence failed at  69  side 1    Res =  0.7007E-01
 MRCHDU: Convergence failed at  70  side 1    Res =  0.8897E-01
 MRCHDU: Convergence failed at  71  side 1    Res =  0.5182E-01
 MRCHDU: Convergence failed at  72  side 1    Res =  0.2474E-01
 MRCHDU: Convergence failed at  73  side 1    Res =  0.1579E-01
 MRCHDU: Convergence failed at  80  side 1    Res =  0.5524E-04
 MRCHDU: Convergence failed at  76  side 2    Res =  0.1229E-03
 MRCHDU: Convergence failed at  78  side 2    Res =  0.4006E-04
 MRCHDU: Convergence failed at  81  side 2    Res =  0.1858E-04
 MRCHDU: Convergence failed at  94  side 2    Res =  0.8511E-04
 MRCHDU: Convergence failed at  95  side 2    Res =  0.1224E-02
 MRCHDU: Convergence failed at  96  side 2    Res =  0.1313E-02
 Side 1  free  transition at x/c =  0.0688   23
 Side 2  free  transition at x/c =  0.9669   71

 142   rms: 0.6084E+08   max: -.1148E+10   T at   91  2   RLX: 0.000
       a = 16.000      CL =  0.3643
      Cm = -0.0778     CD =323.19528   =>   CDf =  0.00103    CDp =323.19424

 MRCHDU: Convergence failed at  69  side 1    Res =  0.7008E-01
 MRCHDU: Convergence failed at  70  side 1    Res =  0.8897E-01
 MRCHDU: Convergence failed at  71  side 1    Res =  0.5182E-01
 MRCHDU: Convergence failed at  72  side 1    Res =  0.2474E-01
 MRCHDU: Convergence failed at  73  side 1    Res =  0.1579E-01
 MRCHDU: Convergence failed at  80  side 1    Res =  0.5523E-04
 MRCHDU: Convergence failed at  76  side 2    Res =  0.1228E-03
 MRCHDU: Convergence failed at  78  side 2    Res =  0.4006E-04
 MRCHDU: Convergence failed at  81  side 2    Res =  0.1858E-04
 MRCHDU: Convergence failed at  94  side 2    Res =  0.8514E-04
 MRCHDU: Convergence failed at  95  side 2    Res =  0.1224E-02
 MRCHDU: Convergence failed at  96  side 2    Res =  0.1313E-02
 Side 1  free  transition at x/c =  0.0688   23
 Side 2  free  transition at x/c =  0.9669   71

 143   rms: 0.1957E+08   max: 0.4791E+09   T at   91  2   RLX: 0.000
       a = 16.000      CL =  0.3643
      Cm = -0.0778     CD =323.51047   =>   CDf =  0.00103    CDp =323.50943

 MRCHDU: Convergence failed at  69  side 1    Res =  0.7012E-01
 MRCHDU: Convergence failed at  70  side 1    Res =  0.8896E-01
 MRCHDU: Convergence failed at  71  side 1    Res =  0.5182E-01
 MRCHDU: Convergence failed at  72  side 1    Res =  0.2474E-01
 MRCHDU: Convergence failed at  73  side 1    Res =  0.1579E-01
 MRCHDU: Convergence failed at  80  side 1    Res =  0.5524E-04
 MRCHDU: Convergence failed at  76  side 2    Res =  0.1229E-03
 MRCHDU: Convergence failed at  78  side 2    Res =  0.4006E-04
 MRCHDU: Convergence failed at  81  side 2    Res =  0.1858E-04
 MRCHDU: Convergence failed at  94  side 2    Res =  0.8514E-04
 MRCHDU: Convergence failed at  95  side 2    Res =  0.1224E-02
 MRCHDU: Convergence failed at  96  side 2    Res =  0.1313E-02
 Side 1  free  transition at x/c =  0.0688   23
 Side 2  free  transition at x/c =  0.9669   71

 144   rms: 0.1063E+08   max: 0.1974E+09   T at   74  1   RLX: 0.000
       a = 16.000      CL =  0.3643
      Cm = -0.0778     CD =323.38937   =>   CDf =  0.00103    CDp =323.38834

 MRCHDU: Convergence failed at  69  side 1    Res =  0.7011E-01
 MRCHDU: Convergence failed at  70  side 1    Res =  0.8897E-01
 MRCHDU: Convergence failed at  71  side 1    Res =  0.5184E-01
 MRCHDU: Convergence failed at  72  side 1    Res =  0.2477E-01
 MRCHDU: Convergence failed at  73  side 1    Res =  0.1581E-01
 MRCHDU: Convergence failed at  80  side 1    Res =  0.5526E-04
 MRCHDU: Convergence failed at  76  side 2    Res =  0.1232E-03
 MRCHDU: Convergence failed at  78  side 2    Res =  0.4006E-04
 MRCHDU: Convergence failed at  81  side 2    Res =  0.1858E-04
 MRCHDU: Convergence failed at  94  side 2    Res =  0.8510E-04
 MRCHDU: Convergence failed at  95  side 2    Res =  0.1224E-02
 MRCHDU: Convergence failed at  96  side 2    Res =  0.1313E-02
 Side 1  free  transition at x/c =  0.0688   23
 Side 2  free  transition at x/c =  0.9669   71

 145   rms: 0.4756E+08   max: 0.1189E+10   T at   91  2   RLX: 0.000
       a = 16.000      CL =  0.3643
      Cm = -0.0778     CD =319.99286   =>   CDf =  0.00103    CDp =319.99182

 MRCHDU: Convergence failed at  69  side 1    Res =  0.7005E-01
 MRCHDU: Convergence failed at  70  side 1    Res =  0.8898E-01
 MRCHDU: Convergence failed at  71  side 1    Res =  0.5185E-01
 MRCHDU: Convergence failed at  72  side 1    Res =  0.2478E-01
 MRCHDU: Convergence failed at  73  side 1    Res =  0.1581E-01
 MRCHDU: Convergence failed at  80  side 1    Res =  0.5526E-04
 MRCHDU: Convergence failed at  76  side 2    Res =  0.1232E-03
 MRCHDU: Convergence failed at  78  side 2    Res =  0.4006E-04
 MRCHDU: Convergence failed at  81  side 2    Res =  0.1858E-04
 MRCHDU: Convergence failed at  94  side 2    Res =  0.8510E-04
 MRCHDU: Convergence failed at  95  side 2    Res =  0.1224E-02
 MRCHDU: Convergence failed at  96  side 2    Res =  0.1313E-02
 Side 1  free  transition at x/c =  0.0688   23
 Side 2  free  transition at x/c =  0.9669   71

 146   rms: 0.2431E+08   max: 0.5742E+09   T at   91  2   RLX: 0.000
       a = 16.000      CL =  0.3643
      Cm = -0.0778     CD =319.98029   =>   CDf =  0.00103    CDp =319.97925

 MRCHDU: Convergence failed at  69  side 1    Res =  0.7006E-01
 MRCHDU: Convergence failed at  70  side 1    Res =  0.8898E-01
 MRCHDU: Convergence failed at  71  side 1    Res =  0.5185E-01
 MRCHDU: Convergence failed at  72  side 1    Res =  0.2478E-01
 MRCHDU: Convergence failed at  73  side 1    Res =  0.1581E-01
 MRCHDU: Convergence failed at  80  side 1    Res =  0.5526E-04
 MRCHDU: Convergence failed at  76  side 2    Res =  0.1232E-03
 MRCHDU: Convergence failed at  78  side 2    Res =  0.4006E-04
 MRCHDU: Convergence failed at  81  side 2    Res =  0.1858E-04
 MRCHDU: Convergence failed at  94  side 2    Res =  0.8509E-04
 MRCHDU: Convergence failed at  95  side 2    Res =  0.1224E-02
 MRCHDU: Convergence failed at  96  side 2    Res =  0.1313E-02
 Side 1  free  transition at x/c =  0.0688   23
 Side 2  free  transition at x/c =  0.9669   71

 147   rms: 0.3691E+07   max: 0.5990E+08   T at   91  2   RLX: 0.000
       a = 16.000      CL =  0.3643
      Cm = -0.0778     CD =319.92413   =>   CDf =  0.00103    CDp =319.92310

 MRCHDU: Convergence failed at  69  side 1    Res =  0.7005E-01
 MRCHDU: Convergence failed at  70  side 1    Res =  0.8898E-01
 MRCHDU: Convergence failed at  71  side 1    Res =  0.5186E-01
 MRCHDU: Convergence failed at  72  side 1    Res =  0.2478E-01
 MRCHDU: Convergence failed at  73  side 1    Res =  0.1582E-01
 MRCHDU: Convergence failed at  80  side 1    Res =  0.5526E-04
 MRCHDU: Convergence failed at  76  side 2    Res =  0.1228E-03
 MRCHDU: Convergence failed at  78  side 2    Res =  0.4006E-04
 MRCHDU: Convergence failed at  81  side 2    Res =  0.1858E-04
 MRCHDU: Convergence failed at  94  side 2    Res =  0.8524E-04
 MRCHDU: Convergence failed at  95  side 2    Res =  0.1224E-02
 MRCHDU: Convergence failed at  96  side 2    Res =  0.1313E-02
 Side 1  free  transition at x/c =  0.0688   23
 Side 2  free  transition at x/c =  0.9669   71

 148   rms: 0.1006E+08   max: -.1851E+09   T at   91  2   RLX: 0.000
       a = 16.000      CL =  0.3643
      Cm = -0.0778     CD =320.10242   =>   CDf =  0.00103    CDp =320.10138

 MRCHDU: Convergence failed at  69  side 1    Res =  0.7010E-01
 MRCHDU: Convergence failed at  70  side 1    Res =  0.8897E-01
 MRCHDU: Convergence failed at  71  side 1    Res =  0.5185E-01
 MRCHDU: Convergence failed at  72  side 1    Res =  0.2478E-01
 MRCHDU: Convergence failed at  73  side 1    Res =  0.1581E-01
 MRCHDU: Convergence failed at  80  side 1    Res =  0.5526E-04
 MRCHDU: Convergence failed at  76  side 2    Res =  0.1226E-03
 MRCHDU: Convergence failed at  78  side 2    Res =  0.4006E-04
 MRCHDU: Convergence failed at  81  side 2    Res =  0.1858E-04
 MRCHDU: Convergence failed at  94  side 2    Res =  0.8532E-04
 MRCHDU: Convergence failed at  95  side 2    Res =  0.1224E-02
 MRCHDU: Convergence failed at  96  side 2    Res =  0.1313E-02
 Side 1  free  transition at x/c =  0.0688   23
 Side 2  free  transition at x/c =  0.9669   71

 149   rms: 0.8180E+08   max: 0.1596E+10   T at   91  2   RLX: 0.000
       a = 16.000      CL =  0.3643
      Cm = -0.0778     CD =319.42517   =>   CDf =  0.00103    CDp =319.42413

 MRCHDU: Convergence failed at  69  side 1    Res =  0.7002E-01
 MRCHDU: Convergence failed at  70  side 1    Res =  0.8898E-01
 MRCHDU: Convergence failed at  71  side 1    Res =  0.5185E-01
 MRCHDU: Convergence failed at  72  side 1    Res =  0.2478E-01
 MRCHDU: Convergence failed at  73  side 1    Res =  0.1582E-01
 MRCHDU: Convergence failed at  80  side 1    Res =  0.5526E-04
 MRCHDU: Convergence failed at  76  side 2    Res =  0.1227E-03
 MRCHDU: Convergence failed at  78  side 2    Res =  0.4006E-04
 MRCHDU: Convergence failed at  81  side 2    Res =  0.1858E-04
 MRCHDU: Convergence failed at  94  side 2    Res =  0.8530E-04
 MRCHDU: Convergence failed at  95  side 2    Res =  0.1224E-02
 MRCHDU: Convergence failed at  96  side 2    Res =  0.1313E-02
 Side 1  free  transition at x/c =  0.0688   23
 Side 2  free  transition at x/c =  0.9669   71

 150   rms: 0.1056E+08   max: 0.2434E+09   T at   91  2   RLX: 0.000
       a = 16.000      CL =  0.3643
      Cm = -0.0778     CD =319.24680   =>   CDf =  0.00103    CDp =319.24576

 MRCHDU: Convergence failed at  69  side 1    Res =  0.7007E-01
 MRCHDU: Convergence failed at  70  side 1    Res =  0.8898E-01
 MRCHDU: Convergence failed at  71  side 1    Res =  0.5185E-01
 MRCHDU: Convergence failed at  72  side 1    Res =  0.2478E-01
 MRCHDU: Convergence failed at  73  side 1    Res =  0.1582E-01
 MRCHDU: Convergence failed at  80  side 1    Res =  0.5526E-04
 MRCHDU: Convergence failed at  76  side 2    Res =  0.1227E-03
 MRCHDU: Convergence failed at  78  side 2    Res =  0.4006E-04
 MRCHDU: Convergence failed at  81  side 2    Res =  0.1858E-04
 MRCHDU: Convergence failed at  94  side 2    Res =  0.8530E-04
 MRCHDU: Convergence failed at  95  side 2    Res =  0.1224E-02
 MRCHDU: Convergence failed at  96  side 2    Res =  0.1313E-02
 Side 1  free  transition at x/c =  0.0688   23
 Side 2  free  transition at x/c =  0.9669   71

 151   rms: 0.4751E+08   max: 0.1150E+10   T at   91  2   RLX: 0.000
       a = 16.000      CL =  0.3643
      Cm = -0.0778     CD =318.87494   =>   CDf =  0.00103    CDp =318.87390

 MRCHDU: Convergence failed at  69  side 1    Res =  0.7003E-01
 MRCHDU: Convergence failed at  70  side 1    Res =  0.8898E-01
 MRCHDU: Convergence failed at  71  side 1    Res =  0.5186E-01
 MRCHDU: Convergence failed at  72  side 1    Res =  0.2478E-01
 MRCHDU: Convergence failed at  73  side 1    Res =  0.1582E-01
 MRCHDU: Convergence failed at  80  side 1    Res =  0.5526E-04
 MRCHDU: Convergence failed at  76  side 2    Res =  0.1227E-03
 MRCHDU: Convergence failed at  78  side 2    Res =  0.4006E-04
 MRCHDU: Convergence failed at  81  side 2    Res =  0.1858E-04
 MRCHDU: Convergence failed at  94  side 2    Res =  0.8528E-04
 MRCHDU: Convergence failed at  95  side 2    Res =  0.1224E-02
 MRCHDU: Convergence failed at  96  side 2    Res =  0.1313E-02
 Side 1  free  transition at x/c =  0.0688   23
 Side 2  free  transition at x/c =  0.9669   71

 152   rms: 0.9394E+08   max: -.2240E+10   T at   91  2   RLX: 0.000
       a = 16.000      CL =  0.3643
      Cm = -0.0778     CD =318.98026   =>   CDf =  0.00103    CDp =318.97922

 MRCHDU: Convergence failed at  69  side 1    Res =  0.7002E-01
 MRCHDU: Convergence failed at  70  side 1    Res =  0.8899E-01
 MRCHDU: Convergence failed at  71  side 1    Res =  0.5186E-01
 MRCHDU: Convergence failed at  72  side 1    Res =  0.2478E-01
 MRCHDU: Convergence failed at  73  side 1    Res =  0.1582E-01
 MRCHDU: Convergence failed at  80  side 1    Res =  0.5526E-04
 MRCHDU: Convergence failed at  76  side 2    Res =  0.1227E-03
 MRCHDU: Convergence failed at  78  side 2    Res =  0.4006E-04
 MRCHDU: Convergence failed at  81  side 2    Res =  0.1858E-04
 MRCHDU: Convergence failed at  94  side 2    Res =  0.8529E-04
 MRCHDU: Convergence failed at  95  side 2    Res =  0.1224E-02
 MRCHDU: Convergence failed at  96  side 2    Res =  0.1313E-02
 Side 1  free  transition at x/c =  0.0688   23
 Side 2  free  transition at x/c =  0.9669   71

 153   rms: 0.1877E+09   max: 0.4612E+10   T at   91  2   RLX: 0.000
       a = 16.000      CL =  0.3643
      Cm = -0.0778     CD =319.00412   =>   CDf =  0.00103    CDp =319.00308

 MRCHDU: Convergence failed at  69  side 1    Res =  0.7004E-01
 MRCHDU: Convergence failed at  70  side 1    Res =  0.8898E-01
 MRCHDU: Convergence failed at  71  side 1    Res =  0.5186E-01
 MRCHDU: Convergence failed at  72  side 1    Res =  0.2478E-01
 MRCHDU: Convergence failed at  73  side 1    Res =  0.1582E-01
 MRCHDU: Convergence failed at  80  side 1    Res =  0.5526E-04
 MRCHDU: Convergence failed at  76  side 2    Res =  0.1227E-03
 MRCHDU: Convergence failed at  78  side 2    Res =  0.4006E-04
 MRCHDU: Convergence failed at  81  side 2    Res =  0.1858E-04
 MRCHDU: Convergence failed at  94  side 2    Res =  0.8530E-04
 MRCHDU: Convergence failed at  95  side 2    Res =  0.1224E-02
 MRCHDU: Convergence failed at  96  side 2    Res =  0.1313E-02
 Side 1  free  transition at x/c =  0.0688   23
 Side 2  free  transition at x/c =  0.9669   71

 154   rms: 0.1140E+08   max: -.2045E+09   T at   74  1   RLX: 0.000
       a = 16.000      CL =  0.3643
      Cm = -0.0778     CD =318.98340   =>   CDf =  0.00103    CDp =318.98236

 MRCHDU: Convergence failed at  69  side 1    Res =  0.7006E-01
 MRCHDU: Convergence failed at  70  side 1    Res =  0.8898E-01
 MRCHDU: Convergence failed at  71  side 1    Res =  0.5186E-01
 MRCHDU: Convergence failed at  72  side 1    Res =  0.2479E-01
 MRCHDU: Convergence failed at  73  side 1    Res =  0.1583E-01
 MRCHDU: Convergence failed at  80  side 1    Res =  0.5524E-04
 MRCHDU: Convergence failed at  76  side 2    Res =  0.1223E-03
 MRCHDU: Convergence failed at  78  side 2    Res =  0.4006E-04
 MRCHDU: Convergence failed at  81  side 2    Res =  0.1858E-04
 MRCHDU: Convergence failed at  94  side 2    Res =  0.8540E-04
 MRCHDU: Convergence failed at  95  side 2    Res =  0.1224E-02
 MRCHDU: Convergence failed at  96  side 2    Res =  0.1314E-02
 Side 1  free  transition at x/c =  0.0688   23
 Side 2  free  transition at x/c =  0.9669   71

 155   rms: 0.3080E+08   max: -.7230E+09   T at   91  2   RLX: 0.000
       a = 16.000      CL =  0.3643
      Cm = -0.0778     CD =322.24402   =>   CDf =  0.00103    CDp =322.24298
 VISCAL:  Convergence failed

.OPERva   c>  
 Polar accumulation disabled

.OPERv   c>  
 XFOIL   c>  
 XFOIL   c>  