
 ===================================================
  XFOIL Version 6.99
  Copyright (C) 2000   Mark Drela, Harold Youngren

  This software comes with ABSOLUTELY NO WARRANTY,
    subject to the GNU General Public License.

  Caveat computor
 ===================================================

 File  xfoil.def  not found

   QUIT    Exit program

  .OPER    Direct operating point(s)
  .MDES    Complex mapping design routine
  .QDES    Surface speed design routine
  .GDES    Geometry design routine

   SAVE f  Write airfoil to labeled coordinate file
   PSAV f  Write airfoil to plain coordinate file
   ISAV f  Write airfoil to ISES coordinate file
   MSAV f  Write airfoil to MSES coordinate file
   REVE    Reverse written-airfoil node ordering

   LOAD f  Read buffer airfoil from coordinate file
   NACA i  Set NACA 4,5-digit airfoil and buffer airfoil
   INTE    Set buffer airfoil by interpolating two airfoils
   NORM    Buffer airfoil normalization toggle
   XYCM rr Change CM reference location, currently  0.25000 0.00000

   BEND    Display structural properties of current airfoil

   PCOP    Set current-airfoil panel nodes directly from buffer airfoil points
   PANE    Set current-airfoil panel nodes ( 160 ) based on curvature
  .PPAR    Show/change paneling

  .PLOP    Plotting options

   WDEF f  Write  current-settings file
   RDEF f  Reread current-settings file
   NAME s  Specify new airfoil name
   NINC    Increment name version number

   Z       Zoom    | (available in all menus)
   U       Unzoom  | 

 XFOIL   c>  
 Labeled airfoil file.  Name:  GOE 559 AIRFOIL                                 

 Number of input coordinate points:  33
 Counterclockwise ordering
 Max thickness =     0.111501  at x =   0.300
 Max camber    =     0.034195  at x =   0.300

  LE  x,y  =  -0.00001   0.00008  |   Chord =   1.00001
  TE  x,y  =   1.00000   0.00000  |

 Current airfoil nodes set from buffer airfoil nodes (  33 )

 XFOIL   c>  
 XFOIL   c>  
 Sharp trailing edge

 Paneling parameters used...
   Number of panel nodes       160
   Panel bunching parameter    1.000
   TE/LE panel density ratio   0.150
   Refined-area/LE panel density ratio    0.200
   Top    side refined area x/c limits  1.000 1.000
   Bottom side refined area x/c limits  1.000 1.000

 XFOIL   c>  
.OPERi   c>  
 Xtr/c     =  1.0000    top    side
 Xtr/c     =  1.0000    bottom side
 Ncrit     =    9.00   ( 0.070 % turb. level )
 Vacc      =  0.0100

 Klag  =  5.6000     Uxwt  =    1.00
 A     =  6.7000     B     =  0.7500       KCt = 0.01485
 CtiniK=  1.8000     CtiniX=  3.3000

..VPAR   c>  
..VPAR   c>  
.OPERi   c>  
 M  =    0.0000
 Re =    200000

.OPERv   c>  
.OPERv   c>  
.OPERv   c>  
 Polar  1 newly created for accumulation
 Airfoil archived with polar: GOE 559 AIRFOIL                                 

Enter  polar save filename  OR  <return> for no file   s>  
 New polar save file available

Enter  polar dump filename  OR  <return> for no file   s>  
 Polar dump file will NOT be written

 Polar accumulation enabled

.OPERva   c>   Calculating unit vorticity distributions ...
 Calculating wake trajectory ...
 Calculating source influence matrix ...

 Solving BL system ...

 Initializing BL ...
    side            1  ...
 MRCHUE: Inverse mode at  35     Hk =   3.800
 MRCHUE: Inverse mode at  37     Hk =   3.800
 MRCHUE: Inverse mode at  38     Hk =   4.274
 MRCHUE: Inverse mode at  39     Hk =   4.734
 MRCHUE: Inverse mode at  40     Hk =   5.181
 MRCHUE: Inverse mode at  41     Hk =   5.617
 MRCHUE: Inverse mode at  42     Hk =   6.045
 MRCHUE: Inverse mode at  43     Hk =   6.464
 MRCHUE: Inverse mode at  44     Hk =   6.877
 MRCHUE: Inverse mode at  45     Hk =   7.283
 MRCHUE: Inverse mode at  46     Hk =   7.684
 MRCHUE: Inverse mode at  47     Hk =   8.080
 MRCHUE: Inverse mode at  48     Hk =   8.471
 MRCHUE: Inverse mode at  49     Hk =   8.857
 MRCHUE: Inverse mode at  50     Hk =   8.447
 MRCHUE: Inverse mode at  51     Hk =   6.797
 MRCHUE: Inverse mode at  52     Hk =   5.651
 MRCHUE: Inverse mode at  53     Hk =   4.764
 MRCHUE: Inverse mode at  54     Hk =   4.040
 MRCHUE: Inverse mode at  55     Hk =   3.436
 MRCHUE: Inverse mode at  56     Hk =   2.917
    side            2  ...
 MRCHUE: Convergence failed at   8  side 2    Res =  0.2071E+02
 MRCHUE: Inverse mode at   9     Hk =   6.196
 MRCHUE: Inverse mode at  10     Hk =   8.046
 MRCHUE: Inverse mode at  11     Hk =   9.862
 MRCHUE: Inverse mode at  12     Hk =   8.383
 MRCHUE: Inverse mode at  13     Hk =   2.500
 MRCHUE: Convergence failed at  14  side 2    Res =  0.5313E+01
 MRCHUE: Convergence failed at  15  side 2    Res =  0.7150E+01
 MRCHUE: Inverse mode at  16     Hk =   2.500
 MRCHUE: Inverse mode at  17     Hk =   2.500
 MRCHUE: Inverse mode at  18     Hk =   2.500
 MRCHUE: Inverse mode at  19     Hk =   2.500
 MRCHUE: Inverse mode at  20     Hk =   2.500
 MRCHUE: Inverse mode at  21     Hk =   2.500
 MRCHUE: Inverse mode at  85     Hk =   2.500

 MRCHDU: Convergence failed at   8  side 2    Res =  0.5135E+01
 MRCHDU: Convergence failed at   9  side 2    Res =  0.4698E+01
 MRCHDU: Convergence failed at  10  side 2    Res =  0.3405E+01
 MRCHDU: Convergence failed at  11  side 2    Res =  0.6571E+01
 MRCHDU: Convergence failed at  12  side 2    Res =  0.2411E+02
 MRCHDU: Convergence failed at  13  side 2    Res =  0.1126E+02
 MRCHDU: Convergence failed at  14  side 2    Res =  0.9107E+01
 MRCHDU: Convergence failed at  15  side 2    Res =  0.5607E+01
 MRCHDU: Convergence failed at  16  side 2    Res =  0.4215E+01
 MRCHDU: Convergence failed at  17  side 2    Res =  0.3882E+01
 MRCHDU: Convergence failed at  18  side 2    Res =  0.3685E+01
 MRCHDU: Convergence failed at  19  side 2    Res =  0.3557E+01
 MRCHDU: Convergence failed at  20  side 2    Res =  0.3460E+01
 MRCHDU: Convergence failed at  21  side 2    Res =  0.3384E+01
 MRCHDU: Convergence failed at  22  side 2    Res =  0.3348E+01
 MRCHDU: Convergence failed at  23  side 2    Res =  0.3343E+01
 MRCHDU: Convergence failed at  24  side 2    Res =  0.3322E+01
 MRCHDU: Convergence failed at  25  side 2    Res =  0.3314E+01
 MRCHDU: Convergence failed at  26  side 2    Res =  0.3296E+01
 MRCHDU: Convergence failed at  27  side 2    Res =  0.3287E+01
 MRCHDU: Convergence failed at  28  side 2    Res =  0.3281E+01
 MRCHDU: Convergence failed at  29  side 2    Res =  0.3269E+01
 MRCHDU: Convergence failed at  30  side 2    Res =  0.3264E+01
 MRCHDU: Convergence failed at  31  side 2    Res =  0.3256E+01
 MRCHDU: Convergence failed at  32  side 2    Res =  0.3251E+01
 MRCHDU: Convergence failed at  33  side 2    Res =  0.3242E+01
 MRCHDU: Convergence failed at  34  side 2    Res =  0.3237E+01
 MRCHDU: Convergence failed at  35  side 2    Res =  0.3225E+01
 MRCHDU: Convergence failed at  36  side 2    Res =  0.3224E+01
 MRCHDU: Convergence failed at  37  side 2    Res =  0.3208E+01
 MRCHDU: Convergence failed at  38  side 2    Res =  0.3199E+01
 MRCHDU: Convergence failed at  39  side 2    Res =  0.3194E+01
 MRCHDU: Convergence failed at  40  side 2    Res =  0.3184E+01
 MRCHDU: Convergence failed at  41  side 2    Res =  0.3174E+01
 MRCHDU: Convergence failed at  42  side 2    Res =  0.3165E+01
 MRCHDU: Convergence failed at  43  side 2    Res =  0.3151E+01
 MRCHDU: Convergence failed at  44  side 2    Res =  0.3150E+01
 MRCHDU: Convergence failed at  45  side 2    Res =  0.3145E+01
 MRCHDU: Convergence failed at  46  side 2    Res =  0.3130E+01
 MRCHDU: Convergence failed at  47  side 2    Res =  0.3127E+01
 MRCHDU: Convergence failed at  48  side 2    Res =  0.3113E+01
 MRCHDU: Convergence failed at  49  side 2    Res =  0.3117E+01
 MRCHDU: Convergence failed at  50  side 2    Res =  0.3105E+01
 MRCHDU: Convergence failed at  51  side 2    Res =  0.3102E+01
 MRCHDU: Convergence failed at  52  side 2    Res =  0.3099E+01
 MRCHDU: Convergence failed at  53  side 2    Res =  0.3094E+01
 MRCHDU: Convergence failed at  54  side 2    Res =  0.3092E+01
 MRCHDU: Convergence failed at  55  side 2    Res =  0.3078E+01
 MRCHDU: Convergence failed at  56  side 2    Res =  0.3082E+01
 MRCHDU: Convergence failed at  57  side 2    Res =  0.3072E+01
 MRCHDU: Convergence failed at  58  side 2    Res =  0.3061E+01
 MRCHDU: Convergence failed at  59  side 2    Res =  0.3062E+01
 MRCHDU: Convergence failed at  60  side 2    Res =  0.3060E+01
 MRCHDU: Convergence failed at  61  side 2    Res =  0.3047E+01
 MRCHDU: Convergence failed at  62  side 2    Res =  0.3050E+01
 MRCHDU: Convergence failed at  63  side 2    Res =  0.3037E+01
 MRCHDU: Convergence failed at  64  side 2    Res =  0.3048E+01
 MRCHDU: Convergence failed at  65  side 2    Res =  0.3023E+01
 MRCHDU: Convergence failed at  66  side 2    Res =  0.3037E+01
 MRCHDU: Convergence failed at  67  side 2    Res =  0.3021E+01
 MRCHDU: Convergence failed at  68  side 2    Res =  0.3025E+01
 MRCHDU: Convergence failed at  69  side 2    Res =  0.3018E+01
 MRCHDU: Convergence failed at  70  side 2    Res =  0.3017E+01
 MRCHDU: Convergence failed at  71  side 2    Res =  0.3000E+01
 MRCHDU: Convergence failed at  72  side 2    Res =  0.3005E+01
 MRCHDU: Convergence failed at  73  side 2    Res =  0.2994E+01
 MRCHDU: Convergence failed at  74  side 2    Res =  0.2987E+01
 MRCHDU: Convergence failed at  75  side 2    Res =  0.2984E+01
 MRCHDU: Convergence failed at  76  side 2    Res =  0.2966E+01
 MRCHDU: Convergence failed at  77  side 2    Res =  0.2978E+01
 MRCHDU: Convergence failed at  78  side 2    Res =  0.2961E+01
 MRCHDU: Convergence failed at  79  side 2    Res =  0.2957E+01
 MRCHDU: Convergence failed at  80  side 2    Res =  0.2926E+01
 MRCHDU: Convergence failed at  81  side 2    Res =  0.2942E+01
 MRCHDU: Convergence failed at  82  side 2    Res =  0.2893E+01
 MRCHDU: Convergence failed at  83  side 2    Res =  0.2888E+01
 MRCHDU: Convergence failed at  84  side 2    Res =  0.2875E+01
 MRCHDU: Convergence failed at  85  side 2    Res =  0.3897E+03
 Side 1  free  transition at x/c =  0.6502   50
 Side 2 forced transition at x/c =  1.0000   85

   1   rms: 0.7079E+01   max: -.5773E+01   U at   85  2   RLX: 0.065
       a = -4.000      CL =-37.4757
      Cm =  9.3608     CD =  0.00787   =>   CDf =  0.27703    CDp = -0.26916

 Side 1  free  transition at x/c =  0.6547   51
 Side 2 forced transition at x/c =  1.0000   85

   2   rms: 0.6627E+01   max: -.5351E+01   U at   85  2   RLX: 0.013
       a = -4.000      CL =-36.6108
      Cm =  9.1391     CD =  0.00806   =>   CDf =  0.04800    CDp = -0.03994

 Side 1  free  transition at x/c =  0.6552   51
 Side 2 forced transition at x/c =  1.0000   85

   3   rms: 0.6539E+01   max: -.5280E+01   U at   85  2   RLX: 0.014
       a = -4.000      CL =-35.7662
      Cm =  8.9229     CD =  0.00804   =>   CDf =  0.04715    CDp = -0.03911

 Side 1  free  transition at x/c =  0.6557   51
 Side 2 forced transition at x/c =  1.0000   85

   4   rms: 0.6450E+01   max: -.5209E+01   U at   85  2   RLX: 0.014
       a = -4.000      CL =-34.9230
      Cm =  8.7070     CD =  0.00801   =>   CDf =  0.04630    CDp = -0.03829

 Side 1  free  transition at x/c =  0.6563   51
 Side 2 forced transition at x/c =  1.0000   85

   5   rms: 0.6361E+01   max: -.5137E+01   U at   85  2   RLX: 0.014
       a = -4.000      CL =-34.0814
      Cm =  8.4916     CD =  0.00799   =>   CDf =  0.04545    CDp = -0.03745

 Side 1  free  transition at x/c =  0.6569   51
 Side 2 forced transition at x/c =  1.0000   85

   6   rms: 0.6270E+01   max: -.5064E+01   U at   85  2   RLX: 0.015
       a = -4.000      CL =-33.2413
      Cm =  8.2767     CD =  0.00797   =>   CDf =  0.04459    CDp = -0.03662

 Side 1  free  transition at x/c =  0.6576   51
 Side 2 forced transition at x/c =  1.0000   85

   7   rms: 0.6179E+01   max: -.4991E+01   U at   85  2   RLX: 0.015
       a = -4.000      CL =-32.4029
      Cm =  8.0623     CD =  0.00795   =>   CDf =  0.04373    CDp = -0.03578

 Side 1  free  transition at x/c =  0.6584   51
 Side 2 forced transition at x/c =  1.0000   85

   8   rms: 0.6087E+01   max: -.4917E+01   U at   85  2   RLX: 0.015
       a = -4.000      CL =-31.5661
      Cm =  7.8483     CD =  0.00793   =>   CDf =  0.04287    CDp = -0.03494

 Side 1  free  transition at x/c =  0.6592   51
 Side 2 forced transition at x/c =  1.0000   85

   9   rms: 0.5994E+01   max: -.4842E+01   U at   85  2   RLX: 0.016
       a = -4.000      CL =-30.7311
      Cm =  7.6349     CD =  0.00791   =>   CDf =  0.04200    CDp = -0.03409

 Side 1  free  transition at x/c =  0.6601   51
 Side 2 forced transition at x/c =  1.0000   85

  10   rms: 0.5901E+01   max: -.4767E+01   U at   85  2   RLX: 0.016
       a = -4.000      CL =-29.8978
      Cm =  7.4219     CD =  0.00789   =>   CDf =  0.04113    CDp = -0.03324

 Side 1  free  transition at x/c =  0.6611   51
 Side 2 forced transition at x/c =  1.0000   85

  11   rms: 0.5806E+01   max: -.4692E+01   U at   85  2   RLX: 0.017
       a = -4.000      CL =-29.0664
      Cm =  7.2095     CD =  0.00787   =>   CDf =  0.04026    CDp = -0.03238

 Side 1  free  transition at x/c =  0.6622   51
 Side 2 forced transition at x/c =  1.0000   85

  12   rms: 0.5711E+01   max: -.4616E+01   U at   85  2   RLX: 0.017
       a = -4.000      CL =-28.2368
      Cm =  6.9977     CD =  0.00786   =>   CDf =  0.03938    CDp = -0.03152

 Side 1  free  transition at x/c =  0.6633   51
 Side 2 forced transition at x/c =  1.0000   85

  13   rms: 0.5615E+01   max: -.4540E+01   U at   85  2   RLX: 0.018
       a = -4.000      CL =-27.4091
      Cm =  6.7864     CD =  0.00785   =>   CDf =  0.03850    CDp = -0.03065

 Side 1  free  transition at x/c =  0.6646   51
 Side 2 forced transition at x/c =  1.0000   85

  14   rms: 0.5520E+01   max: -.4464E+01   U at   85  2   RLX: 0.018
       a = -4.000      CL =-26.5834
      Cm =  6.5757     CD =  0.00784   =>   CDf =  0.03762    CDp = -0.02978

 Side 1  free  transition at x/c =  0.6660   51
 Side 2 forced transition at x/c =  1.0000   85

  15   rms: 0.5424E+01   max: -.4389E+01   U at   85  2   RLX: 0.019
       a = -4.000      CL =-25.7596
      Cm =  6.3655     CD =  0.00785   =>   CDf =  0.03674    CDp = -0.02889

 Side 1  free  transition at x/c =  0.6674   51
 Side 2 forced transition at x/c =  1.0000   85

  16   rms: 0.5330E+01   max: -.4317E+01   U at   85  2   RLX: 0.019
       a = -4.000      CL =-24.9378
      Cm =  6.1559     CD =  0.00786   =>   CDf =  0.03585    CDp = -0.02799

 Side 1  free  transition at x/c =  0.6694   52
 Side 2 forced transition at x/c =  1.0000   85

  17   rms: 0.5200E+01   max: -.4186E+01   U at   85  2   RLX: 0.020
       a = -4.000      CL =-24.1188
      Cm =  5.9470     CD =  0.00732   =>   CDf =  0.03495    CDp = -0.02762

 Side 1  free  transition at x/c =  0.6702   52
 Side 2 forced transition at x/c =  1.0000   85

  18   rms: 0.5096E+01   max: -.4103E+01   U at   85  2   RLX: 0.021
       a = -4.000      CL =-23.3032
      Cm =  5.7392     CD =  0.00730   =>   CDf =  0.03402    CDp = -0.02672

 Side 1  free  transition at x/c =  0.6711   52
 Side 2 forced transition at x/c =  1.0000   85

  19   rms: 0.4992E+01   max: -.4019E+01   U at   85  2   RLX: 0.022
       a = -4.000      CL =-22.4901
      Cm =  5.5321     CD =  0.00728   =>   CDf =  0.03309    CDp = -0.02581

 Side 1  free  transition at x/c =  0.6721   52
 Side 2 forced transition at x/c =  1.0000   85

  20   rms: 0.4886E+01   max: -.3934E+01   U at   85  2   RLX: 0.022
       a = -4.000      CL =-21.6796
      Cm =  5.3258     CD =  0.00726   =>   CDf =  0.03215    CDp = -0.02489

 Side 1  free  transition at x/c =  0.6733   52
 Side 2 forced transition at x/c =  1.0000   85

  21   rms: 0.4780E+01   max: -.3849E+01   U at   85  2   RLX: 0.023
       a = -4.000      CL =-20.8717
      Cm =  5.1202     CD =  0.00724   =>   CDf =  0.03120    CDp = -0.02396

 Side 1  free  transition at x/c =  0.6745   52
 Side 2 forced transition at x/c =  1.0000   85

  22   rms: 0.4677E+01   max: -.3762E+01   U at   85  2   RLX: 0.024
       a = -4.000      CL =-20.0667
      Cm =  4.9155     CD =  0.00723   =>   CDf =  0.03024    CDp = -0.02301

 Side 1  free  transition at x/c =  0.6759   52
 Side 2 forced transition at x/c =  1.0000   85

  23   rms: 0.4658E+01   max: -.3674E+01   U at   85  2   RLX: 0.025
       a = -4.000      CL =-19.2647
      Cm =  4.7115     CD =  0.00721   =>   CDf =  0.02926    CDp = -0.02205

 Side 1  free  transition at x/c =  0.6774   52
 Side 2 forced transition at x/c =  1.0000   85

  24   rms: 0.4635E+01   max: -.3585E+01   U at   85  2   RLX: 0.026
       a = -4.000      CL =-18.4657
      Cm =  4.5084     CD =  0.00721   =>   CDf =  0.02827    CDp = -0.02106

 Side 1  free  transition at x/c =  0.6791   52
 Side 2 forced transition at x/c =  1.0000   85

  25   rms: 0.4913E+01   max: -.3496E+01   U at   85  2   RLX: 0.027
       a = -4.000      CL =-17.6699
      Cm =  4.3061     CD =  0.00721   =>   CDf =  0.02725    CDp = -0.02004

 Side 1  free  transition at x/c =  0.6809   52
 Side 2 forced transition at x/c =  1.0000   85

  26   rms: 0.4699E+01   max: -.3407E+01   U at   85  2   RLX: 0.028
       a = -4.000      CL =-16.8774
      Cm =  4.1045     CD =  0.00722   =>   CDf =  0.02619    CDp = -0.01897

 Side 1  free  transition at x/c =  0.6831   53
 Side 2  free  transition at x/c =  0.9891   84

  27   rms: 0.4589E+01   max: -.2979E+01   U at   85  2   RLX: 0.028
       a = -4.000      CL =-16.0655
      Cm =  3.8976     CD =  0.00703   =>   CDf =  0.02506    CDp = -0.01804

 Side 1  free  transition at x/c =  0.6836   53
 Side 2  free  transition at x/c =  0.9980   85

  28   rms: 0.4487E+01   max: 0.1272E+02   C at   85  2   RLX: 0.030
       a = -4.000      CL =-15.2568
      Cm =  3.6928     CD =  0.00709   =>   CDf =  0.02427    CDp = -0.01718

 Side 1  free  transition at x/c =  0.6841   53
 Side 2 forced transition at x/c =  1.0000   85

  29   rms: 0.4501E+01   max: -.3032E+01   U at   85  2   RLX: 0.033
       a = -4.000      CL =-14.4752
      Cm =  3.4947     CD =  0.00708   =>   CDf =  0.02350    CDp = -0.01642

 Side 1  free  transition at x/c =  0.6855   53
 Side 2  free  transition at x/c =  0.5174   49

  30   rms: 0.1923E+02   max: 0.3844E+03   C at   49  2   RLX: 0.004
       a = -4.000      CL =-14.3524
      Cm =  3.4542     CD =  0.00805   =>   CDf =  0.04461    CDp = -0.03656

 Side 1  free  transition at x/c =  0.6856   53
 Side 2  free  transition at x/c =  0.4634   46

  31   rms: 0.1995E+02   max: 0.4091E+03   C at   46  2   RLX: 0.004
       a = -4.000      CL =-14.2610
      Cm =  3.4327     CD =  0.00816   =>   CDf =  0.04696    CDp = -0.03880

 Side 1  free  transition at x/c =  0.6856   53
 Side 2  free  transition at x/c =  0.4168   42

  32   rms: 0.2481E+02   max: 0.5168E+03   C at   42  2   RLX: 0.003
       a = -4.000      CL =-14.1906
      Cm =  3.4162     CD =  0.00821   =>   CDf =  0.04892    CDp = -0.04070

 Side 1  free  transition at x/c =  0.6857   53
 Side 2  free  transition at x/c =  0.3739   39

  33   rms: 0.2436E+02   max: 0.5116E+03   C at   39  2   RLX: 0.003
       a = -4.000      CL =-14.1198
      Cm =  3.3997     CD =  0.00829   =>   CDf =  0.05070    CDp = -0.04242

 Side 1  free  transition at x/c =  0.6857   53
 Side 2  free  transition at x/c =  0.3264   36

  34   rms: 0.2188E+02   max: 0.4746E+03   C at   36  2   RLX: 0.003
       a = -4.000      CL =-14.0438
      Cm =  3.3823     CD =  0.00837   =>   CDf =  0.05263    CDp = -0.04426

 Side 1  free  transition at x/c =  0.6858   53
 Side 2  free  transition at x/c =  0.2237   29

  35   rms: 0.3662E+02   max: 0.8391E+03   C at   29  2   RLX: 0.002
       a = -4.000      CL =-13.9952
      Cm =  3.3728     CD =  0.00854   =>   CDf =  0.05689    CDp = -0.04835

 Side 1  free  transition at x/c =  0.6858   53
 Side 2  free  transition at x/c =  0.0636   17

  36   rms: 0.7839E+02   max: 0.1988E+04   C at   17  2   RLX: 0.001
       a = -4.000      CL =-13.9681
      Cm =  3.3698     CD =  0.00876   =>   CDf =  0.06331    CDp = -0.05455

 Side 1  free  transition at x/c =  0.6858   53
 Side 2  free  transition at x/c =  0.0512   16

  37   rms: 0.8973E+02   max: 0.2276E+04   C at   16  2   RLX: 0.001
       a = -4.000      CL =-13.9533
      Cm =  3.3664     CD =  0.00878   =>   CDf =  0.06373    CDp = -0.05495

 Side 1  free  transition at x/c =  0.6858   53
 Side 2  free  transition at x/c =  0.0405   16

  38   rms: 0.2941E+02   max: 0.6363E+03   C at   16  2   RLX: 0.002
       a = -4.000      CL =-13.9016
      Cm =  3.3540     CD =  0.00883   =>   CDf =  0.06409    CDp = -0.05525

 Side 1  free  transition at x/c =  0.6858   53
 Side 2  free  transition at x/c =  0.0247   14

  39   rms: 0.3325E+02   max: 0.8321E+03   C at   14  2   RLX: 0.002
       a = -4.000      CL =-13.8637
      Cm =  3.3441     CD =  0.00883   =>   CDf =  0.06445    CDp = -0.05563

 Side 1  free  transition at x/c =  0.6859   53
 Side 2  free  transition at x/c =  0.0209   13

  40   rms: 0.1899E+02   max: 0.4734E+03   C at   13  2   RLX: 0.003
       a = -4.000      CL =-13.7973
      Cm =  3.3267     CD =  0.00882   =>   CDf =  0.06446    CDp = -0.05564

 Side 1  free  transition at x/c =  0.6860   53
 Side 2  free  transition at x/c =  0.0158   13

  41   rms: 0.7715E+01   max: 0.1577E+03   C at   13  2   RLX: 0.010
       a = -4.000      CL =-13.5959
      Cm =  3.2754     CD =  0.00884   =>   CDf =  0.06440    CDp = -0.05556

 Side 1  free  transition at x/c =  0.6864   53
 Side 2  free  transition at x/c =  0.0114   12

  42   rms: 0.4020E+01   max: 0.3138E+02   C at   12  2   RLX: 0.038
       a = -4.000      CL =-12.8198
      Cm =  3.0784     CD =  0.00883   =>   CDf =  0.06363    CDp = -0.05480

 Side 1  free  transition at x/c =  0.6882   53
 Side 2  free  transition at x/c =  0.0084   12

  43   rms: 0.3526E+01   max: -.2745E+01   U at   85  2   RLX: 0.039
       a = -4.000      CL =-12.0527
      Cm =  2.8852     CD =  0.00885   =>   CDf =  0.06033    CDp = -0.05148

 Side 1  free  transition at x/c =  0.6903   53
 Side 2  free  transition at x/c =  0.0078   12

  44   rms: 0.3371E+01   max: -.2639E+01   U at   85  2   RLX: 0.042
       a = -4.000      CL =-11.2940
      Cm =  2.6932     CD =  0.00889   =>   CDf =  0.05687    CDp = -0.04799

 Side 1  free  transition at x/c =  0.6927   53
 Side 2  free  transition at x/c =  0.0076   12

  45   rms: 0.3222E+01   max: -.2532E+01   U at   85  2   RLX: 0.045
       a = -4.000      CL =-10.5412
      Cm =  2.5030     CD =  0.00894   =>   CDf =  0.05351    CDp = -0.04457

 Side 1  free  transition at x/c =  0.6954   53
 Side 2  free  transition at x/c =  0.0077   12

  46   rms: 0.3077E+01   max: -.2425E+01   U at   85  2   RLX: 0.048
       a = -4.000      CL = -9.7946
      Cm =  2.3146     CD =  0.00902   =>   CDf =  0.05028    CDp = -0.04126

 Side 1  free  transition at x/c =  0.6987   54
 Side 2  free  transition at x/c =  0.0079   12

  47   rms: 0.2925E+01   max: -.2278E+01   U at   85  2   RLX: 0.052
       a = -4.000      CL = -9.0556
      Cm =  2.1280     CD =  0.00882   =>   CDf =  0.04712    CDp = -0.03829

 Side 1  free  transition at x/c =  0.7010   54
 Side 2  free  transition at x/c =  0.0083   12

  48   rms: 0.2801E+01   max: -.2163E+01   U at   85  2   RLX: 0.056
       a = -4.000      CL = -8.3243
      Cm =  1.9436     CD =  0.00888   =>   CDf =  0.04400    CDp = -0.03512

 Side 1  free  transition at x/c =  0.7036   54
 Side 2  free  transition at x/c =  0.0088   12

  49   rms: 0.2698E+01   max: -.2043E+01   U at   85  2   RLX: 0.061
       a = -4.000      CL = -7.6001
      Cm =  1.7613     CD =  0.00899   =>   CDf =  0.04088    CDp = -0.03188

 Side 1  free  transition at x/c =  0.7067   54
 Side 2  free  transition at x/c =  0.0097   12

  50   rms: 0.2569E+01   max: -.1920E+01   U at   85  2   RLX: 0.067
       a = -4.000      CL = -6.8840
      Cm =  1.5817     CD =  0.00919   =>   CDf =  0.03777    CDp = -0.02858

 Side 1  free  transition at x/c =  0.7101   54
 Side 2  free  transition at x/c =  0.0108   12

  51   rms: 0.2420E+01   max: -.1793E+01   U at   85  2   RLX: 0.074
       a = -4.000      CL = -6.1772
      Cm =  1.4052     CD =  0.00946   =>   CDf =  0.03477    CDp = -0.02531

 Side 1  free  transition at x/c =  0.7142   55
 Side 2  free  transition at x/c =  0.0121   12

  52   rms: 0.2339E+01   max: -.1633E+01   U at   85  2   RLX: 0.082
       a = -4.000      CL = -5.4805
      Cm =  1.2322     CD =  0.00972   =>   CDf =  0.03189    CDp = -0.02218

 Side 1  free  transition at x/c =  0.7174   55
 Side 2  free  transition at x/c =  0.0150   13

  53   rms: 0.1962E+01   max: -.1514E+01   U at   85  2   RLX: 0.094
       a = -4.000      CL = -4.7955
      Cm =  1.0622     CD =  0.00937   =>   CDf =  0.02931    CDp = -0.01994

 Side 1  free  transition at x/c =  0.7220   55
 Side 2  free  transition at x/c =  0.0193   13

  54   rms: 0.1983E+01   max: -.6283E+01   T at   13  2   RLX: 0.080
       a = -4.000      CL = -4.2968
      Cm =  0.9359     CD =  0.00981   =>   CDf =  0.02638    CDp = -0.01657

 Side 1  free  transition at x/c =  0.7252   55
 Side 2  free  transition at x/c =  0.0223   14

  55   rms: 0.1762E+01   max: -.1300E+01   U at   85  2   RLX: 0.101
       a = -4.000      CL = -3.7389
      Cm =  0.7983     CD =  0.00965   =>   CDf =  0.02449    CDp = -0.01484

 MRCHDU: Convergence failed at  15  side 2    Res =  0.4958E+01
 MRCHDU: Convergence failed at  16  side 2    Res =  0.1107E+02
 MRCHDU: Convergence failed at  17  side 2    Res =  0.4253E+01
 MRCHDU: Convergence failed at  18  side 2    Res =  0.7837E+01
 MRCHDU: Convergence failed at  19  side 2    Res =  0.1078E+02
 MRCHDU: Convergence failed at  20  side 2    Res =  0.1050E+02
 MRCHDU: Convergence failed at  21  side 2    Res =  0.7337E+01
 MRCHDU: Convergence failed at  22  side 2    Res =  0.5688E+01
 MRCHDU: Convergence failed at  23  side 2    Res =  0.5268E+01
 MRCHDU: Convergence failed at  24  side 2    Res =  0.4664E+01
 MRCHDU: Convergence failed at  25  side 2    Res =  0.8856E+01
 MRCHDU: Convergence failed at  26  side 2    Res =  0.9654E+01
 MRCHDU: Convergence failed at  27  side 2    Res =  0.1049E+02
 MRCHDU: Convergence failed at  28  side 2    Res =  0.1170E+02
 MRCHDU: Convergence failed at  29  side 2    Res =  0.1498E+02
 MRCHDU: Convergence failed at  30  side 2    Res =  0.2579E+02
 MRCHDU: Convergence failed at  31  side 2    Res =  0.2934E+02
 MRCHDU: Convergence failed at  32  side 2    Res =  0.3582E+02
 MRCHDU: Convergence failed at  33  side 2    Res =  0.4854E+02
 MRCHDU: Convergence failed at  34  side 2    Res =  0.7905E+02
 MRCHDU: Convergence failed at  35  side 2    Res =  0.2108E+03
 MRCHDU: Convergence failed at  36  side 2    Res =  0.2494E+02
 MRCHDU: Convergence failed at  37  side 2    Res =  0.2010E+02
 MRCHDU: Convergence failed at  38  side 2    Res =  0.1361E+02
 MRCHDU: Convergence failed at  39  side 2    Res =  0.1034E+02
 MRCHDU: Convergence failed at  40  side 2    Res =  0.1897E+03
 MRCHDU: Convergence failed at  41  side 2    Res =  0.1074E+03
 MRCHDU: Convergence failed at  42  side 2    Res =  0.8312E+02
 MRCHDU: Convergence failed at  43  side 2    Res =  0.5486E+02
 MRCHDU: Convergence failed at  44  side 2    Res =  0.5137E+02
 MRCHDU: Convergence failed at  45  side 2    Res =  0.5608E+02
 MRCHDU: Convergence failed at  46  side 2    Res =  0.3894E+02
 MRCHDU: Convergence failed at  47  side 2    Res =  0.3607E+02
 MRCHDU: Convergence failed at  48  side 2    Res =  0.3901E+02
 MRCHDU: Convergence failed at  49  side 2    Res =  0.3793E+02
 MRCHDU: Convergence failed at  50  side 2    Res =  0.3400E+02
 MRCHDU: Convergence failed at  51  side 2    Res =  0.3268E+02
 MRCHDU: Convergence failed at  52  side 2    Res =  0.3390E+02
 MRCHDU: Convergence failed at  53  side 2    Res =  0.3582E+02
 MRCHDU: Convergence failed at  54  side 2    Res =  0.3616E+02
 MRCHDU: Convergence failed at  55  side 2    Res =  0.3568E+02
 MRCHDU: Convergence failed at  56  side 2    Res =  0.3469E+02
 MRCHDU: Convergence failed at  57  side 2    Res =  0.3361E+02
 MRCHDU: Convergence failed at  58  side 2    Res =  0.3241E+02
 MRCHDU: Convergence failed at  59  side 2    Res =  0.3198E+02
 MRCHDU: Convergence failed at  60  side 2    Res =  0.3090E+02
 MRCHDU: Convergence failed at  61  side 2    Res =  0.3014E+02
 MRCHDU: Convergence failed at  62  side 2    Res =  0.3023E+02
 MRCHDU: Convergence failed at  63  side 2    Res =  0.2983E+02
 MRCHDU: Convergence failed at  64  side 2    Res =  0.2944E+02
 MRCHDU: Convergence failed at  65  side 2    Res =  0.2906E+02
 MRCHDU: Convergence failed at  66  side 2    Res =  0.2925E+02
 MRCHDU: Convergence failed at  67  side 2    Res =  0.2861E+02
 MRCHDU: Convergence failed at  68  side 2    Res =  0.2847E+02
 MRCHDU: Convergence failed at  69  side 2    Res =  0.2827E+02
 MRCHDU: Convergence failed at  70  side 2    Res =  0.2785E+02
 MRCHDU: Convergence failed at  71  side 2    Res =  0.2808E+02
 MRCHDU: Convergence failed at  72  side 2    Res =  0.2752E+02
 MRCHDU: Convergence failed at  73  side 2    Res =  0.2701E+02
 MRCHDU: Convergence failed at  74  side 2    Res =  0.2606E+02
 MRCHDU: Convergence failed at  75  side 2    Res =  0.2642E+02
 MRCHDU: Convergence failed at  76  side 2    Res =  0.2585E+02
 MRCHDU: Convergence failed at  77  side 2    Res =  0.2586E+02
 MRCHDU: Convergence failed at  78  side 2    Res =  0.2924E+02
 MRCHDU: Convergence failed at  79  side 2    Res =  0.2754E+02
 MRCHDU: Convergence failed at  80  side 2    Res =  0.2516E+02
 MRCHDU: Convergence failed at  81  side 2    Res =  0.2185E+02
 MRCHDU: Convergence failed at  82  side 2    Res =  0.2013E+02
 MRCHDU: Convergence failed at  83  side 2    Res =  0.1853E+02
 MRCHDU: Convergence failed at  84  side 2    Res =  0.1716E+02
 MRCHDU: Convergence failed at  85  side 2    Res =  0.1518E+02
 Side 1  free  transition at x/c =  0.7341   56
 Side 2  free  transition at x/c =  0.0275   14

  56   rms: 0.2259E+01   max: -.1814E+01   U at   85  2   RLX: 0.115
       a = -4.000      CL = -5.4814
      Cm =  1.3333     CD =  0.00665   =>   CDf =  0.00218    CDp =  0.00447

 MRCHDU: Convergence failed at  19  side 2    Res =  0.7205E-01
 MRCHDU: Convergence failed at  20  side 2    Res =  0.1241E+01
 MRCHDU: Convergence failed at  21  side 2    Res =  0.3762E+00
 MRCHDU: Convergence failed at  22  side 2    Res =  0.1621E+01
 MRCHDU: Convergence failed at  29  side 2    Res =  0.1711E+00
 MRCHDU: Convergence failed at  30  side 2    Res =  0.1696E+00
 MRCHDU: Convergence failed at  31  side 2    Res =  0.1681E+00
 MRCHDU: Convergence failed at  32  side 2    Res =  0.1665E+00
 MRCHDU: Convergence failed at  33  side 2    Res =  0.1648E+00
 MRCHDU: Convergence failed at  34  side 2    Res =  0.1629E+00
 MRCHDU: Convergence failed at  35  side 2    Res =  0.1609E+00
 MRCHDU: Convergence failed at  36  side 2    Res =  0.1588E+00
 MRCHDU: Convergence failed at  37  side 2    Res =  0.1566E+00
 MRCHDU: Convergence failed at  38  side 2    Res =  0.1543E+00
 MRCHDU: Convergence failed at  39  side 2    Res =  0.1521E+00
 MRCHDU: Convergence failed at  40  side 2    Res =  0.1497E+00
 MRCHDU: Convergence failed at  41  side 2    Res =  0.1471E+00
 MRCHDU: Convergence failed at  42  side 2    Res =  0.1446E+00
 MRCHDU: Convergence failed at  43  side 2    Res =  0.1420E+00
 MRCHDU: Convergence failed at  44  side 2    Res =  0.1393E+00
 MRCHDU: Convergence failed at  45  side 2    Res =  0.1367E+00
 MRCHDU: Convergence failed at  46  side 2    Res =  0.1339E+00
 MRCHDU: Convergence failed at  47  side 2    Res =  0.1312E+00
 MRCHDU: Convergence failed at  48  side 2    Res =  0.1286E+00
 MRCHDU: Convergence failed at  49  side 2    Res =  0.1260E+00
 MRCHDU: Convergence failed at  50  side 2    Res =  0.1233E+00
 MRCHDU: Convergence failed at  51  side 2    Res =  0.1207E+00
 MRCHDU: Convergence failed at  52  side 2    Res =  0.1181E+00
 MRCHDU: Convergence failed at  53  side 2    Res =  0.1153E+00
 MRCHDU: Convergence failed at  54  side 2    Res =  0.1125E+00
 MRCHDU: Convergence failed at  55  side 2    Res =  0.1096E+00
 MRCHDU: Convergence failed at  56  side 2    Res =  0.1065E+00
 MRCHDU: Convergence failed at  57  side 2    Res =  0.1034E+00
 MRCHDU: Convergence failed at  58  side 2    Res =  0.1001E+00
 MRCHDU: Convergence failed at  59  side 2    Res =  0.9667E-01
 MRCHDU: Convergence failed at  60  side 2    Res =  0.6115E-03
 Side 1  free  transition at x/c =  0.7380   56
 Side 2  free  transition at x/c =  0.0313   14

  57   rms: 0.3507E+01   max: 0.2451E+02   T at   15  2   RLX: 0.046
       a = -4.000      CL = -4.0438
      Cm =  0.9698     CD =  0.02171   =>   CDf =  0.00676    CDp =  0.01495

 MRCHDU: Convergence failed at  15  side 2    Res =  0.7884E+01
 MRCHDU: Convergence failed at  16  side 2    Res =  0.2231E+02
 MRCHDU: Convergence failed at  17  side 2    Res =  0.1747E+02
 MRCHDU: Convergence failed at  18  side 2    Res =  0.1945E+02
 Side 1  free  transition at x/c =  0.7414   57
 Side 2  free  transition at x/c =  0.0348   15

  58   rms: 0.2171E+01   max: -.2343E+02   T at   15  2   RLX: 0.021
       a = -4.000      CL = -3.8504
      Cm =  0.8059     CD =  0.01529   =>   CDf =  0.01284    CDp =  0.00246

 MRCHDU: Convergence failed at  19  side 2    Res =  0.4149E+00
 Side 1  free  transition at x/c =  0.7430   57
 Side 2  free  transition at x/c =  0.0397   15

  59   rms: 0.3528E+01   max: -.7599E+01   D at   33  2   RLX: 0.043
       a = -4.000      CL = -3.7703
      Cm =  0.8722     CD =  0.02168   =>   CDf =  0.00660    CDp =  0.01508

 MRCHDU: Convergence failed at  23  side 2    Res =  0.2037E+00
 MRCHDU: Convergence failed at  24  side 2    Res =  0.3775E+00
 MRCHDU: Convergence failed at  25  side 2    Res =  0.1685E+01
 Side 1  free  transition at x/c =  0.7451   57
 Side 2  free  transition at x/c =  0.0399   15

  60   rms: 0.2560E+01   max: 0.2743E+01   D at   96  2   RLX: 0.056
       a = -4.000      CL = -3.6412
      Cm =  0.7766     CD =  0.02825   =>   CDf =  0.01011    CDp =  0.01813

 MRCHDU: Convergence failed at  26  side 2    Res =  0.7497E-01
 MRCHDU: Convergence failed at  27  side 2    Res =  0.1228E+02
 Side 1  free  transition at x/c =  0.7466   57
 Side 2  free  transition at x/c =  0.0399   15

  61   rms: 0.1919E+01   max: 0.2037E+01   D at   98  2   RLX: 0.137
       a = -4.000      CL = -3.0190
      Cm =  0.6160     CD =  0.03035   =>   CDf =  0.01210    CDp =  0.01826

 MRCHDU: Convergence failed at  25  side 2    Res =  0.2219E+01
 MRCHDU: Convergence failed at  26  side 2    Res =  0.1285E+02
 MRCHDU: Convergence failed at  27  side 2    Res =  0.3478E+01
 MRCHDU: Convergence failed at  28  side 2    Res =  0.1161E+01
 MRCHDU: Convergence failed at  29  side 2    Res =  0.4157E+00
 MRCHDU: Convergence failed at  30  side 2    Res =  0.3250E+00
 MRCHDU: Convergence failed at  31  side 2    Res =  0.2485E+00
 MRCHDU: Convergence failed at  32  side 2    Res =  0.2707E+00
 Side 1  free  transition at x/c =  0.7502   58
 Side 2  free  transition at x/c =  0.0398   14

  62   rms: 0.1674E+01   max: 0.1104E+01   D at   87  2   RLX: 0.074
       a = -4.000      CL = -3.3025
      Cm =  0.5357     CD =  0.02367   =>   CDf =  0.01700    CDp =  0.00666

 MRCHDU: Convergence failed at  33  side 2    Res =  0.7274E+00
 MRCHDU: Convergence failed at  34  side 2    Res =  0.2208E+01
 MRCHDU: Convergence failed at  35  side 2    Res =  0.4281E+00
 MRCHDU: Convergence failed at  36  side 2    Res =  0.5657E+00
 MRCHDU: Convergence failed at  37  side 2    Res =  0.1804E+01
 MRCHDU: Convergence failed at  38  side 2    Res =  0.9714E+01
 MRCHDU: Convergence failed at  39  side 2    Res =  0.5350E+00
 MRCHDU: Convergence failed at  40  side 2    Res =  0.5603E+00
 MRCHDU: Convergence failed at  41  side 2    Res =  0.3752E+00
 MRCHDU: Convergence failed at  42  side 2    Res =  0.8286E+00
 MRCHDU: Convergence failed at  43  side 2    Res =  0.3757E+00
 MRCHDU: Convergence failed at  44  side 2    Res =  0.1987E+00
 MRCHDU: Convergence failed at  46  side 2    Res =  0.1268E+01
 MRCHDU: Convergence failed at  47  side 2    Res =  0.1685E+01
 MRCHDU: Convergence failed at  48  side 2    Res =  0.1660E+01
 MRCHDU: Convergence failed at  49  side 2    Res =  0.1668E+01
 MRCHDU: Convergence failed at  50  side 2    Res =  0.1701E+01
 MRCHDU: Convergence failed at  51  side 2    Res =  0.1753E+01
 MRCHDU: Convergence failed at  52  side 2    Res =  0.1831E+01
 MRCHDU: Convergence failed at  53  side 2    Res =  0.1932E+01
 MRCHDU: Convergence failed at  54  side 2    Res =  0.2076E+01
 MRCHDU: Convergence failed at  55  side 2    Res =  0.2397E+01
 MRCHDU: Convergence failed at  56  side 2    Res =  0.1301E+01
 Side 1  free  transition at x/c =  0.7520   58
 Side 2  free  transition at x/c =  0.0399   14
 idif Ue xi dudx           1  0.22206156      2.96401978E-03   74.919052    
 Uenew xinew           2  8.27908050E-03  1.10507011E-04

  63   rms: 0.1660E+01   max: -.1128E+01   U at   84  2   RLX: 0.176
       a = -4.000      CL = -3.4550
      Cm =  0.5531     CD =  0.02476   =>   CDf =  0.02139    CDp =  0.00337

 MRCHDU: Convergence failed at  46  side 2    Res =  0.3495E+01
 MRCHDU: Convergence failed at  47  side 2    Res =  0.6108E+01
 MRCHDU: Convergence failed at  48  side 2    Res =  0.9398E+01
 MRCHDU: Convergence failed at  49  side 2    Res =  0.4764E+00
 MRCHDU: Convergence failed at  50  side 2    Res =  0.4675E+00
 MRCHDU: Convergence failed at  51  side 2    Res =  0.5995E+00
 MRCHDU: Convergence failed at  52  side 2    Res =  0.4148E+00
 MRCHDU: Convergence failed at  53  side 2    Res =  0.6225E+00
 MRCHDU: Convergence failed at  54  side 2    Res =  0.4244E+00
 MRCHDU: Convergence failed at  55  side 2    Res =  0.5624E+00
 MRCHDU: Convergence failed at  56  side 2    Res =  0.6797E+00
 MRCHDU: Convergence failed at  57  side 2    Res =  0.4390E+00
 MRCHDU: Convergence failed at  58  side 2    Res =  0.1105E+01
 MRCHDU: Convergence failed at  61  side 2    Res =  0.7150E+00
 MRCHDU: Convergence failed at  62  side 2    Res =  0.7995E+00
 MRCHDU: Convergence failed at  63  side 2    Res =  0.8838E+00
 MRCHDU: Convergence failed at  64  side 2    Res =  0.9157E+00
 MRCHDU: Convergence failed at  65  side 2    Res =  0.9348E+00
 MRCHDU: Convergence failed at  66  side 2    Res =  0.9393E+00
 MRCHDU: Convergence failed at  67  side 2    Res =  0.9102E+00
 MRCHDU: Convergence failed at  68  side 2    Res =  0.9029E+00
 MRCHDU: Convergence failed at  69  side 2    Res =  0.8914E+00
 MRCHDU: Convergence failed at  70  side 2    Res =  0.8466E+00
 MRCHDU: Convergence failed at  71  side 2    Res =  0.8814E+00
 MRCHDU: Convergence failed at  72  side 2    Res =  0.9213E+00
 MRCHDU: Convergence failed at  73  side 2    Res =  0.9788E+00
 MRCHDU: Convergence failed at  74  side 2    Res =  0.1037E+01
 MRCHDU: Convergence failed at  75  side 2    Res =  0.1105E+01
 MRCHDU: Convergence failed at  76  side 2    Res =  0.1189E+01
 MRCHDU: Convergence failed at  77  side 2    Res =  0.1489E+01
 MRCHDU: Convergence failed at  78  side 2    Res =  0.1624E+01
 MRCHDU: Convergence failed at  79  side 2    Res =  0.1816E+01
 MRCHDU: Convergence failed at  80  side 2    Res =  0.2075E+01
 MRCHDU: Convergence failed at  81  side 2    Res =  0.2460E+01
 MRCHDU: Convergence failed at  82  side 2    Res =  0.2833E+01
 MRCHDU: Convergence failed at  83  side 2    Res =  0.3278E+01
 MRCHDU: Convergence failed at  84  side 2    Res =  0.3868E+01
 MRCHDU: Convergence failed at  85  side 2    Res =  0.4563E+01
 Side 1  free  transition at x/c =  0.7586   58
 Side 2  free  transition at x/c =  0.0392   15

  64   rms: 0.1732E+01   max: -.6449E+01   T at    2  2   RLX: 0.078
       a = -4.000      CL = -4.0333
      Cm =  0.9058     CD =  0.01250   =>   CDf =  0.02564    CDp = -0.01315

 Side 1  free  transition at x/c =  0.7599   58
 Side 2  free  transition at x/c =  0.0393   15

  65   rms: 0.1564E+01   max: -.1202E+01   U at   85  2   RLX: 0.127
       a = -4.000      CL = -3.3761
      Cm =  0.7391     CD =  0.01252   =>   CDf =  0.02364    CDp = -0.01112

 Side 1  free  transition at x/c =  0.7622   59
 Side 2  free  transition at x/c =  0.0394   14

  66   rms: 0.1392E+01   max: -.1051E+01   U at   84  2   RLX: 0.119
       a = -4.000      CL = -2.8746
      Cm =  0.6116     CD =  0.01314   =>   CDf =  0.02092    CDp = -0.00778

 Side 1  free  transition at x/c =  0.7641   59
 Side 2  free  transition at x/c =  0.0392   14

  67   rms: 0.1213E+01   max: -.9268E+00   U at   84  2   RLX: 0.181
       a = -4.000      CL = -2.2514
      Cm =  0.4537     CD =  0.01400   =>   CDf =  0.01891    CDp = -0.00490

 Side 1  free  transition at x/c =  0.7671   59
 Side 2  free  transition at x/c =  0.0388   14

  68   rms: 0.1003E+01   max: -.7595E+00   U at   84  2   RLX: 0.234
       a = -4.000      CL = -1.6520
      Cm =  0.3030     CD =  0.01528   =>   CDf =  0.01633    CDp = -0.00106

 Side 1  free  transition at x/c =  0.7690   60
 Side 2  free  transition at x/c =  0.0360   14

  69   rms: 0.7842E+00   max: -.5789E+00   U at   84  2   RLX: 0.324
       a = -4.000      CL = -1.0823
      Cm =  0.1616     CD =  0.01737   =>   CDf =  0.01366    CDp =  0.00371

 Side 1  free  transition at x/c =  0.7727   60
 Side 2  free  transition at x/c =  0.0270   13

  70   rms: 0.5387E+00   max: -.3860E+00   U at   84  2   RLX: 0.505
       a = -4.000      CL = -0.5472
      Cm =  0.0311     CD =  0.02198   =>   CDf =  0.01057    CDp =  0.01141

 Side 1  free  transition at x/c =  0.7769   60
 Side 2  free  transition at x/c =  0.0230   13

  71   rms: 0.2678E+00   max: -.1816E+00   U at   84  2   RLX: 0.927
       a = -4.000      CL = -0.1020
      Cm = -0.0701     CD =  0.02935   =>   CDf =  0.00739    CDp =  0.02196

 Side 1  free  transition at x/c =  0.7804   60
 Side 2  free  transition at x/c =  0.0236   13

  72   rms: 0.2454E-01   max: -.2495E+00   D at   14  2
       a = -4.000      CL = -0.0681
      Cm = -0.0773     CD =  0.02971   =>   CDf =  0.00590    CDp =  0.02381

 Side 1  free  transition at x/c =  0.7815   60
 Side 2  free  transition at x/c =  0.0235   13

  73   rms: 0.6168E-02   max: 0.2407E-01   T at   13  2
       a = -4.000      CL = -0.0686
      Cm = -0.0772     CD =  0.02965   =>   CDf =  0.00585    CDp =  0.02380

 Side 1  free  transition at x/c =  0.7809   60
 Side 2  free  transition at x/c =  0.0234   13

  74   rms: 0.7533E-02   max: -.1105E+00   C at   60  1
       a = -4.000      CL = -0.0686
      Cm = -0.0772     CD =  0.02964   =>   CDf =  0.00586    CDp =  0.02378

 Side 1  free  transition at x/c =  0.7813   60
 Side 2  free  transition at x/c =  0.0234   13

  75   rms: 0.7284E-02   max: -.1080E+00   C at   60  1
       a = -4.000      CL = -0.0686
      Cm = -0.0772     CD =  0.02965   =>   CDf =  0.00586    CDp =  0.02379

 Side 1  free  transition at x/c =  0.7812   60
 Side 2  free  transition at x/c =  0.0234   13

  76   rms: 0.7361E-02   max: -.1088E+00   C at   60  1
       a = -4.000      CL = -0.0686
      Cm = -0.0772     CD =  0.02965   =>   CDf =  0.00586    CDp =  0.02378

 Side 1  free  transition at x/c =  0.7812   60
 Side 2  free  transition at x/c =  0.0234   13

  77   rms: 0.7338E-02   max: -.1086E+00   C at   60  1
       a = -4.000      CL = -0.0686
      Cm = -0.0772     CD =  0.02965   =>   CDf =  0.00586    CDp =  0.02379

 Side 1  free  transition at x/c =  0.7812   60
 Side 2  free  transition at x/c =  0.0234   13

  78   rms: 0.7345E-02   max: -.1087E+00   C at   60  1
       a = -4.000      CL = -0.0686
      Cm = -0.0772     CD =  0.02965   =>   CDf =  0.00586    CDp =  0.02378

 Side 1  free  transition at x/c =  0.7812   60
 Side 2  free  transition at x/c =  0.0234   13

  79   rms: 0.7343E-02   max: -.1086E+00   C at   60  1
       a = -4.000      CL = -0.0686
      Cm = -0.0772     CD =  0.02965   =>   CDf =  0.00586    CDp =  0.02379

 Side 1  free  transition at x/c =  0.7812   60
 Side 2  free  transition at x/c =  0.0234   13

  80   rms: 0.7343E-02   max: -.1086E+00   C at   60  1
       a = -4.000      CL = -0.0686
      Cm = -0.0772     CD =  0.02965   =>   CDf =  0.00586    CDp =  0.02379

 Side 1  free  transition at x/c =  0.7812   60
 Side 2  free  transition at x/c =  0.0234   13

  81   rms: 0.7343E-02   max: -.1086E+00   C at   60  1
       a = -4.000      CL = -0.0686
      Cm = -0.0772     CD =  0.02965   =>   CDf =  0.00586    CDp =  0.02379

 Side 1  free  transition at x/c =  0.7812   60
 Side 2  free  transition at x/c =  0.0234   13

  82   rms: 0.7343E-02   max: -.1086E+00   C at   60  1
       a = -4.000      CL = -0.0686
      Cm = -0.0772     CD =  0.02965   =>   CDf =  0.00586    CDp =  0.02378

 Side 1  free  transition at x/c =  0.7812   60
 Side 2  free  transition at x/c =  0.0234   13

  83   rms: 0.7343E-02   max: -.1086E+00   C at   60  1
       a = -4.000      CL = -0.0686
      Cm = -0.0772     CD =  0.02965   =>   CDf =  0.00586    CDp =  0.02379

 Side 1  free  transition at x/c =  0.7812   60
 Side 2  free  transition at x/c =  0.0234   13

  84   rms: 0.7343E-02   max: -.1086E+00   C at   60  1
       a = -4.000      CL = -0.0686
      Cm = -0.0772     CD =  0.02965   =>   CDf =  0.00586    CDp =  0.02379

 Side 1  free  transition at x/c =  0.7812   60
 Side 2  free  transition at x/c =  0.0234   13

  85   rms: 0.7343E-02   max: -.1086E+00   C at   60  1
       a = -4.000      CL = -0.0686
      Cm = -0.0772     CD =  0.02965   =>   CDf =  0.00586    CDp =  0.02379

 Side 1  free  transition at x/c =  0.7812   60
 Side 2  free  transition at x/c =  0.0234   13

  86   rms: 0.7343E-02   max: -.1086E+00   C at   60  1
       a = -4.000      CL = -0.0686
      Cm = -0.0772     CD =  0.02965   =>   CDf =  0.00586    CDp =  0.02379

 Side 1  free  transition at x/c =  0.7812   60
 Side 2  free  transition at x/c =  0.0234   13

  87   rms: 0.7343E-02   max: -.1086E+00   C at   60  1
       a = -4.000      CL = -0.0686
      Cm = -0.0772     CD =  0.02965   =>   CDf =  0.00586    CDp =  0.02379

 Side 1  free  transition at x/c =  0.7812   60
 Side 2  free  transition at x/c =  0.0234   13

  88   rms: 0.7343E-02   max: -.1086E+00   C at   60  1
       a = -4.000      CL = -0.0686
      Cm = -0.0772     CD =  0.02965   =>   CDf =  0.00586    CDp =  0.02379

 Side 1  free  transition at x/c =  0.7812   60
 Side 2  free  transition at x/c =  0.0234   13

  89   rms: 0.7343E-02   max: -.1086E+00   C at   60  1
       a = -4.000      CL = -0.0686
      Cm = -0.0772     CD =  0.02965   =>   CDf =  0.00586    CDp =  0.02379

 Side 1  free  transition at x/c =  0.7812   60
 Side 2  free  transition at x/c =  0.0234   13

  90   rms: 0.7343E-02   max: -.1086E+00   C at   60  1
       a = -4.000      CL = -0.0686
      Cm = -0.0772     CD =  0.02965   =>   CDf =  0.00586    CDp =  0.02379

 Side 1  free  transition at x/c =  0.7812   60
 Side 2  free  transition at x/c =  0.0234   13

  91   rms: 0.7343E-02   max: -.1086E+00   C at   60  1
       a = -4.000      CL = -0.0686
      Cm = -0.0772     CD =  0.02965   =>   CDf =  0.00586    CDp =  0.02379

 Side 1  free  transition at x/c =  0.7812   60
 Side 2  free  transition at x/c =  0.0234   13

  92   rms: 0.7343E-02   max: -.1086E+00   C at   60  1
       a = -4.000      CL = -0.0686
      Cm = -0.0772     CD =  0.02965   =>   CDf =  0.00586    CDp =  0.02379

 Side 1  free  transition at x/c =  0.7812   60
 Side 2  free  transition at x/c =  0.0234   13

  93   rms: 0.7343E-02   max: -.1086E+00   C at   60  1
       a = -4.000      CL = -0.0686
      Cm = -0.0772     CD =  0.02965   =>   CDf =  0.00586    CDp =  0.02379

 Side 1  free  transition at x/c =  0.7812   60
 Side 2  free  transition at x/c =  0.0234   13

  94   rms: 0.7343E-02   max: -.1086E+00   C at   60  1
       a = -4.000      CL = -0.0686
      Cm = -0.0772     CD =  0.02965   =>   CDf =  0.00586    CDp =  0.02379

 Side 1  free  transition at x/c =  0.7812   60
 Side 2  free  transition at x/c =  0.0234   13

  95   rms: 0.7343E-02   max: -.1086E+00   C at   60  1
       a = -4.000      CL = -0.0686
      Cm = -0.0772     CD =  0.02965   =>   CDf =  0.00586    CDp =  0.02379

 Side 1  free  transition at x/c =  0.7812   60
 Side 2  free  transition at x/c =  0.0234   13

  96   rms: 0.7343E-02   max: -.1086E+00   C at   60  1
       a = -4.000      CL = -0.0686
      Cm = -0.0772     CD =  0.02965   =>   CDf =  0.00586    CDp =  0.02379

 Side 1  free  transition at x/c =  0.7812   60
 Side 2  free  transition at x/c =  0.0234   13

  97   rms: 0.7343E-02   max: -.1086E+00   C at   60  1
       a = -4.000      CL = -0.0686
      Cm = -0.0772     CD =  0.02965   =>   CDf =  0.00586    CDp =  0.02379

 Side 1  free  transition at x/c =  0.7812   60
 Side 2  free  transition at x/c =  0.0234   13

  98   rms: 0.7343E-02   max: -.1086E+00   C at   60  1
       a = -4.000      CL = -0.0686
      Cm = -0.0772     CD =  0.02965   =>   CDf =  0.00586    CDp =  0.02379

 Side 1  free  transition at x/c =  0.7812   60
 Side 2  free  transition at x/c =  0.0234   13

  99   rms: 0.7343E-02   max: -.1086E+00   C at   60  1
       a = -4.000      CL = -0.0686
      Cm = -0.0772     CD =  0.02965   =>   CDf =  0.00586    CDp =  0.02378

 Side 1  free  transition at x/c =  0.7812   60
 Side 2  free  transition at x/c =  0.0234   13

 100   rms: 0.7343E-02   max: -.1086E+00   C at   60  1
       a = -4.000      CL = -0.0686
      Cm = -0.0772     CD =  0.02965   =>   CDf =  0.00586    CDp =  0.02379

 Side 1  free  transition at x/c =  0.7812   60
 Side 2  free  transition at x/c =  0.0234   13

 101   rms: 0.7343E-02   max: -.1086E+00   C at   60  1
       a = -4.000      CL = -0.0686
      Cm = -0.0772     CD =  0.02965   =>   CDf =  0.00586    CDp =  0.02378

 Side 1  free  transition at x/c =  0.7812   60
 Side 2  free  transition at x/c =  0.0234   13

 102   rms: 0.7343E-02   max: -.1086E+00   C at   60  1
       a = -4.000      CL = -0.0686
      Cm = -0.0772     CD =  0.02965   =>   CDf =  0.00586    CDp =  0.02379

 Side 1  free  transition at x/c =  0.7812   60
 Side 2  free  transition at x/c =  0.0234   13

 103   rms: 0.7343E-02   max: -.1086E+00   C at   60  1
       a = -4.000      CL = -0.0686
      Cm = -0.0772     CD =  0.02965   =>   CDf =  0.00586    CDp =  0.02379

 Side 1  free  transition at x/c =  0.7812   60
 Side 2  free  transition at x/c =  0.0234   13

 104   rms: 0.7343E-02   max: -.1086E+00   C at   60  1
       a = -4.000      CL = -0.0686
      Cm = -0.0772     CD =  0.02965   =>   CDf =  0.00586    CDp =  0.02379

 Side 1  free  transition at x/c =  0.7812   60
 Side 2  free  transition at x/c =  0.0234   13

 105   rms: 0.7343E-02   max: -.1086E+00   C at   60  1
       a = -4.000      CL = -0.0686
      Cm = -0.0772     CD =  0.02965   =>   CDf =  0.00586    CDp =  0.02379

 Side 1  free  transition at x/c =  0.7812   60
 Side 2  free  transition at x/c =  0.0234   13

 106   rms: 0.7343E-02   max: -.1086E+00   C at   60  1
       a = -4.000      CL = -0.0686
      Cm = -0.0772     CD =  0.02965   =>   CDf =  0.00586    CDp =  0.02379

 Side 1  free  transition at x/c =  0.7812   60
 Side 2  free  transition at x/c =  0.0234   13

 107   rms: 0.7343E-02   max: -.1086E+00   C at   60  1
       a = -4.000      CL = -0.0686
      Cm = -0.0772     CD =  0.02965   =>   CDf =  0.00586    CDp =  0.02379

 Side 1  free  transition at x/c =  0.7812   60
 Side 2  free  transition at x/c =  0.0234   13

 108   rms: 0.7343E-02   max: -.1086E+00   C at   60  1
       a = -4.000      CL = -0.0686
      Cm = -0.0772     CD =  0.02965   =>   CDf =  0.00586    CDp =  0.02379

 Side 1  free  transition at x/c =  0.7812   60
 Side 2  free  transition at x/c =  0.0234   13

 109   rms: 0.7343E-02   max: -.1086E+00   C at   60  1
       a = -4.000      CL = -0.0686
      Cm = -0.0772     CD =  0.02965   =>   CDf =  0.00586    CDp =  0.02379

 Side 1  free  transition at x/c =  0.7812   60
 Side 2  free  transition at x/c =  0.0234   13

 110   rms: 0.7343E-02   max: -.1086E+00   C at   60  1
       a = -4.000      CL = -0.0686
      Cm = -0.0772     CD =  0.02965   =>   CDf =  0.00586    CDp =  0.02379

 Side 1  free  transition at x/c =  0.7812   60
 Side 2  free  transition at x/c =  0.0234   13

 111   rms: 0.7343E-02   max: -.1086E+00   C at   60  1
       a = -4.000      CL = -0.0686
      Cm = -0.0772     CD =  0.02965   =>   CDf =  0.00586    CDp =  0.02379

 Side 1  free  transition at x/c =  0.7812   60
 Side 2  free  transition at x/c =  0.0234   13

 112   rms: 0.7343E-02   max: -.1086E+00   C at   60  1
       a = -4.000      CL = -0.0686
      Cm = -0.0772     CD =  0.02965   =>   CDf =  0.00586    CDp =  0.02379

 Side 1  free  transition at x/c =  0.7812   60
 Side 2  free  transition at x/c =  0.0234   13

 113   rms: 0.7343E-02   max: -.1086E+00   C at   60  1
       a = -4.000      CL = -0.0686
      Cm = -0.0772     CD =  0.02965   =>   CDf =  0.00586    CDp =  0.02379

 Side 1  free  transition at x/c =  0.7812   60
 Side 2  free  transition at x/c =  0.0234   13

 114   rms: 0.7343E-02   max: -.1086E+00   C at   60  1
       a = -4.000      CL = -0.0686
      Cm = -0.0772     CD =  0.02965   =>   CDf =  0.00586    CDp =  0.02379

 Side 1  free  transition at x/c =  0.7812   60
 Side 2  free  transition at x/c =  0.0234   13

 115   rms: 0.7343E-02   max: -.1086E+00   C at   60  1
       a = -4.000      CL = -0.0686
      Cm = -0.0772     CD =  0.02965   =>   CDf =  0.00586    CDp =  0.02379

 Side 1  free  transition at x/c =  0.7812   60
 Side 2  free  transition at x/c =  0.0234   13

 116   rms: 0.7343E-02   max: -.1086E+00   C at   60  1
       a = -4.000      CL = -0.0686
      Cm = -0.0772     CD =  0.02965   =>   CDf =  0.00586    CDp =  0.02379

 Side 1  free  transition at x/c =  0.7812   60
 Side 2  free  transition at x/c =  0.0234   13

 117   rms: 0.7343E-02   max: -.1086E+00   C at   60  1
       a = -4.000      CL = -0.0686
      Cm = -0.0772     CD =  0.02965   =>   CDf =  0.00586    CDp =  0.02378

 Side 1  free  transition at x/c =  0.7812   60
 Side 2  free  transition at x/c =  0.0234   13

 118   rms: 0.7343E-02   max: -.1086E+00   C at   60  1
       a = -4.000      CL = -0.0686
      Cm = -0.0772     CD =  0.02965   =>   CDf =  0.00586    CDp =  0.02379

 Side 1  free  transition at x/c =  0.7812   60
 Side 2  free  transition at x/c =  0.0234   13

 119   rms: 0.7343E-02   max: -.1086E+00   C at   60  1
       a = -4.000      CL = -0.0686
      Cm = -0.0772     CD =  0.02965   =>   CDf =  0.00586    CDp =  0.02379

 Side 1  free  transition at x/c =  0.7812   60
 Side 2  free  transition at x/c =  0.0234   13

 120   rms: 0.7343E-02   max: -.1086E+00   C at   60  1
       a = -4.000      CL = -0.0686
      Cm = -0.0772     CD =  0.02965   =>   CDf =  0.00586    CDp =  0.02379

 Side 1  free  transition at x/c =  0.7812   60
 Side 2  free  transition at x/c =  0.0234   13

 121   rms: 0.7343E-02   max: -.1086E+00   C at   60  1
       a = -4.000      CL = -0.0686
      Cm = -0.0772     CD =  0.02965   =>   CDf =  0.00586    CDp =  0.02379

 Side 1  free  transition at x/c =  0.7812   60
 Side 2  free  transition at x/c =  0.0234   13

 122   rms: 0.7343E-02   max: -.1086E+00   C at   60  1
       a = -4.000      CL = -0.0686
      Cm = -0.0772     CD =  0.02965   =>   CDf =  0.00586    CDp =  0.02379

 Side 1  free  transition at x/c =  0.7812   60
 Side 2  free  transition at x/c =  0.0234   13

 123   rms: 0.7343E-02   max: -.1086E+00   C at   60  1
       a = -4.000      CL = -0.0686
      Cm = -0.0772     CD =  0.02965   =>   CDf =  0.00586    CDp =  0.02379

 Side 1  free  transition at x/c =  0.7812   60
 Side 2  free  transition at x/c =  0.0234   13

 124   rms: 0.7343E-02   max: -.1086E+00   C at   60  1
       a = -4.000      CL = -0.0686
      Cm = -0.0772     CD =  0.02965   =>   CDf =  0.00586    CDp =  0.02379

 Side 1  free  transition at x/c =  0.7812   60
 Side 2  free  transition at x/c =  0.0234   13

 125   rms: 0.7343E-02   max: -.1086E+00   C at   60  1
       a = -4.000      CL = -0.0686
      Cm = -0.0772     CD =  0.02965   =>   CDf =  0.00586    CDp =  0.02379

 Side 1  free  transition at x/c =  0.7812   60
 Side 2  free  transition at x/c =  0.0234   13

 126   rms: 0.7343E-02   max: -.1086E+00   C at   60  1
       a = -4.000      CL = -0.0686
      Cm = -0.0772     CD =  0.02965   =>   CDf =  0.00586    CDp =  0.02379

 Side 1  free  transition at x/c =  0.7812   60
 Side 2  free  transition at x/c =  0.0234   13

 127   rms: 0.7343E-02   max: -.1086E+00   C at   60  1
       a = -4.000      CL = -0.0686
      Cm = -0.0772     CD =  0.02965   =>   CDf =  0.00586    CDp =  0.02379

 Side 1  free  transition at x/c =  0.7812   60
 Side 2  free  transition at x/c =  0.0234   13

 128   rms: 0.7343E-02   max: -.1086E+00   C at   60  1
       a = -4.000      CL = -0.0686
      Cm = -0.0772     CD =  0.02965   =>   CDf =  0.00586    CDp =  0.02379

 Side 1  free  transition at x/c =  0.7812   60
 Side 2  free  transition at x/c =  0.0234   13

 129   rms: 0.7343E-02   max: -.1086E+00   C at   60  1
       a = -4.000      CL = -0.0686
      Cm = -0.0772     CD =  0.02965   =>   CDf =  0.00586    CDp =  0.02379

 Side 1  free  transition at x/c =  0.7812   60
 Side 2  free  transition at x/c =  0.0234   13

 130   rms: 0.7343E-02   max: -.1086E+00   C at   60  1
       a = -4.000      CL = -0.0686
      Cm = -0.0772     CD =  0.02965   =>   CDf =  0.00586    CDp =  0.02379

 Side 1  free  transition at x/c =  0.7812   60
 Side 2  free  transition at x/c =  0.0234   13

 131   rms: 0.7343E-02   max: -.1086E+00   C at   60  1
       a = -4.000      CL = -0.0686
      Cm = -0.0772     CD =  0.02965   =>   CDf =  0.00586    CDp =  0.02379

 Side 1  free  transition at x/c =  0.7812   60
 Side 2  free  transition at x/c =  0.0234   13

 132   rms: 0.7343E-02   max: -.1086E+00   C at   60  1
       a = -4.000      CL = -0.0686
      Cm = -0.0772     CD =  0.02965   =>   CDf =  0.00586    CDp =  0.02379

 Side 1  free  transition at x/c =  0.7812   60
 Side 2  free  transition at x/c =  0.0234   13

 133   rms: 0.7343E-02   max: -.1086E+00   C at   60  1
       a = -4.000      CL = -0.0686
      Cm = -0.0772     CD =  0.02965   =>   CDf =  0.00586    CDp =  0.02379

 Side 1  free  transition at x/c =  0.7812   60
 Side 2  free  transition at x/c =  0.0234   13

 134   rms: 0.7343E-02   max: -.1086E+00   C at   60  1
       a = -4.000      CL = -0.0686
      Cm = -0.0772     CD =  0.02965   =>   CDf =  0.00586    CDp =  0.02379

 Side 1  free  transition at x/c =  0.7812   60
 Side 2  free  transition at x/c =  0.0234   13

 135   rms: 0.7343E-02   max: -.1086E+00   C at   60  1
       a = -4.000      CL = -0.0686
      Cm = -0.0772     CD =  0.02965   =>   CDf =  0.00586    CDp =  0.02379

 Side 1  free  transition at x/c =  0.7812   60
 Side 2  free  transition at x/c =  0.0234   13

 136   rms: 0.7343E-02   max: -.1086E+00   C at   60  1
       a = -4.000      CL = -0.0686
      Cm = -0.0772     CD =  0.02965   =>   CDf =  0.00586    CDp =  0.02379

 Side 1  free  transition at x/c =  0.7812   60
 Side 2  free  transition at x/c =  0.0234   13

 137   rms: 0.7343E-02   max: -.1086E+00   C at   60  1
       a = -4.000      CL = -0.0686
      Cm = -0.0772     CD =  0.02965   =>   CDf =  0.00586    CDp =  0.02379

 Side 1  free  transition at x/c =  0.7812   60
 Side 2  free  transition at x/c =  0.0234   13

 138   rms: 0.7343E-02   max: -.1086E+00   C at   60  1
       a = -4.000      CL = -0.0686
      Cm = -0.0772     CD =  0.02965   =>   CDf =  0.00586    CDp =  0.02379

 Side 1  free  transition at x/c =  0.7812   60
 Side 2  free  transition at x/c =  0.0234   13

 139   rms: 0.7343E-02   max: -.1086E+00   C at   60  1
       a = -4.000      CL = -0.0686
      Cm = -0.0772     CD =  0.02965   =>   CDf =  0.00586    CDp =  0.02379

 Side 1  free  transition at x/c =  0.7812   60
 Side 2  free  transition at x/c =  0.0234   13

 140   rms: 0.7343E-02   max: -.1086E+00   C at   60  1
       a = -4.000      CL = -0.0686
      Cm = -0.0772     CD =  0.02965   =>   CDf =  0.00586    CDp =  0.02379

 Side 1  free  transition at x/c =  0.7812   60
 Side 2  free  transition at x/c =  0.0234   13

 141   rms: 0.7343E-02   max: -.1086E+00   C at   60  1
       a = -4.000      CL = -0.0686
      Cm = -0.0772     CD =  0.02965   =>   CDf =  0.00586    CDp =  0.02378

 Side 1  free  transition at x/c =  0.7812   60
 Side 2  free  transition at x/c =  0.0234   13

 142   rms: 0.7343E-02   max: -.1086E+00   C at   60  1
       a = -4.000      CL = -0.0686
      Cm = -0.0772     CD =  0.02965   =>   CDf =  0.00586    CDp =  0.02379

 Side 1  free  transition at x/c =  0.7812   60
 Side 2  free  transition at x/c =  0.0234   13

 143   rms: 0.7343E-02   max: -.1086E+00   C at   60  1
       a = -4.000      CL = -0.0686
      Cm = -0.0772     CD =  0.02965   =>   CDf =  0.00586    CDp =  0.02379

 Side 1  free  transition at x/c =  0.7812   60
 Side 2  free  transition at x/c =  0.0234   13

 144   rms: 0.7343E-02   max: -.1086E+00   C at   60  1
       a = -4.000      CL = -0.0686
      Cm = -0.0772     CD =  0.02965   =>   CDf =  0.00586    CDp =  0.02379

 Side 1  free  transition at x/c =  0.7812   60
 Side 2  free  transition at x/c =  0.0234   13

 145   rms: 0.7343E-02   max: -.1086E+00   C at   60  1
       a = -4.000      CL = -0.0686
      Cm = -0.0772     CD =  0.02965   =>   CDf =  0.00586    CDp =  0.02379

 Side 1  free  transition at x/c =  0.7812   60
 Side 2  free  transition at x/c =  0.0234   13

 146   rms: 0.7343E-02   max: -.1086E+00   C at   60  1
       a = -4.000      CL = -0.0686
      Cm = -0.0772     CD =  0.02965   =>   CDf =  0.00586    CDp =  0.02379

 Side 1  free  transition at x/c =  0.7812   60
 Side 2  free  transition at x/c =  0.0234   13

 147   rms: 0.7343E-02   max: -.1086E+00   C at   60  1
       a = -4.000      CL = -0.0686
      Cm = -0.0772     CD =  0.02965   =>   CDf =  0.00586    CDp =  0.02379

 Side 1  free  transition at x/c =  0.7812   60
 Side 2  free  transition at x/c =  0.0234   13

 148   rms: 0.7343E-02   max: -.1086E+00   C at   60  1
       a = -4.000      CL = -0.0686
      Cm = -0.0772     CD =  0.02965   =>   CDf =  0.00586    CDp =  0.02379

 Side 1  free  transition at x/c =  0.7812   60
 Side 2  free  transition at x/c =  0.0234   13

 149   rms: 0.7343E-02   max: -.1086E+00   C at   60  1
       a = -4.000      CL = -0.0686
      Cm = -0.0772     CD =  0.02965   =>   CDf =  0.00586    CDp =  0.02379

 Side 1  free  transition at x/c =  0.7812   60
 Side 2  free  transition at x/c =  0.0234   13

 150   rms: 0.7343E-02   max: -.1086E+00   C at   60  1
       a = -4.000      CL = -0.0686
      Cm = -0.0772     CD =  0.02965   =>   CDf =  0.00586    CDp =  0.02378

 Side 1  free  transition at x/c =  0.7812   60
 Side 2  free  transition at x/c =  0.0234   13

 151   rms: 0.7343E-02   max: -.1086E+00   C at   60  1
       a = -4.000      CL = -0.0686
      Cm = -0.0772     CD =  0.02965   =>   CDf =  0.00586    CDp =  0.02379

 Side 1  free  transition at x/c =  0.7812   60
 Side 2  free  transition at x/c =  0.0234   13

 152   rms: 0.7343E-02   max: -.1086E+00   C at   60  1
       a = -4.000      CL = -0.0686
      Cm = -0.0772     CD =  0.02965   =>   CDf =  0.00586    CDp =  0.02379

 Side 1  free  transition at x/c =  0.7812   60
 Side 2  free  transition at x/c =  0.0234   13

 153   rms: 0.7343E-02   max: -.1086E+00   C at   60  1
       a = -4.000      CL = -0.0686
      Cm = -0.0772     CD =  0.02965   =>   CDf =  0.00586    CDp =  0.02378

 Side 1  free  transition at x/c =  0.7812   60
 Side 2  free  transition at x/c =  0.0234   13

 154   rms: 0.7343E-02   max: -.1086E+00   C at   60  1
       a = -4.000      CL = -0.0686
      Cm = -0.0772     CD =  0.02965   =>   CDf =  0.00586    CDp =  0.02378

 Side 1  free  transition at x/c =  0.7812   60
 Side 2  free  transition at x/c =  0.0234   13

 155   rms: 0.7343E-02   max: -.1086E+00   C at   60  1
       a = -4.000      CL = -0.0686
      Cm = -0.0772     CD =  0.02965   =>   CDf =  0.00586    CDp =  0.02379
 VISCAL:  Convergence failed
 Calculating wake trajectory ...
 Calculating source influence matrix ...

 Solving BL system ...

 Side 1  free  transition at x/c =  0.7812   60
 Side 2  free  transition at x/c =  0.0234   13

   1   rms: 0.2033E+00   max: -.1733E+01   T at   13  2   RLX: 0.289
       a = -3.500      CL = -0.0624
      Cm = -0.0766     CD =  0.02738   =>   CDf =  0.00587    CDp =  0.02151

 Side 1  free  transition at x/c =  0.7625   59
 Side 2  free  transition at x/c =  0.0251   13

   2   rms: 0.1599E+00   max: -.1068E+01   T at   13  2   RLX: 0.468
       a = -3.500      CL = -0.0546
      Cm = -0.0759     CD =  0.02828   =>   CDf =  0.00556    CDp =  0.02272

 Side 1  free  transition at x/c =  0.7493   58
 Side 2  free  transition at x/c =  0.0281   13

   3   rms: 0.1330E+00   max: -.7696E+00   T at   13  2   RLX: 0.650
       a = -3.500      CL = -0.0403
      Cm = -0.0748     CD =  0.02795   =>   CDf =  0.00570    CDp =  0.02225

 Side 1  free  transition at x/c =  0.7401   58
 Side 2  free  transition at x/c =  0.0302   13

   4   rms: 0.1043E+00   max: -.4721E+00   T at   13  2
       a = -3.500      CL = -0.0230
      Cm = -0.0733     CD =  0.02912   =>   CDf =  0.00595    CDp =  0.02317

 Side 1  free  transition at x/c =  0.7368   57
 Side 2  free  transition at x/c =  0.0306   13

   5   rms: 0.1849E+00   max: 0.8071E+00   D at   14  2
       a = -3.500      CL = -0.0229
      Cm = -0.0739     CD =  0.02891   =>   CDf =  0.00703    CDp =  0.02189

 Side 1  free  transition at x/c =  0.7350   57
 Side 2  free  transition at x/c =  0.0344   14

   6   rms: 0.2639E+00   max: 0.1453E+01   D at   18  2
       a = -3.500      CL = -0.0340
      Cm = -0.0732     CD =  0.02564   =>   CDf =  0.00794    CDp =  0.01770

 MRCHDU: Convergence failed at  18  side 2    Res =  0.1830E+01
 MRCHDU: Convergence failed at  19  side 2    Res =  0.2517E+01
 MRCHDU: Convergence failed at  20  side 2    Res =  0.7264E+01
 MRCHDU: Convergence failed at  21  side 2    Res =  0.6527E+01
 MRCHDU: Convergence failed at  22  side 2    Res =  0.2829E+01
 MRCHDU: Convergence failed at  23  side 2    Res =  0.2123E+01
 MRCHDU: Convergence failed at  24  side 2    Res =  0.1870E+01
 MRCHDU: Convergence failed at  25  side 2    Res =  0.1898E+01
 MRCHDU: Convergence failed at  26  side 2    Res =  0.2284E+01
 MRCHDU: Convergence failed at  27  side 2    Res =  0.2869E+01
 MRCHDU: Convergence failed at  28  side 2    Res =  0.3737E+01
 MRCHDU: Convergence failed at  29  side 2    Res =  0.4930E+01
 MRCHDU: Convergence failed at  30  side 2    Res =  0.7254E+01
 MRCHDU: Convergence failed at  31  side 2    Res =  0.1104E+02
 MRCHDU: Convergence failed at  32  side 2    Res =  0.1928E+02
 MRCHDU: Convergence failed at  33  side 2    Res =  0.1211E+03
 MRCHDU: Convergence failed at  34  side 2    Res =  0.5668E+02
 MRCHDU: Convergence failed at  35  side 2    Res =  0.2699E+02
 MRCHDU: Convergence failed at  36  side 2    Res =  0.1964E+02
 MRCHDU: Convergence failed at  37  side 2    Res =  0.1638E+02
 MRCHDU: Convergence failed at  38  side 2    Res =  0.1462E+02
 MRCHDU: Convergence failed at  39  side 2    Res =  0.1377E+02
 MRCHDU: Convergence failed at  40  side 2    Res =  0.1360E+02
 MRCHDU: Convergence failed at  41  side 2    Res =  0.1345E+02
 MRCHDU: Convergence failed at  42  side 2    Res =  0.1359E+02
 MRCHDU: Convergence failed at  43  side 2    Res =  0.1377E+02
 MRCHDU: Convergence failed at  44  side 2    Res =  0.1419E+02
 MRCHDU: Convergence failed at  45  side 2    Res =  0.1485E+02
 MRCHDU: Convergence failed at  46  side 2    Res =  0.1546E+02
 MRCHDU: Convergence failed at  47  side 2    Res =  0.2579E+02
 MRCHDU: Convergence failed at  48  side 2    Res =  0.2689E+02
 MRCHDU: Convergence failed at  49  side 2    Res =  0.2860E+02
 MRCHDU: Convergence failed at  50  side 2    Res =  0.2994E+02
 MRCHDU: Convergence failed at  51  side 2    Res =  0.3114E+02
 MRCHDU: Convergence failed at  52  side 2    Res =  0.1998E+03
 MRCHDU: Convergence failed at  53  side 2    Res =  0.3778E+03
 MRCHDU: Convergence failed at  54  side 2    Res =  0.9238E+04
 MRCHDU: Convergence failed at  55  side 2    Res =  0.3298E+03
 MRCHDU: Convergence failed at  56  side 2    Res =  0.4683E+02
 MRCHDU: Convergence failed at  57  side 2    Res =  0.3927E+02
 MRCHDU: Convergence failed at  58  side 2    Res =  0.3631E+02
 MRCHDU: Convergence failed at  59  side 2    Res =  0.3127E+02
 MRCHDU: Convergence failed at  60  side 2    Res =  0.2825E+02
 MRCHDU: Convergence failed at  61  side 2    Res =  0.2735E+02
 MRCHDU: Convergence failed at  62  side 2    Res =  0.2535E+02
 MRCHDU: Convergence failed at  63  side 2    Res =  0.2336E+02
 MRCHDU: Convergence failed at  64  side 2    Res =  0.2185E+02
 MRCHDU: Convergence failed at  65  side 2    Res =  0.2099E+02
 MRCHDU: Convergence failed at  66  side 2    Res =  0.1512E+02
 MRCHDU: Convergence failed at  67  side 2    Res =  0.1208E+02
 MRCHDU: Convergence failed at  68  side 2    Res =  0.9699E+01
 MRCHDU: Convergence failed at  69  side 2    Res =  0.9294E+01
 MRCHDU: Convergence failed at  70  side 2    Res =  0.8797E+01
 MRCHDU: Convergence failed at  71  side 2    Res =  0.8418E+01
 MRCHDU: Convergence failed at  72  side 2    Res =  0.6519E+01
 MRCHDU: Convergence failed at  73  side 2    Res =  0.6244E+01
 MRCHDU: Convergence failed at  74  side 2    Res =  0.6057E+01
 MRCHDU: Convergence failed at  75  side 2    Res =  0.5354E+01
 MRCHDU: Convergence failed at  76  side 2    Res =  0.6506E+01
 MRCHDU: Convergence failed at  77  side 2    Res =  0.6770E+01
 MRCHDU: Convergence failed at  78  side 2    Res =  0.7133E+01
 MRCHDU: Convergence failed at  79  side 2    Res =  0.8259E+01
 MRCHDU: Convergence failed at  80  side 2    Res =  0.9030E+01
 MRCHDU: Convergence failed at  81  side 2    Res =  0.9629E+01
 MRCHDU: Convergence failed at  82  side 2    Res =  0.1121E+02
 MRCHDU: Convergence failed at  83  side 2    Res =  0.1189E+02
 MRCHDU: Convergence failed at  84  side 2    Res =  0.1621E+02
 Side 1  free  transition at x/c =  0.7380   57
 Side 2  free  transition at x/c =  0.0321   14

   7   rms: 0.5139E+00   max: -.1972E+01   T at   14  2   RLX: 0.254
       a = -3.500      CL = -0.4306
      Cm =  0.0664     CD =  0.01977   =>   CDf =  0.00345    CDp =  0.01632

 Side 1  free  transition at x/c =  0.7393   57
 Side 2  free  transition at x/c =  0.0331   14

   8   rms: 0.3544E+00   max: 0.1551E+01   T at   14  2   RLX: 0.967
       a = -3.500      CL = -0.0782
      Cm = -0.0622     CD =  0.02232   =>   CDf =  0.00939    CDp =  0.01293

 Side 1  free  transition at x/c =  0.7395   58
 Side 2  free  transition at x/c =  0.0299   13

   9   rms: 0.2001E+00   max: 0.1011E+01   D at   14  2   RLX: 0.597
       a = -3.500      CL = -0.0492
      Cm = -0.0700     CD =  0.02663   =>   CDf =  0.00694    CDp =  0.01969

 Side 1  free  transition at x/c =  0.7378   57
 Side 2  free  transition at x/c =  0.0288   13

  10   rms: 0.9112E-01   max: -.5706E+00   D at   13  2   RLX: 0.876
       a = -3.500      CL = -0.0276
      Cm = -0.0740     CD =  0.02705   =>   CDf =  0.00673    CDp =  0.02032

 Side 1  free  transition at x/c =  0.7357   57
 Side 2  free  transition at x/c =  0.0330   14

  11   rms: 0.7335E-01   max: 0.5062E+00   D at   20  2
       a = -3.500      CL = -0.0302
      Cm = -0.0744     CD =  0.02525   =>   CDf =  0.00731    CDp =  0.01794

 Side 1  free  transition at x/c =  0.7375   57
 Side 2  free  transition at x/c =  0.0335   14

  12   rms: 0.3459E-01   max: -.1380E+00   D at   22  2
       a = -3.500      CL = -0.0290
      Cm = -0.0746     CD =  0.02543   =>   CDf =  0.00648    CDp =  0.01895

 Side 1  free  transition at x/c =  0.7372   57
 Side 2  free  transition at x/c =  0.0341   14

  13   rms: 0.5699E-02   max: -.2524E-01   D at   22  2
       a = -3.500      CL = -0.0288
      Cm = -0.0746     CD =  0.02549   =>   CDf =  0.00663    CDp =  0.01885

 Side 1  free  transition at x/c =  0.7371   57
 Side 2  free  transition at x/c =  0.0342   14

  14   rms: 0.8918E-04   max: -.5908E-03   D at   22  2
       a = -3.500      CL = -0.0288
      Cm = -0.0746     CD =  0.02549   =>   CDf =  0.00666    CDp =  0.01883
 plradd ia,ip,cpol            1           0  5.12826846E-05

 Point added to stored polar  1
 Point written to save file  goe559_Re200k.base.pol                          
 Dump file unspecified or not available
 Calculating wake trajectory ...
 Calculating source influence matrix ...

 Solving BL system ...

 Side 1  free  transition at x/c =  0.7371   57
 Side 2  free  transition at x/c =  0.0342   14

   1   rms: 0.1930E+00   max: -.2759E+01   T at   14  2   RLX: 0.181
       a = -3.000      CL = -0.0224
      Cm = -0.0744     CD =  0.02462   =>   CDf =  0.00667    CDp =  0.01795

 Side 1  free  transition at x/c =  0.7288   57
 Side 2  free  transition at x/c =  0.0375   14

   2   rms: 0.3622E+00   max: -.6719E+01   T at   14  2   RLX: 0.074
       a = -3.000      CL = -0.0197
      Cm = -0.0741     CD =  0.02773   =>   CDf =  0.00664    CDp =  0.02109

 Side 1  free  transition at x/c =  0.7264   58
 Side 2  free  transition at x/c =  0.0383   13

   3   rms: 0.5861E+00   max: -.9987E+01   D at    2  1   RLX: 0.050
       a = -3.000      CL = -0.0215
      Cm = -0.0744     CD =  0.02783   =>   CDf =  0.00650    CDp =  0.02133

 Side 1  free  transition at x/c =  0.7252   57
 Side 2  free  transition at x/c =  0.0386   13

   4   rms: 0.1054E+00   max: -.1204E+01   T at   13  2   RLX: 0.415
       a = -3.000      CL = -0.0030
      Cm = -0.0730     CD =  0.02739   =>   CDf =  0.00657    CDp =  0.02082

 Side 1  free  transition at x/c =  0.7113   57
 Side 2  free  transition at x/c =  0.0378   13

   5   rms: 0.5152E-01   max: -.6364E+00   D at   13  2   RLX: 0.786
       a = -3.000      CL =  0.0152
      Cm = -0.0722     CD =  0.02439   =>   CDf =  0.00710    CDp =  0.01729

 MRCHDU: Convergence failed at  17  side 2    Res =  0.8406E+02
 MRCHDU: Convergence failed at  18  side 2    Res =  0.2671E+02
 MRCHDU: Convergence failed at  19  side 2    Res =  0.2606E+04
 MRCHDU: Convergence failed at  20  side 2    Res =  0.5216E+02
 MRCHDU: Convergence failed at  21  side 2    Res =  0.3754E+02
 MRCHDU: Convergence failed at  22  side 2    Res =  0.2728E+02
 MRCHDU: Convergence failed at  23  side 2    Res =  0.7262E+02
 MRCHDU: Convergence failed at  24  side 2    Res =  0.4801E+02
 MRCHDU: Convergence failed at  25  side 2    Res =  0.3024E+03
 MRCHDU: Convergence failed at  26  side 2    Res =  0.9393E+02
 MRCHDU: Convergence failed at  27  side 2    Res =  0.5830E+02
 MRCHDU: Convergence failed at  28  side 2    Res =  0.1309E+03
 MRCHDU: Convergence failed at  29  side 2    Res =  0.1212E+03
 MRCHDU: Convergence failed at  30  side 2    Res =  0.9316E+02
 MRCHDU: Convergence failed at  31  side 2    Res =  0.9094E+02
 MRCHDU: Convergence failed at  32  side 2    Res =  0.9014E+02
 MRCHDU: Convergence failed at  33  side 2    Res =  0.9021E+02
 MRCHDU: Convergence failed at  34  side 2    Res =  0.9103E+02
 MRCHDU: Convergence failed at  35  side 2    Res =  0.9234E+02
 MRCHDU: Convergence failed at  36  side 2    Res =  0.9395E+02
 MRCHDU: Convergence failed at  37  side 2    Res =  0.9379E+02
 MRCHDU: Convergence failed at  38  side 2    Res =  0.9397E+02
 MRCHDU: Convergence failed at  39  side 2    Res =  0.9467E+02
 MRCHDU: Convergence failed at  40  side 2    Res =  0.9534E+02
 MRCHDU: Convergence failed at  41  side 2    Res =  0.9605E+02
 MRCHDU: Convergence failed at  42  side 2    Res =  0.9706E+02
 MRCHDU: Convergence failed at  43  side 2    Res =  0.9807E+02
 MRCHDU: Convergence failed at  44  side 2    Res =  0.9940E+02
 MRCHDU: Convergence failed at  45  side 2    Res =  0.1005E+03
 MRCHDU: Convergence failed at  46  side 2    Res =  0.1016E+03
 MRCHDU: Convergence failed at  47  side 2    Res =  0.1024E+03
 MRCHDU: Convergence failed at  48  side 2    Res =  0.1036E+03
 MRCHDU: Convergence failed at  49  side 2    Res =  0.1044E+03
 MRCHDU: Convergence failed at  50  side 2    Res =  0.1053E+03
 MRCHDU: Convergence failed at  51  side 2    Res =  0.1065E+03
 MRCHDU: Convergence failed at  52  side 2    Res =  0.1076E+03
 MRCHDU: Convergence failed at  53  side 2    Res =  0.1089E+03
 MRCHDU: Convergence failed at  54  side 2    Res =  0.1104E+03
 MRCHDU: Convergence failed at  55  side 2    Res =  0.1121E+03
 MRCHDU: Convergence failed at  56  side 2    Res =  0.1140E+03
 MRCHDU: Convergence failed at  57  side 2    Res =  0.1153E+03
 MRCHDU: Convergence failed at  58  side 2    Res =  0.1175E+03
 MRCHDU: Convergence failed at  59  side 2    Res =  0.1195E+03
 MRCHDU: Convergence failed at  60  side 2    Res =  0.1205E+03
 MRCHDU: Convergence failed at  61  side 2    Res =  0.1223E+03
 MRCHDU: Convergence failed at  62  side 2    Res =  0.1243E+03
 MRCHDU: Convergence failed at  63  side 2    Res =  0.1261E+03
 MRCHDU: Convergence failed at  64  side 2    Res =  0.1277E+03
 MRCHDU: Convergence failed at  65  side 2    Res =  0.1302E+03
 MRCHDU: Convergence failed at  66  side 2    Res =  0.1323E+03
 MRCHDU: Convergence failed at  67  side 2    Res =  0.1347E+03
 MRCHDU: Convergence failed at  68  side 2    Res =  0.1381E+03
 MRCHDU: Convergence failed at  69  side 2    Res =  0.1428E+03
 MRCHDU: Convergence failed at  70  side 2    Res =  0.1530E+03
 MRCHDU: Convergence failed at  71  side 2    Res =  0.1616E+03
 MRCHDU: Convergence failed at  72  side 2    Res =  0.1694E+03
 MRCHDU: Convergence failed at  73  side 2    Res =  0.1736E+03
 MRCHDU: Convergence failed at  74  side 2    Res =  0.1779E+03
 MRCHDU: Convergence failed at  75  side 2    Res =  0.1845E+03
 MRCHDU: Convergence failed at  76  side 2    Res =  0.1951E+03
 MRCHDU: Convergence failed at  77  side 2    Res =  0.2075E+03
 MRCHDU: Convergence failed at  78  side 2    Res =  0.2234E+03
 MRCHDU: Convergence failed at  79  side 2    Res =  0.2485E+03
 MRCHDU: Convergence failed at  80  side 2    Res =  0.2814E+03
 MRCHDU: Convergence failed at  81  side 2    Res =  0.7931E+03
 MRCHDU: Convergence failed at  82  side 2    Res =  0.1007E+04
 MRCHDU: Convergence failed at  83  side 2    Res =  0.1577E+04
 Side 1  free  transition at x/c =  0.7046   56
 Side 2  free  transition at x/c =  0.0786   17

   6   rms: 0.1948E+01   max: -.3084E+02   T at   17  2   RLX: 0.016
       a = -3.000      CL = -0.8235
      Cm =  0.2027     CD =  0.00663   =>   CDf =  0.00321    CDp =  0.00341

 Side 1  free  transition at x/c =  0.7045   56
 Side 2  free  transition at x/c =  0.0799   17

   7   rms: 0.4030E+01   max: 0.7747E+02   T at   17  2   RLX: 0.019
       a = -3.000      CL = -0.6547
      Cm =  0.1386     CD =  0.05611   =>   CDf =  0.00359    CDp =  0.05252

 Side 1  free  transition at x/c =  0.7144   57
 Side 2  free  transition at x/c =  0.0637   15

   8   rms: 0.2991E+01   max: -.3195E+02   T at   16  2   RLX: 0.016
       a = -3.000      CL = -0.6796
      Cm =  0.1444     CD =  0.06083   =>   CDf =  0.00359    CDp =  0.05724

 Side 1  free  transition at x/c =  0.7204   57
 Side 2  free  transition at x/c =  0.0575   15

   9   rms: 0.3556E+01   max: 0.7521E+02   T at   15  2   RLX: 0.020
       a = -3.000      CL = -0.6766
      Cm =  0.1391     CD =  0.06250   =>   CDf =  0.00358    CDp =  0.05892

 Side 1  free  transition at x/c =  0.7285   58
 Side 2  free  transition at x/c =  0.0471   14
 idif Ue xi dudx           1  0.29397345      2.08282471E-03   141.14171    
 Uenew xinew           2  3.07231862E-02  2.17676163E-04

  10   rms: 0.1774E+01   max: 0.2318E+02   T at   14  2   RLX: 0.065
[...]
 MRCHDU: Convergence failed at  80  side 1    Res =  0.1887E+00
 MRCHDU: Convergence failed at  81  side 1    Res =  0.1896E+00
 Side 1  free  transition at x/c =  0.0442   16
 Side 2 forced transition at x/c =  1.0000   76

  62   rms: 0.7114E+04   max: -.5580E+05   C at   86  1   RLX: 0.000
       a =  5.500      CL =  1.9334
      Cm = -0.4429     CD =  0.10516   =>   CDf =  0.00272    CDp =  0.10244

 MRCHDU: Convergence failed at  17  side 1    Res =  0.2889E-01
 MRCHDU: Convergence failed at  18  side 1    Res =  0.8087E-01
 MRCHDU: Convergence failed at  19  side 1    Res =  0.2823E-01
 MRCHDU: Convergence failed at  20  side 1    Res =  0.2039E-01
 MRCHDU: Convergence failed at  21  side 1    Res =  0.1767E-01
 MRCHDU: Convergence failed at  22  side 1    Res =  0.1952E-01
 MRCHDU: Convergence failed at  23  side 1    Res =  0.2506E-01
 MRCHDU: Convergence failed at  24  side 1    Res =  0.3245E-01
 MRCHDU: Convergence failed at  25  side 1    Res =  0.4719E-01
 MRCHDU: Convergence failed at  26  side 1    Res =  0.7519E-02
 MRCHDU: Convergence failed at  27  side 1    Res =  0.8200E-02
 MRCHDU: Convergence failed at  68  side 1    Res =  0.9128E-01
 MRCHDU: Convergence failed at  69  side 1    Res =  0.2204E+00
 MRCHDU: Convergence failed at  70  side 1    Res =  0.2188E+00
 MRCHDU: Convergence failed at  71  side 1    Res =  0.2139E+00
 MRCHDU: Convergence failed at  72  side 1    Res =  0.2089E+00
 MRCHDU: Convergence failed at  73  side 1    Res =  0.2047E+00
 MRCHDU: Convergence failed at  74  side 1    Res =  0.2017E+00
 MRCHDU: Convergence failed at  75  side 1    Res =  0.2004E+00
 MRCHDU: Convergence failed at  76  side 1    Res =  0.2016E+00
 MRCHDU: Convergence failed at  77  side 1    Res =  0.2046E+00
 MRCHDU: Convergence failed at  78  side 1    Res =  0.1974E+00
 MRCHDU: Convergence failed at  79  side 1    Res =  0.1901E+00
 MRCHDU: Convergence failed at  80  side 1    Res =  0.1909E+00
 MRCHDU: Convergence failed at  81  side 1    Res =  0.1918E+00
 Side 1  free  transition at x/c =  0.0442   16
 Side 2 forced transition at x/c =  1.0000   76

  63   rms: 0.6974E+04   max: -.5462E+05   C at   86  1   RLX: 0.000
       a =  5.500      CL =  1.9334
      Cm = -0.4429     CD =  0.10520   =>   CDf =  0.00272    CDp =  0.10249

 MRCHDU: Convergence failed at  17  side 1    Res =  0.2889E-01
 MRCHDU: Convergence failed at  18  side 1    Res =  0.8087E-01
 MRCHDU: Convergence failed at  19  side 1    Res =  0.2823E-01
 MRCHDU: Convergence failed at  20  side 1    Res =  0.2039E-01
 MRCHDU: Convergence failed at  21  side 1    Res =  0.1767E-01
 MRCHDU: Convergence failed at  22  side 1    Res =  0.1952E-01
 MRCHDU: Convergence failed at  23  side 1    Res =  0.2508E-01
 MRCHDU: Convergence failed at  24  side 1    Res =  0.3261E-01
 MRCHDU: Convergence failed at  25  side 1    Res =  0.4657E-01
 MRCHDU: Convergence failed at  26  side 1    Res =  0.7475E-02
 MRCHDU: Convergence failed at  27  side 1    Res =  0.8167E-02
 MRCHDU: Convergence failed at  68  side 1    Res =  0.1066E+00
 MRCHDU: Convergence failed at  69  side 1    Res =  0.1056E+00
 MRCHDU: Convergence failed at  70  side 1    Res =  0.1038E+00
 MRCHDU: Convergence failed at  71  side 1    Res =  0.9871E-01
 MRCHDU: Convergence failed at  72  side 1    Res =  0.2114E+00
 MRCHDU: Convergence failed at  73  side 1    Res =  0.2070E+00
 MRCHDU: Convergence failed at  74  side 1    Res =  0.2040E+00
 MRCHDU: Convergence failed at  75  side 1    Res =  0.2027E+00
 MRCHDU: Convergence failed at  76  side 1    Res =  0.2040E+00
 MRCHDU: Convergence failed at  77  side 1    Res =  0.2069E+00
 MRCHDU: Convergence failed at  78  side 1    Res =  0.1997E+00
 MRCHDU: Convergence failed at  79  side 1    Res =  0.1923E+00
 MRCHDU: Convergence failed at  80  side 1    Res =  0.1930E+00
 MRCHDU: Convergence failed at  81  side 1    Res =  0.1939E+00
 Side 1  free  transition at x/c =  0.0442   16
 Side 2 forced transition at x/c =  1.0000   76

  64   rms: 0.8343E+04   max: -.6437E+05   C at   86  1   RLX: 0.000
       a =  5.500      CL =  1.9334
      Cm = -0.4429     CD =  0.10528   =>   CDf =  0.00272    CDp =  0.10257

 MRCHDU: Convergence failed at  17  side 1    Res =  0.2889E-01
 MRCHDU: Convergence failed at  18  side 1    Res =  0.8088E-01
 MRCHDU: Convergence failed at  19  side 1    Res =  0.2823E-01
 MRCHDU: Convergence failed at  20  side 1    Res =  0.2039E-01
 MRCHDU: Convergence failed at  21  side 1    Res =  0.1767E-01
 MRCHDU: Convergence failed at  22  side 1    Res =  0.1953E-01
 MRCHDU: Convergence failed at  23  side 1    Res =  0.2509E-01
 MRCHDU: Convergence failed at  24  side 1    Res =  0.3273E-01
 MRCHDU: Convergence failed at  25  side 1    Res =  0.4654E-01
 MRCHDU: Convergence failed at  26  side 1    Res =  0.7436E-02
 MRCHDU: Convergence failed at  27  side 1    Res =  0.8120E-02
 MRCHDU: Convergence failed at  68  side 1    Res =  0.1364E+00
 MRCHDU: Convergence failed at  69  side 1    Res =  0.1353E+00
 MRCHDU: Convergence failed at  70  side 1    Res =  0.1335E+00
 MRCHDU: Convergence failed at  71  side 1    Res =  0.1139E+00
 MRCHDU: Convergence failed at  72  side 1    Res =  0.1085E+00
 MRCHDU: Convergence failed at  73  side 1    Res =  0.1039E+00
 MRCHDU: Convergence failed at  74  side 1    Res =  0.1007E+00
 MRCHDU: Convergence failed at  75  side 1    Res =  0.9938E-01
 MRCHDU: Convergence failed at  76  side 1    Res =  0.2060E+00
 MRCHDU: Convergence failed at  77  side 1    Res =  0.2090E+00
 MRCHDU: Convergence failed at  78  side 1    Res =  0.2017E+00
 MRCHDU: Convergence failed at  79  side 1    Res =  0.1942E+00
 MRCHDU: Convergence failed at  80  side 1    Res =  0.1950E+00
 MRCHDU: Convergence failed at  81  side 1    Res =  0.1959E+00
 Side 1  free  transition at x/c =  0.0442   16
 Side 2 forced transition at x/c =  1.0000   76

  65   rms: 0.7565E+04   max: -.5883E+05   C at   86  1   RLX: 0.000
       a =  5.500      CL =  1.9334
      Cm = -0.4429     CD =  0.10544   =>   CDf =  0.00272    CDp =  0.10272

 MRCHDU: Convergence failed at  17  side 1    Res =  0.2888E-01
 MRCHDU: Convergence failed at  18  side 1    Res =  0.8088E-01
 MRCHDU: Convergence failed at  19  side 1    Res =  0.2823E-01
 MRCHDU: Convergence failed at  20  side 1    Res =  0.2039E-01
 MRCHDU: Convergence failed at  21  side 1    Res =  0.1767E-01
 MRCHDU: Convergence failed at  22  side 1    Res =  0.1953E-01
 MRCHDU: Convergence failed at  23  side 1    Res =  0.2508E-01
 MRCHDU: Convergence failed at  24  side 1    Res =  0.3273E-01
 MRCHDU: Convergence failed at  25  side 1    Res =  0.4714E-01
 MRCHDU: Convergence failed at  26  side 1    Res =  0.7467E-02
 MRCHDU: Convergence failed at  27  side 1    Res =  0.8150E-02
 MRCHDU: Convergence failed at  68  side 1    Res =  0.1528E+00
 MRCHDU: Convergence failed at  69  side 1    Res =  0.1517E+00
 MRCHDU: Convergence failed at  70  side 1    Res =  0.1499E+00
 MRCHDU: Convergence failed at  71  side 1    Res =  0.1443E+00
 MRCHDU: Convergence failed at  72  side 1    Res =  0.1385E+00
 MRCHDU: Convergence failed at  73  side 1    Res =  0.1336E+00
 MRCHDU: Convergence failed at  74  side 1    Res =  0.1301E+00
 MRCHDU: Convergence failed at  75  side 1    Res =  0.1153E+00
 MRCHDU: Convergence failed at  76  side 1    Res =  0.1166E+00
 MRCHDU: Convergence failed at  77  side 1    Res =  0.1198E+00
 MRCHDU: Convergence failed at  78  side 1    Res =  0.1120E+00
 MRCHDU: Convergence failed at  79  side 1    Res =  0.1041E+00
 MRCHDU: Convergence failed at  80  side 1    Res =  0.1049E+00
 MRCHDU: Convergence failed at  81  side 1    Res =  0.1058E+00
 Side 1  free  transition at x/c =  0.0442   16
 Side 2 forced transition at x/c =  1.0000   76

  66   rms: 0.9197E+04   max: -.7275E+05   C at   86  1   RLX: 0.000
       a =  5.500      CL =  1.9334
      Cm = -0.4429     CD =  0.10623   =>   CDf =  0.00272    CDp =  0.10352

 MRCHDU: Convergence failed at  17  side 1    Res =  0.2888E-01
 MRCHDU: Convergence failed at  18  side 1    Res =  0.8088E-01
 MRCHDU: Convergence failed at  19  side 1    Res =  0.2823E-01
 MRCHDU: Convergence failed at  20  side 1    Res =  0.2039E-01
 MRCHDU: Convergence failed at  21  side 1    Res =  0.1767E-01
 MRCHDU: Convergence failed at  22  side 1    Res =  0.1953E-01
 MRCHDU: Convergence failed at  23  side 1    Res =  0.2508E-01
 MRCHDU: Convergence failed at  24  side 1    Res =  0.3272E-01
 MRCHDU: Convergence failed at  25  side 1    Res =  0.4709E-01
 MRCHDU: Convergence failed at  26  side 1    Res =  0.7448E-02
 MRCHDU: Convergence failed at  27  side 1    Res =  0.8125E-02
 MRCHDU: Convergence failed at  68  side 1    Res =  0.1672E+00
 MRCHDU: Convergence failed at  69  side 1    Res =  0.1661E+00
 MRCHDU: Convergence failed at  70  side 1    Res =  0.1642E+00
 MRCHDU: Convergence failed at  71  side 1    Res =  0.1585E+00
 MRCHDU: Convergence failed at  72  side 1    Res =  0.1527E+00
 MRCHDU: Convergence failed at  73  side 1    Res =  0.1477E+00
 MRCHDU: Convergence failed at  74  side 1    Res =  0.1442E+00
 MRCHDU: Convergence failed at  75  side 1    Res =  0.1427E+00
 MRCHDU: Convergence failed at  76  side 1    Res =  0.1441E+00
 MRCHDU: Convergence failed at  77  side 1    Res =  0.1475E+00
 MRCHDU: Convergence failed at  78  side 1    Res =  0.1392E+00
 MRCHDU: Convergence failed at  79  side 1    Res =  0.1307E+00
 MRCHDU: Convergence failed at  80  side 1    Res =  0.1315E+00
 MRCHDU: Convergence failed at  81  side 1    Res =  0.1325E+00
 Side 1  free  transition at x/c =  0.0442   16
 Side 2 forced transition at x/c =  1.0000   76

  67   rms: 0.8565E+04   max: -.6779E+05   C at   86  1   RLX: 0.000
       a =  5.500      CL =  1.9334
      Cm = -0.4429     CD =  0.10627   =>   CDf =  0.00272    CDp =  0.10355

 MRCHDU: Convergence failed at  17  side 1    Res =  0.2888E-01
 MRCHDU: Convergence failed at  18  side 1    Res =  0.8089E-01
 MRCHDU: Convergence failed at  19  side 1    Res =  0.2823E-01
 MRCHDU: Convergence failed at  20  side 1    Res =  0.2039E-01
 MRCHDU: Convergence failed at  21  side 1    Res =  0.1767E-01
 MRCHDU: Convergence failed at  22  side 1    Res =  0.1952E-01
 MRCHDU: Convergence failed at  23  side 1    Res =  0.2507E-01
 MRCHDU: Convergence failed at  24  side 1    Res =  0.3273E-01
 MRCHDU: Convergence failed at  25  side 1    Res =  0.4707E-01
 MRCHDU: Convergence failed at  26  side 1    Res =  0.7433E-02
 MRCHDU: Convergence failed at  27  side 1    Res =  0.8105E-02
 MRCHDU: Convergence failed at  68  side 1    Res =  0.1821E+00
 MRCHDU: Convergence failed at  69  side 1    Res =  0.1810E+00
 MRCHDU: Convergence failed at  70  side 1    Res =  0.1791E+00
 MRCHDU: Convergence failed at  71  side 1    Res =  0.1734E+00
 MRCHDU: Convergence failed at  72  side 1    Res =  0.1675E+00
 MRCHDU: Convergence failed at  73  side 1    Res =  0.1624E+00
 MRCHDU: Convergence failed at  74  side 1    Res =  0.1589E+00
 MRCHDU: Convergence failed at  75  side 1    Res =  0.1574E+00
 MRCHDU: Convergence failed at  76  side 1    Res =  0.1588E+00
 MRCHDU: Convergence failed at  77  side 1    Res =  0.1623E+00
 MRCHDU: Convergence failed at  78  side 1    Res =  0.1538E+00
 MRCHDU: Convergence failed at  79  side 1    Res =  0.1452E+00
 MRCHDU: Convergence failed at  80  side 1    Res =  0.1460E+00
 MRCHDU: Convergence failed at  81  side 1    Res =  0.1471E+00
 Side 1  free  transition at x/c =  0.0442   16
 Side 2 forced transition at x/c =  1.0000   76

  68   rms: 0.8700E+04   max: -.6876E+05   C at   86  1   RLX: 0.000
       a =  5.500      CL =  1.9334
      Cm = -0.4429     CD =  0.10628   =>   CDf =  0.00272    CDp =  0.10357

 MRCHDU: Convergence failed at  17  side 1    Res =  0.2888E-01
 MRCHDU: Convergence failed at  18  side 1    Res =  0.8089E-01
 MRCHDU: Convergence failed at  19  side 1    Res =  0.2823E-01
 MRCHDU: Convergence failed at  20  side 1    Res =  0.2039E-01
 MRCHDU: Convergence failed at  21  side 1    Res =  0.1767E-01
 MRCHDU: Convergence failed at  22  side 1    Res =  0.1953E-01
 MRCHDU: Convergence failed at  23  side 1    Res =  0.2507E-01
 MRCHDU: Convergence failed at  24  side 1    Res =  0.3280E-01
 MRCHDU: Convergence failed at  25  side 1    Res =  0.4702E-01
 MRCHDU: Convergence failed at  26  side 1    Res =  0.7410E-02
 MRCHDU: Convergence failed at  27  side 1    Res =  0.8078E-02
 MRCHDU: Convergence failed at  68  side 1    Res =  0.1961E+00
 MRCHDU: Convergence failed at  69  side 1    Res =  0.1950E+00
 MRCHDU: Convergence failed at  70  side 1    Res =  0.1930E+00
 MRCHDU: Convergence failed at  71  side 1    Res =  0.1873E+00
 MRCHDU: Convergence failed at  72  side 1    Res =  0.1813E+00
 MRCHDU: Convergence failed at  73  side 1    Res =  0.1762E+00
 MRCHDU: Convergence failed at  74  side 1    Res =  0.1726E+00
 MRCHDU: Convergence failed at  75  side 1    Res =  0.1711E+00
 MRCHDU: Convergence failed at  76  side 1    Res =  0.1725E+00
 MRCHDU: Convergence failed at  77  side 1    Res =  0.1760E+00
 MRCHDU: Convergence failed at  78  side 1    Res =  0.1675E+00
 MRCHDU: Convergence failed at  79  side 1    Res =  0.1587E+00
 MRCHDU: Convergence failed at  80  side 1    Res =  0.1596E+00
 MRCHDU: Convergence failed at  81  side 1    Res =  0.1607E+00
 Side 1  free  transition at x/c =  0.0442   16
 Side 2 forced transition at x/c =  1.0000   76

  69   rms: 0.9401E+04   max: -.7415E+05   C at   86  1   RLX: 0.000
       a =  5.500      CL =  1.9334
      Cm = -0.4429     CD =  0.10631   =>   CDf =  0.00272    CDp =  0.10360

 MRCHDU: Convergence failed at  17  side 1    Res =  0.2888E-01
 MRCHDU: Convergence failed at  18  side 1    Res =  0.8089E-01
 MRCHDU: Convergence failed at  19  side 1    Res =  0.2823E-01
 MRCHDU: Convergence failed at  20  side 1    Res =  0.2039E-01
 MRCHDU: Convergence failed at  21  side 1    Res =  0.1767E-01
 MRCHDU: Convergence failed at  22  side 1    Res =  0.1952E-01
 MRCHDU: Convergence failed at  23  side 1    Res =  0.2507E-01
 MRCHDU: Convergence failed at  24  side 1    Res =  0.3278E-01
 MRCHDU: Convergence failed at  25  side 1    Res =  0.4669E-01
 MRCHDU: Convergence failed at  26  side 1    Res =  0.7389E-02
 MRCHDU: Convergence failed at  27  side 1    Res =  0.8059E-02
 MRCHDU: Convergence failed at  68  side 1    Res =  0.2116E+00
 MRCHDU: Convergence failed at  69  side 1    Res =  0.2105E+00
 MRCHDU: Convergence failed at  70  side 1    Res =  0.2086E+00
 MRCHDU: Convergence failed at  71  side 1    Res =  0.2028E+00
 MRCHDU: Convergence failed at  72  side 1    Res =  0.1967E+00
 MRCHDU: Convergence failed at  73  side 1    Res =  0.1915E+00
 MRCHDU: Convergence failed at  74  side 1    Res =  0.1879E+00
 MRCHDU: Convergence failed at  75  side 1    Res =  0.1864E+00
 MRCHDU: Convergence failed at  76  side 1    Res =  0.1878E+00
 MRCHDU: Convergence failed at  77  side 1    Res =  0.1913E+00
 MRCHDU: Convergence failed at  78  side 1    Res =  0.1827E+00
 MRCHDU: Convergence failed at  79  side 1    Res =  0.1739E+00
 MRCHDU: Convergence failed at  80  side 1    Res =  0.1747E+00
 MRCHDU: Convergence failed at  81  side 1    Res =  0.1758E+00
 Side 1  free  transition at x/c =  0.0442   16
 Side 2 forced transition at x/c =  1.0000   76

  70   rms: 0.9084E+04   max: -.7133E+05   C at   86  1   RLX: 0.000
       a =  5.500      CL =  1.9335
      Cm = -0.4429     CD =  0.10630   =>   CDf =  0.00272    CDp =  0.10359

 MRCHDU: Convergence failed at  17  side 1    Res =  0.2887E-01
 MRCHDU: Convergence failed at  18  side 1    Res =  0.8090E-01
 MRCHDU: Convergence failed at  19  side 1    Res =  0.2823E-01
 MRCHDU: Convergence failed at  20  side 1    Res =  0.2039E-01
 MRCHDU: Convergence failed at  21  side 1    Res =  0.1767E-01
 MRCHDU: Convergence failed at  22  side 1    Res =  0.1953E-01
 MRCHDU: Convergence failed at  23  side 1    Res =  0.2507E-01
 MRCHDU: Convergence failed at  24  side 1    Res =  0.3280E-01
 MRCHDU: Convergence failed at  25  side 1    Res =  0.4679E-01
 MRCHDU: Convergence failed at  26  side 1    Res =  0.7391E-02
 MRCHDU: Convergence failed at  27  side 1    Res =  0.8060E-02
 MRCHDU: Convergence failed at  68  side 1    Res =  0.2270E+00
 MRCHDU: Convergence failed at  69  side 1    Res =  0.2258E+00
 MRCHDU: Convergence failed at  70  side 1    Res =  0.2238E+00
 MRCHDU: Convergence failed at  71  side 1    Res =  0.2179E+00
 MRCHDU: Convergence failed at  72  side 1    Res =  0.2117E+00
 MRCHDU: Convergence failed at  73  side 1    Res =  0.2065E+00
 MRCHDU: Convergence failed at  74  side 1    Res =  0.2028E+00
 MRCHDU: Convergence failed at  75  side 1    Res =  0.2013E+00
 MRCHDU: Convergence failed at  76  side 1    Res =  0.2028E+00
 MRCHDU: Convergence failed at  77  side 1    Res =  0.2063E+00
 MRCHDU: Convergence failed at  78  side 1    Res =  0.1976E+00
 MRCHDU: Convergence failed at  79  side 1    Res =  0.1886E+00
 MRCHDU: Convergence failed at  80  side 1    Res =  0.1895E+00
 MRCHDU: Convergence failed at  81  side 1    Res =  0.1906E+00
 Side 1  free  transition at x/c =  0.0442   16
 Side 2 forced transition at x/c =  1.0000   76

  71   rms: 0.8584E+04   max: -.6730E+05   C at   86  1   RLX: 0.000
       a =  5.500      CL =  1.9335
      Cm = -0.4429     CD =  0.10633   =>   CDf =  0.00272    CDp =  0.10361

 MRCHDU: Convergence failed at  17  side 1    Res =  0.2887E-01
 MRCHDU: Convergence failed at  18  side 1    Res =  0.8090E-01
 MRCHDU: Convergence failed at  19  side 1    Res =  0.2823E-01
 MRCHDU: Convergence failed at  20  side 1    Res =  0.2039E-01
 MRCHDU: Convergence failed at  21  side 1    Res =  0.1767E-01
 MRCHDU: Convergence failed at  22  side 1    Res =  0.1953E-01
 MRCHDU: Convergence failed at  23  side 1    Res =  0.2509E-01
 MRCHDU: Convergence failed at  24  side 1    Res =  0.3287E-01
 MRCHDU: Convergence failed at  25  side 1    Res =  0.4706E-01
 MRCHDU: Convergence failed at  26  side 1    Res =  0.7393E-02
 MRCHDU: Convergence failed at  27  side 1    Res =  0.8058E-02
 MRCHDU: Convergence failed at  68  side 1    Res =  0.2424E+00
 MRCHDU: Convergence failed at  69  side 1    Res =  0.2412E+00
 MRCHDU: Convergence failed at  70  side 1    Res =  0.2392E+00
 MRCHDU: Convergence failed at  71  side 1    Res =  0.2332E+00
 MRCHDU: Convergence failed at  72  side 1    Res =  0.2270E+00
 MRCHDU: Convergence failed at  73  side 1    Res =  0.2217E+00
 MRCHDU: Convergence failed at  74  side 1    Res =  0.2180E+00
 MRCHDU: Convergence failed at  75  side 1    Res =  0.2165E+00
 MRCHDU: Convergence failed at  76  side 1    Res =  0.2179E+00
 MRCHDU: Convergence failed at  77  side 1    Res =  0.2215E+00
 MRCHDU: Convergence failed at  78  side 1    Res =  0.2127E+00
 MRCHDU: Convergence failed at  79  side 1    Res =  0.2037E+00
 MRCHDU: Convergence failed at  80  side 1    Res =  0.2045E+00
 MRCHDU: Convergence failed at  81  side 1    Res =  0.2056E+00
 Side 1  free  transition at x/c =  0.0442   16
 Side 2 forced transition at x/c =  1.0000   76

  72   rms: 0.8789E+04   max: -.6897E+05   C at   86  1   RLX: 0.000
       a =  5.500      CL =  1.9335
      Cm = -0.4429     CD =  0.10637   =>   CDf =  0.00272    CDp =  0.10366

 MRCHDU: Convergence failed at  17  side 1    Res =  0.2887E-01
 MRCHDU: Convergence failed at  18  side 1    Res =  0.8091E-01
 MRCHDU: Convergence failed at  19  side 1    Res =  0.2823E-01
 MRCHDU: Convergence failed at  20  side 1    Res =  0.2039E-01
 MRCHDU: Convergence failed at  21  side 1    Res =  0.1767E-01
 MRCHDU: Convergence failed at  22  side 1    Res =  0.1953E-01
 MRCHDU: Convergence failed at  23  side 1    Res =  0.2508E-01
 MRCHDU: Convergence failed at  24  side 1    Res =  0.3274E-01
 MRCHDU: Convergence failed at  25  side 1    Res =  0.4698E-01
 MRCHDU: Convergence failed at  26  side 1    Res =  0.7395E-02
 MRCHDU: Convergence failed at  27  side 1    Res =  0.8056E-02
 MRCHDU: Convergence failed at  68  side 1    Res =  0.2577E+00

[TIMEOUT]
