  
       XFOIL         Version 6.99
  
 Calculated polar for: GOE 548 AIRFOIL                                 
  
 1 1 Reynolds number fixed          Mach number fixed         
  
 xtrf =   1.000 (top)        1.000 (bottom)  
 Mach =   0.000     Re =     0.200 e 6     Ncrit =   9.000
  
   alpha    CL        CD       CDp       CM     Top_Xtr  Bot_Xtr
  ------ -------- --------- --------- -------- -------- --------
  -4.000  -0.2999   0.01739   0.00958  -0.0447   0.9334   0.1053
  -3.500  -0.2387   0.01533   0.00860  -0.0469   0.9251   0.3241
  -3.000  -0.1836   0.01445   0.00822  -0.0469   0.9125   0.4848
  -2.500  -0.1278   0.01391   0.00797  -0.0468   0.9011   0.6007
  -2.000  -0.0559   0.01319   0.00763  -0.0493   0.8961   0.7227
  -1.500   0.0009   0.01290   0.00760  -0.0486   0.8850   0.8263
  -1.000   0.1040   0.01270   0.00743  -0.0573   0.8830   0.9070
  -0.500   0.2192   0.01258   0.00718  -0.0691   0.8813   0.9376
   0.000   0.3238   0.01274   0.00727  -0.0790   0.8726   0.9637
   0.500   0.4362   0.01238   0.00685  -0.0907   0.8676   0.9774
   1.000   0.5352   0.01186   0.00633  -0.0998   0.8528   0.9925
   1.500   0.6056   0.01111   0.00555  -0.1028   0.8263   1.0000
   2.000   0.6420   0.01080   0.00522  -0.0990   0.7994   1.0000
   2.500   0.6854   0.01060   0.00497  -0.0965   0.7726   1.0000
   3.000   0.7321   0.01058   0.00488  -0.0945   0.7433   1.0000
   3.500   0.7762   0.01078   0.00502  -0.0920   0.7129   1.0000
   4.000   0.8054   0.01101   0.00519  -0.0862   0.6625   1.0000
   4.500   0.8337   0.01123   0.00537  -0.0802   0.6100   1.0000
   5.000   0.8512   0.01182   0.00554  -0.0721   0.5158   1.0000
   5.500   0.8621   0.01292   0.00609  -0.0630   0.4012   1.0000
   6.000   0.8528   0.01507   0.00715  -0.0510   0.2112   1.0000
   6.500   0.8563   0.01704   0.00835  -0.0417   0.0914   1.0000
   7.000   0.8693   0.01881   0.00979  -0.0341   0.0351   1.0000
   7.500   0.8894   0.02048   0.01165  -0.0279   0.0297   1.0000
   8.000   0.9065   0.02240   0.01378  -0.0217   0.0270   1.0000
   8.500   0.9227   0.02465   0.01621  -0.0158   0.0257   1.0000
   9.000   0.9454   0.02731   0.01900  -0.0110   0.0249   1.0000
   9.500   0.9828   0.03021   0.02208  -0.0085   0.0235   1.0000
  10.000   1.0420   0.03444   0.02669  -0.0086   0.0241   1.0000
  10.000   1.0420   0.03444   0.02669  -0.0086   0.0241   1.0000
  10.250   1.0715   0.03731   0.02987  -0.0088   0.0257   1.0000
  10.500   1.1244   0.04244   0.03525  -0.0131   0.0293   1.0000
