  
       XFOIL         Version 6.99
  
 Calculated polar for: GOE 526 AIRFOIL                                 
  
 1 1 Reynolds number fixed          Mach number fixed         
  
 xtrf =   1.000 (top)        1.000 (bottom)  
 Mach =   0.000     Re =     0.500 e 6     Ncrit =   9.000
  
   alpha    CL        CD       CDp       CM     Top_Xtr  Bot_Xtr
  ------ -------- --------- --------- -------- -------- --------
  16.250   1.4445   0.05643   0.05058  -0.0042   0.0532   1.0000
  16.500   1.4420   0.05952   0.05372  -0.0042   0.0521   1.0000
  16.750   1.4377   0.06285   0.05711  -0.0043   0.0508   1.0000
  17.000   1.4408   0.06544   0.05981  -0.0045   0.0497   1.0000
  17.250   1.4415   0.06833   0.06280  -0.0048   0.0487   1.0000
  17.500   1.4415   0.07139   0.06594  -0.0052   0.0476   1.0000
  17.750   1.4400   0.07468   0.06929  -0.0058   0.0465   1.0000
  18.000   1.4353   0.07836   0.07302  -0.0065   0.0455   1.0000
  18.250   1.4284   0.08226   0.07694  -0.0071   0.0444   1.0000
  18.750   1.4268   0.08896   0.08388  -0.0088   0.0426   1.0000
  19.250   1.4205   0.09634   0.09142  -0.0109   0.0407   1.0000
  19.750   1.4090   0.10436   0.09951  -0.0133   0.0388   1.0000
  20.250   1.4019   0.11212   0.10749  -0.0160   0.0372   1.0000
  20.750   1.3929   0.12031   0.11585  -0.0193   0.0354   1.0000
  21.250   1.3832   0.12849   0.12409  -0.0228   0.0337   1.0000
  21.750   1.3733   0.13717   0.13300  -0.0270   0.0320   1.0000
  22.250   1.3643   0.14572   0.14169  -0.0315   0.0304   1.0000
