
 ===================================================
  XFOIL Version 6.99
  Copyright (C) 2000   Mark Drela, Harold Youngren

  This software comes with ABSOLUTELY NO WARRANTY,
    subject to the GNU General Public License.

  Caveat computor
 ===================================================

 File  xfoil.def  not found

   QUIT    Exit program

  .OPER    Direct operating point(s)
  .MDES    Complex mapping design routine
  .QDES    Surface speed design routine
  .GDES    Geometry design routine

   SAVE f  Write airfoil to labeled coordinate file
   PSAV f  Write airfoil to plain coordinate file
   ISAV f  Write airfoil to ISES coordinate file
   MSAV f  Write airfoil to MSES coordinate file
   REVE    Reverse written-airfoil node ordering

   LOAD f  Read buffer airfoil from coordinate file
   NACA i  Set NACA 4,5-digit airfoil and buffer airfoil
   INTE    Set buffer airfoil by interpolating two airfoils
   NORM    Buffer airfoil normalization toggle
   XYCM rr Change CM reference location, currently  0.25000 0.00000

   BEND    Display structural properties of current airfoil

   PCOP    Set current-airfoil panel nodes directly from buffer airfoil points
   PANE    Set current-airfoil panel nodes ( 160 ) based on curvature
  .PPAR    Show/change paneling

  .PLOP    Plotting options

   WDEF f  Write  current-settings file
   RDEF f  Reread current-settings file
   NAME s  Specify new airfoil name
   NINC    Increment name version number

   Z       Zoom    | (available in all menus)
   U       Unzoom  | 

 XFOIL   c>  
 Labeled airfoil file.  Name:  GOE 507 AIRFOIL                                 

 Number of input coordinate points:  25
 Counterclockwise ordering
 Max thickness =     0.086503  at x =   0.300
 Max camber    =     0.028624  at x =   0.400

  LE  x,y  =  -0.00006   0.00096  |   Chord =   1.00006
  TE  x,y  =   1.00000   0.00000  |

 Current airfoil nodes set from buffer airfoil nodes (  25 )

 WARNING: Poor input coordinate distribution
          Excessive panel angle   79.5  at i =  13
          Repaneling with PANE and/or PPAR suggested
           (doing GDES,CADD before repaneling _may_
            improve excessively coarse LE spacing

 XFOIL   c>  
 XFOIL   c>  
 Sharp trailing edge

 Paneling parameters used...
   Number of panel nodes       160
   Panel bunching parameter    1.000
   TE/LE panel density ratio   0.150
   Refined-area/LE panel density ratio    0.200
   Top    side refined area x/c limits  1.000 1.000
   Bottom side refined area x/c limits  1.000 1.000

 XFOIL   c>  
.OPERi   c>  
 Xtr/c     =  1.0000    top    side
 Xtr/c     =  1.0000    bottom side
 Ncrit     =    9.00   ( 0.070 % turb. level )
 Vacc      =  0.0100

 Klag  =  5.6000     Uxwt  =    1.00
 A     =  6.7000     B     =  0.7500       KCt = 0.01485
 CtiniK=  1.8000     CtiniX=  3.3000

..VPAR   c>  
..VPAR   c>  
.OPERi   c>  
 M  =    0.0000
 Re =    500000

.OPERv   c>  
.OPERv   c>  
.OPERv   c>  
 Polar  1 newly created for accumulation
 Airfoil archived with polar: GOE 507 AIRFOIL                                 

Enter  polar save filename  OR  <return> for no file   s>  
 New polar save file available

Enter  polar dump filename  OR  <return> for no file   s>  
 Polar dump file will NOT be written

 Polar accumulation enabled

.OPERva   c>   Calculating unit vorticity distributions ...
 Calculating wake trajectory ...
 Calculating source influence matrix ...

 Solving BL system ...

 Initializing BL ...
    side            1  ...
 MRCHUE: Inverse mode at  55     Hk =   4.095
 MRCHUE: Inverse mode at  56     Hk =   4.679
 MRCHUE: Inverse mode at  57     Hk =   5.251
 MRCHUE: Inverse mode at  58     Hk =   5.816
 MRCHUE: Inverse mode at  59     Hk =   6.377
 MRCHUE: Inverse mode at  60     Hk =   6.938
 MRCHUE: Inverse mode at  61     Hk =   7.499
 MRCHUE: Inverse mode at  62     Hk =   8.048
 MRCHUE: Inverse mode at  63     Hk =   8.585
 MRCHUE: Inverse mode at  64     Hk =   9.116
 MRCHUE: Inverse mode at  65     Hk =   6.851
 MRCHUE: Inverse mode at  66     Hk =   5.167
 MRCHUE: Inverse mode at  67     Hk =   4.035
 MRCHUE: Inverse mode at  68     Hk =   3.224
    side            2  ...
 MRCHUE: Inverse mode at  23     Hk =   4.918
 MRCHUE: Convergence failed at  24  side 2    Res =  0.3612E+01
 MRCHUE: Inverse mode at  25     Hk =   6.854
 MRCHUE: Inverse mode at  26     Hk =   8.608
 MRCHUE: Inverse mode at  27     Hk =   2.500
 MRCHUE: Inverse mode at  87     Hk =   2.500

 MRCHDU: Convergence failed at  27  side 2    Res =  0.2788E+01
 MRCHDU: Convergence failed at  28  side 2    Res =  0.7346E+01
 MRCHDU: Convergence failed at  29  side 2    Res =  0.5460E+01
 MRCHDU: Convergence failed at  30  side 2    Res =  0.1265E+02
 MRCHDU: Convergence failed at  31  side 2    Res =  0.2974E+02
 MRCHDU: Convergence failed at  32  side 2    Res =  0.7341E+03
 MRCHDU: Convergence failed at  33  side 2    Res =  0.4650E+02
 MRCHDU: Convergence failed at  34  side 2    Res =  0.2448E+02
 MRCHDU: Convergence failed at  35  side 2    Res =  0.1845E+02
 MRCHDU: Convergence failed at  36  side 2    Res =  0.1500E+02
 MRCHDU: Convergence failed at  37  side 2    Res =  0.1631E+02
 MRCHDU: Convergence failed at  38  side 2    Res =  0.1681E+02
 MRCHDU: Convergence failed at  39  side 2    Res =  0.1703E+02
 MRCHDU: Convergence failed at  40  side 2    Res =  0.1722E+02
 MRCHDU: Convergence failed at  41  side 2    Res =  0.1749E+02
 MRCHDU: Convergence failed at  42  side 2    Res =  0.3117E+02
 MRCHDU: Convergence failed at  43  side 2    Res =  0.3271E+02
 MRCHDU: Convergence failed at  44  side 2    Res =  0.3422E+02
 MRCHDU: Convergence failed at  45  side 2    Res =  0.3586E+02
 MRCHDU: Convergence failed at  46  side 2    Res =  0.3763E+02
 MRCHDU: Convergence failed at  47  side 2    Res =  0.3941E+02
 MRCHDU: Convergence failed at  48  side 2    Res =  0.4120E+02
 MRCHDU: Convergence failed at  49  side 2    Res =  0.4301E+02
 MRCHDU: Convergence failed at  50  side 2    Res =  0.4552E+02
 MRCHDU: Convergence failed at  51  side 2    Res =  0.4697E+02
 MRCHDU: Convergence failed at  52  side 2    Res =  0.4878E+02
 MRCHDU: Convergence failed at  53  side 2    Res =  0.2123E+02
 MRCHDU: Convergence failed at  54  side 2    Res =  0.2286E+02
 MRCHDU: Convergence failed at  55  side 2    Res =  0.2270E+02
 MRCHDU: Convergence failed at  56  side 2    Res =  0.2267E+02
 MRCHDU: Convergence failed at  57  side 2    Res =  0.2251E+02
 MRCHDU: Convergence failed at  58  side 2    Res =  0.2188E+02
 MRCHDU: Convergence failed at  59  side 2    Res =  0.2191E+02
 MRCHDU: Convergence failed at  60  side 2    Res =  0.2210E+02
 MRCHDU: Convergence failed at  61  side 2    Res =  0.2248E+02
 MRCHDU: Convergence failed at  62  side 2    Res =  0.2291E+02
 MRCHDU: Convergence failed at  63  side 2    Res =  0.2334E+02
 MRCHDU: Convergence failed at  64  side 2    Res =  0.2374E+02
 MRCHDU: Convergence failed at  65  side 2    Res =  0.2416E+02
 MRCHDU: Convergence failed at  66  side 2    Res =  0.2437E+02
 MRCHDU: Convergence failed at  67  side 2    Res =  0.2447E+02
 MRCHDU: Convergence failed at  68  side 2    Res =  0.2448E+02
 MRCHDU: Convergence failed at  69  side 2    Res =  0.2461E+02
 MRCHDU: Convergence failed at  70  side 2    Res =  0.2474E+02
 MRCHDU: Convergence failed at  71  side 2    Res =  0.2516E+02
 MRCHDU: Convergence failed at  72  side 2    Res =  0.2560E+02
 MRCHDU: Convergence failed at  73  side 2    Res =  0.2634E+02
 MRCHDU: Convergence failed at  74  side 2    Res =  0.2532E+02
 MRCHDU: Convergence failed at  75  side 2    Res =  0.2525E+02
 MRCHDU: Convergence failed at  76  side 2    Res =  0.2570E+02
 MRCHDU: Convergence failed at  77  side 2    Res =  0.2747E+02
 MRCHDU: Convergence failed at  78  side 2    Res =  0.3532E+02
 MRCHDU: Convergence failed at  79  side 2    Res =  0.9186E+02
 MRCHDU: Convergence failed at  80  side 2    Res =  0.1012E+03
 MRCHDU: Convergence failed at  81  side 2    Res =  0.5919E+02
 MRCHDU: Convergence failed at  82  side 2    Res =  0.5822E+02
 MRCHDU: Convergence failed at  83  side 2    Res =  0.7428E+02
 MRCHDU: Convergence failed at  84  side 2    Res =  0.1369E+03
 MRCHDU: Convergence failed at  85  side 2    Res =  0.6596E+03
 MRCHDU: Convergence failed at  86  side 2    Res =  0.3812E+02
 MRCHDU: Convergence failed at  87  side 2    Res =  0.1676E+03
 Side 1  free  transition at x/c =  0.8715   65
 Side 2  free  transition at x/c =  0.0817   27

   1   rms: 0.1112E+01   max: 0.3838E+01   T at   27  2   RLX: 0.328
       a = -4.000      CL = -0.8762
      Cm =  0.1734     CD =  0.00508   =>   CDf =  0.00241    CDp =  0.00267

 MRCHDU: Convergence failed at  37  side 2    Res =  0.3356E-02
 Side 1  free  transition at x/c =  0.8828   65
 Side 2  free  transition at x/c =  0.0733   26

   2   rms: 0.4757E+00   max: -.2443E+01   T at   65  1   RLX: 0.205
       a = -4.000      CL = -0.4789
      Cm =  0.0468     CD =  0.01986   =>   CDf =  0.00453    CDp =  0.01533

 MRCHDU: Convergence failed at  69  side 1    Res =  0.1098E+01
 MRCHDU: Convergence failed at  36  side 2    Res =  0.5567E-01
 MRCHDU: Convergence failed at  57  side 2    Res =  0.5574E-01
 Side 1  free  transition at x/c =  0.8989   67
 Side 2  free  transition at x/c =  0.0719   25

   3   rms: 0.4496E+00   max: -.1588E+01   D at    2  1   RLX: 0.315
       a = -4.000      CL = -0.2865
      Cm = -0.0116     CD =  0.01774   =>   CDf =  0.00443    CDp =  0.01331

 MRCHDU: Convergence failed at  36  side 2    Res =  0.4616E-01
 MRCHDU: Convergence failed at  57  side 2    Res =  0.1247E+00
 MRCHDU: Convergence failed at  58  side 2    Res =  0.3145E+00
 Side 1  free  transition at x/c =  0.9169   69
 Side 2  free  transition at x/c =  0.0710   25

   4   rms: 0.1296E+01   max: -.9484E+01   D at   32  2   RLX: 0.053
       a = -4.000      CL = -0.2490
      Cm = -0.0253     CD =  0.01308   =>   CDf =  0.00534    CDp =  0.00774

 MRCHDU: Convergence failed at  36  side 2    Res =  0.2908E-01
 Side 1  free  transition at x/c =  0.9172   69
 Side 2  free  transition at x/c =  0.0710   25

   5   rms: 0.4495E+00   max: -.2434E+01   D at   33  2   RLX: 0.205
       a = -4.000      CL = -0.2142
      Cm = -0.0390     CD =  0.01297   =>   CDf =  0.00557    CDp =  0.00740

 MRCHDU: Convergence failed at  30  side 2    Res =  0.1566E+00
 MRCHDU: Convergence failed at  35  side 2    Res =  0.1583E+01
 Side 1  free  transition at x/c =  0.9180   69
 Side 2  free  transition at x/c =  0.0701   25

   6   rms: 0.5674E+00   max: -.2869E+01   D at   59  2   RLX: 0.174
       a = -4.000      CL = -0.1950
      Cm = -0.0513     CD =  0.01192   =>   CDf =  0.00580    CDp =  0.00612

 Side 1  free  transition at x/c =  0.9193   69
 Side 2  free  transition at x/c =  0.0696   25

   7   rms: 0.1137E+01   max: -.6008E+01   D at   59  2   RLX: 0.083
       a = -4.000      CL = -0.1800
      Cm = -0.0554     CD =  0.01129   =>   CDf =  0.00584    CDp =  0.00545

 Side 1  free  transition at x/c =  0.9213   69
 Side 2  free  transition at x/c =  0.0696   25

   8   rms: 0.7937E+00   max: -.4503E+01   D at   52  2   RLX: 0.111
       a = -4.000      CL = -0.1631
      Cm = -0.0600     CD =  0.01103   =>   CDf =  0.00625    CDp =  0.00478

 MRCHDU: Convergence failed at  46  side 2    Res =  0.1308E+02
 Side 1  free  transition at x/c =  0.9225   69
 Side 2  free  transition at x/c =  0.0694   25

   9   rms: 0.3643E+00   max: -.1650E+01   T at   58  2   RLX: 0.278
       a = -4.000      CL = -0.1572
      Cm = -0.0640     CD =  0.01116   =>   CDf =  0.00689    CDp =  0.00428

 Side 1  free  transition at x/c =  0.9203   69
 Side 2  free  transition at x/c =  0.0689   25

  10   rms: 0.2998E+00   max: -.1630E+01   D at   54  2   RLX: 0.307
       a = -4.000      CL = -0.1371
      Cm = -0.0692     CD =  0.01105   =>   CDf =  0.00638    CDp =  0.00467

 Side 1  free  transition at x/c =  0.9182   69
 Side 2  free  transition at x/c =  0.0686   25
 idif Ue xi dudx           1  0.16406488      2.22158432E-03   73.850395    
 Uenew xinew           2  2.49759648E-02  3.38196754E-04

  11   rms: 0.2375E+00   max: -.1102E+01   D at   56  2   RLX: 0.454
       a = -4.000      CL = -0.1367
      Cm = -0.0704     CD =  0.01153   =>   CDf =  0.00634    CDp =  0.00518

 Side 1  free  transition at x/c =  0.9123   67
 Side 2  free  transition at x/c =  0.0682   26

  12   rms: 0.1237E+00   max: -.8061E+00   D at   59  2   RLX: 0.620
       a = -4.000      CL = -0.1094
      Cm = -0.0748     CD =  0.01138   =>   CDf =  0.00654    CDp =  0.00484

 Side 1  free  transition at x/c =  0.9120   67
 Side 2  free  transition at x/c =  0.0682   26

  13   rms: 0.5558E-01   max: -.5471E+00   D at   59  2   RLX: 0.914
       a = -4.000      CL = -0.0997
      Cm = -0.0763     CD =  0.01156   =>   CDf =  0.00633    CDp =  0.00523

 Side 1  free  transition at x/c =  0.9107   67
 Side 2  free  transition at x/c =  0.0681   26

  14   rms: 0.1145E-01   max: -.1707E+00   D at   59  2
       a = -4.000      CL = -0.1004
      Cm = -0.0762     CD =  0.01158   =>   CDf =  0.00626    CDp =  0.00532

 Side 1  free  transition at x/c =  0.9103   67
 Side 2  free  transition at x/c =  0.0681   26

  15   rms: 0.6594E-03   max: -.1111E-01   D at   59  2
       a = -4.000      CL = -0.1004
      Cm = -0.0762     CD =  0.01158   =>   CDf =  0.00626    CDp =  0.00532

 Side 1  free  transition at x/c =  0.9103   67
 Side 2  free  transition at x/c =  0.0681   26

  16   rms: 0.2795E-05   max: -.4422E-04   D at   59  2
       a = -4.000      CL = -0.1004
      Cm = -0.0762     CD =  0.01158   =>   CDf =  0.00626    CDp =  0.00532
 plradd ia,ip,cpol            1           0  6.79604476E-03

 Point added to stored polar  1
 Point written to save file  goe507_Re500k.base.pol                          
 Dump file unspecified or not available
 Calculating wake trajectory ...
 Calculating source influence matrix ...

 Solving BL system ...

 Side 1  free  transition at x/c =  0.9103   67
 Side 2  free  transition at x/c =  0.0681   26

   1   rms: 0.9702E-01   max: -.1766E+00   D at   28  2
       a = -3.500      CL = -0.0502
      Cm = -0.0748     CD =  0.01067   =>   CDf =  0.00633    CDp =  0.00435

 Side 1  free  transition at x/c =  0.8962   67
 Side 2  free  transition at x/c =  0.0690   25

   2   rms: 0.1180E-01   max: -.1028E+00   D at   67  1
       a = -3.500      CL = -0.0484
      Cm = -0.0751     CD =  0.01077   =>   CDf =  0.00636    CDp =  0.00441

 Side 1  free  transition at x/c =  0.8979   67
 Side 2  free  transition at x/c =  0.0690   25

   3   rms: 0.7870E-03   max: 0.9435E-02   D at   68  1
       a = -3.500      CL = -0.0486
      Cm = -0.0751     CD =  0.01078   =>   CDf =  0.00635    CDp =  0.00443

 Side 1  free  transition at x/c =  0.8976   67
 Side 2  free  transition at x/c =  0.0690   25

   4   rms: 0.4517E-05   max: -.5801E-04   D at   68  1
       a = -3.500      CL = -0.0486
      Cm = -0.0751     CD =  0.01078   =>   CDf =  0.00635    CDp =  0.00443
 plradd ia,ip,cpol            2           0  1.42732877E-02

 Point added to stored polar  1
 Point written to save file  goe507_Re500k.base.pol                          
 Dump file unspecified or not available
 Calculating wake trajectory ...
 Calculating source influence matrix ...

 Solving BL system ...

 Side 1  free  transition at x/c =  0.8976   67
 Side 2  free  transition at x/c =  0.0690   25

   1   rms: 0.9391E-01   max: -.1664E+00   D at   27  2
       a = -3.000      CL =  0.0018
      Cm = -0.0738     CD =  0.01009   =>   CDf =  0.00642    CDp =  0.00367

 Side 1  free  transition at x/c =  0.8833   67
 Side 2  free  transition at x/c =  0.0702   24

   2   rms: 0.1245E-01   max: -.1941E+00   D at   68  1
       a = -3.000      CL =  0.0040
      Cm = -0.0741     CD =  0.01015   =>   CDf =  0.00644    CDp =  0.00371

 Side 1  free  transition at x/c =  0.8867   68
 Side 2  free  transition at x/c =  0.0702   24

   3   rms: 0.3417E-02   max: 0.6508E-01   D at   68  1
       a = -3.000      CL =  0.0036
      Cm = -0.0741     CD =  0.01014   =>   CDf =  0.00643    CDp =  0.00372

 Side 1  free  transition at x/c =  0.8860   68
 Side 2  free  transition at x/c =  0.0702   24

   4   rms: 0.3036E-03   max: 0.5034E-02   D at   68  1
       a = -3.000      CL =  0.0036
      Cm = -0.0741     CD =  0.01014   =>   CDf =  0.00642    CDp =  0.00372

 Side 1  free  transition at x/c =  0.8859   68
 Side 2  free  transition at x/c =  0.0702   24

   5   rms: 0.1310E-05   max: 0.1047E-04   T at   68  1
       a = -3.000      CL =  0.0036
      Cm = -0.0741     CD =  0.01014   =>   CDf =  0.00642    CDp =  0.00372
 plradd ia,ip,cpol            3           0  2.29244549E-02

 Point added to stored polar  1
 Point written to save file  goe507_Re500k.base.pol                          
 Dump file unspecified or not available
 Calculating wake trajectory ...
 Calculating source influence matrix ...

 Solving BL system ...

 Side 1  free  transition at x/c =  0.8859   68
 Side 2  free  transition at x/c =  0.0702   24

   1   rms: 0.9633E-01   max: -.2155E+00   T at   24  2
       a = -2.500      CL =  0.0576
      Cm = -0.0734     CD =  0.00961   =>   CDf =  0.00649    CDp =  0.00312

 Side 1  free  transition at x/c =  0.8764   68
 Side 2  free  transition at x/c =  0.0725   23

   2   rms: 0.1137E-01   max: -.1341E+00   D at   68  1
       a = -2.500      CL =  0.0555
      Cm = -0.0731     CD =  0.00964   =>   CDf =  0.00644    CDp =  0.00320

 Side 1  free  transition at x/c =  0.8731   68
 Side 2  free  transition at x/c =  0.0726   23

   3   rms: 0.2191E-02   max: -.3130E-01   D at   68  1
       a = -2.500      CL =  0.0557
      Cm = -0.0731     CD =  0.00964   =>   CDf =  0.00647    CDp =  0.00317

 Side 1  free  transition at x/c =  0.8736   68
 Side 2  free  transition at x/c =  0.0726   23

   4   rms: 0.4258E-04   max: -.5530E-03   D at   70  1
       a = -2.500      CL =  0.0557
      Cm = -0.0731     CD =  0.00964   =>   CDf =  0.00646    CDp =  0.00318
 plradd ia,ip,cpol            4           0  2.29244549E-02

 Point added to stored polar  1
 Point written to save file  goe507_Re500k.base.pol                          
 Dump file unspecified or not available
 Calculating wake trajectory ...
 Calculating source influence matrix ...

 Solving BL system ...

 Side 1  free  transition at x/c =  0.8736   68
 Side 2  free  transition at x/c =  0.0726   23

   1   rms: 0.9566E-01   max: -.1851E+00   T at   23  2
       a = -2.000      CL =  0.1086
      Cm = -0.0722     CD =  0.00916   =>   CDf =  0.00646    CDp =  0.00270

 Side 1  free  transition at x/c =  0.8630   67
 Side 2  free  transition at x/c =  0.0756   23

   2   rms: 0.7666E-02   max: -.1108E+00   D at   67  1
       a = -2.000      CL =  0.1083
      Cm = -0.0721     CD =  0.00922   =>   CDf =  0.00651    CDp =  0.00271

 Side 1  free  transition at x/c =  0.8613   67
 Side 2  free  transition at x/c =  0.0756   23

   3   rms: 0.4920E-03   max: -.6062E-02   D at   67  1
       a = -2.000      CL =  0.1084
      Cm = -0.0722     CD =  0.00922   =>   CDf =  0.00651    CDp =  0.00271

 Side 1  free  transition at x/c =  0.8615   67
 Side 2  free  transition at x/c =  0.0756   23

   4   rms: 0.2736E-05   max: -.3140E-04   D at   69  1
       a = -2.000      CL =  0.1084
      Cm = -0.0722     CD =  0.00922   =>   CDf =  0.00651    CDp =  0.00271
 plradd ia,ip,cpol            5           0  2.29244549E-02

 Point added to stored polar  1
 Point written to save file  goe507_Re500k.base.pol                          
 Dump file unspecified or not available
 Calculating wake trajectory ...
 Calculating source influence matrix ...

 Solving BL system ...

 Side 1  free  transition at x/c =  0.8615   67
 Side 2  free  transition at x/c =  0.0756   23

   1   rms: 0.9366E-01   max: -.2628E+00   T at   23  2
       a = -1.500      CL =  0.1613
      Cm = -0.0713     CD =  0.00886   =>   CDf =  0.00656    CDp =  0.00229

 Side 1  free  transition at x/c =  0.8489   67
 Side 2  free  transition at x/c =  0.0796   23

   2   rms: 0.1592E-01   max: -.1434E+00   D at   22  2
       a = -1.500      CL =  0.1617
      Cm = -0.0713     CD =  0.00890   =>   CDf =  0.00657    CDp =  0.00233

 Side 1  free  transition at x/c =  0.8494   67
 Side 2  free  transition at x/c =  0.0793   23

   3   rms: 0.7967E-03   max: 0.6737E-02   D at   68  1
       a = -1.500      CL =  0.1616
      Cm = -0.0713     CD =  0.00891   =>   CDf =  0.00656    CDp =  0.00235

 Side 1  free  transition at x/c =  0.8492   67
 Side 2  free  transition at x/c =  0.0792   23

   4   rms: 0.4246E-05   max: 0.2912E-04   D at   22  2
       a = -1.500      CL =  0.1616
      Cm = -0.0713     CD =  0.00891   =>   CDf =  0.00656    CDp =  0.00234
 plradd ia,ip,cpol            6           0  2.98913326E-02

 Point added to stored polar  1
 Point written to save file  goe507_Re500k.base.pol                          
 Dump file unspecified or not available
 Calculating wake trajectory ...
 Calculating source influence matrix ...

 Solving BL system ...

 Side 1  free  transition at x/c =  0.8492   67
 Side 2  free  transition at x/c =  0.0792   23

   1   rms: 0.1017E+00   max: -.2611E+00   D at   23  2
       a = -1.000      CL =  0.2137
      Cm = -0.0703     CD =  0.00847   =>   CDf =  0.00661    CDp =  0.00185

 MRCHDU: Convergence failed at  22  side 2    Res =  0.3662E+01
 Side 1  free  transition at x/c =  0.8344   67
 Side 2  free  transition at x/c =  0.0879   22

   2   rms: 0.2925E-01   max: 0.4506E+00   C at   22  2
       a = -1.000      CL =  0.2149
      Cm = -0.0705     CD =  0.00856   =>   CDf =  0.00652    CDp =  0.00204

 Side 1  free  transition at x/c =  0.8368   67
 Side 2  free  transition at x/c =  0.0862   22

   3   rms: 0.3798E-02   max: -.5606E-01   D at   22  2
       a = -1.000      CL =  0.2150
      Cm = -0.0705     CD =  0.00860   =>   CDf =  0.00656    CDp =  0.00204

 Side 1  free  transition at x/c =  0.8364   67
 Side 2  free  transition at x/c =  0.0862   22

   4   rms: 0.7623E-04   max: 0.1015E-02   C at   22  2
       a = -1.000      CL =  0.2150
      Cm = -0.0705     CD =  0.00860   =>   CDf =  0.00657    CDp =  0.00203
 plradd ia,ip,cpol            7           0  2.98913326E-02

 Point added to stored polar  1
 Point written to save file  goe507_Re500k.base.pol                          
 Dump file unspecified or not available
 Calculating wake trajectory ...
 Calculating source influence matrix ...

 Solving BL system ...

 Side 1  free  transition at x/c =  0.8364   67
 Side 2  free  transition at x/c =  0.0862   22

   1   rms: 0.9402E-01   max: -.3134E+00   C at   22  2
       a = -0.500      CL =  0.2674
      Cm = -0.0696     CD =  0.00835   =>   CDf =  0.00661    CDp =  0.00174

 Side 1  free  transition at x/c =  0.8190   67
 Side 2  free  transition at x/c =  0.0930   22

   2   rms: 0.3560E-01   max: -.4723E+00   D at   21  2
       a = -0.500      CL =  0.2685
      Cm = -0.0696     CD =  0.00836   =>   CDf =  0.00663    CDp =  0.00173

 Side 1  free  transition at x/c =  0.8231   67
 Side 2  free  transition at x/c =  0.1464   25

   3   rms: 0.3211E-01   max: 0.7199E+00   C at   25  2
       a = -0.500      CL =  0.2678
      Cm = -0.0696     CD =  0.00826   =>   CDf =  0.00636    CDp =  0.00189

 Side 1  free  transition at x/c =  0.8226   67
 Side 2  free  transition at x/c =  0.1193   23

   4   rms: 0.8252E-02   max: 0.1855E+00   C at   23  2
       a = -0.500      CL =  0.2681
      Cm = -0.0696     CD =  0.00831   =>   CDf =  0.00646    CDp =  0.00185

 Side 1  free  transition at x/c =  0.8226   67
 Side 2  free  transition at x/c =  0.1150   23

   5   rms: 0.2571E-03   max: -.5933E-02   C at   23  2
       a = -0.500      CL =  0.2682
      Cm = -0.0696     CD =  0.00831   =>   CDf =  0.00647    CDp =  0.00184

 Side 1  free  transition at x/c =  0.8226   67
 Side 2  free  transition at x/c =  0.1151   23

   6   rms: 0.1484E-05   max: -.2196E-04   C at   23  2
       a = -0.500      CL =  0.2682
      Cm = -0.0696     CD =  0.00831   =>   CDf =  0.00647    CDp =  0.00184
 plradd ia,ip,cpol            8           0  2.98913326E-02

 Point added to stored polar  1
 Point written to save file  goe507_Re500k.base.pol                          
 Dump file unspecified or not available
 Calculating wake trajectory ...
 Calculating source influence matrix ...

 Solving BL system ...

 Side 1  free  transition at x/c =  0.8226   67
 Side 2  free  transition at x/c =  0.1151   23

   1   rms: 0.4932E+00   max: -.1174E+02   C at   23  2   RLX: 0.043
       a =  0.000      CL =  0.2702
      Cm = -0.0696     CD =  0.00827   =>   CDf =  0.00647    CDp =  0.00180

 Side 1  free  transition at x/c =  0.8219   67
 Side 2  free  transition at x/c =  0.1251   24

   2   rms: 0.4283E+00   max: -.9708E+01   C at   24  2   RLX: 0.052
       a =  0.000      CL =  0.2725
      Cm = -0.0695     CD =  0.00822   =>   CDf =  0.00643    CDp =  0.00179

 Side 1  free  transition at x/c =  0.8210   67
 Side 2  free  transition at x/c =  0.1358   24

   3   rms: 0.4150E+00   max: -.9680E+01   C at   24  2   RLX: 0.052
       a =  0.000      CL =  0.2751
      Cm = -0.0694     CD =  0.00820   =>   CDf =  0.00639    CDp =  0.00181

 Side 1  free  transition at x/c =  0.8202   67
 Side 2  free  transition at x/c =  0.1486   25

   4   rms: 0.1916E+00   max: -.4029E+01   C at   25  2   RLX: 0.124
       a =  0.000      CL =  0.2803
      Cm = -0.0694     CD =  0.00815   =>   CDf =  0.00635    CDp =  0.00181

 Side 1  free  transition at x/c =  0.8183   67
 Side 2  free  transition at x/c =  0.1715   27

   5   rms: 0.1527E+00   max: -.2439E+01   C at   27  2   RLX: 0.205
       a =  0.000      CL =  0.2873
      Cm = -0.0693     CD =  0.00806   =>   CDf =  0.00627    CDp =  0.00179

 Side 1  free  transition at x/c =  0.8155   67
 Side 2  free  transition at x/c =  0.1827   27

   6   rms: 0.6388E-01   max: -.3079E+00   T at   27  2
       a =  0.000      CL =  0.3209
      Cm = -0.0688     CD =  0.00808   =>   CDf =  0.00628    CDp =  0.00181

 MRCHDU: Convergence failed at  28  side 2    Res =  0.1020E+01
 MRCHDU: Convergence failed at  29  side 2    Res =  0.1106E+01
 MRCHDU: Convergence failed at  30  side 2    Res =  0.1246E+01
 MRCHDU: Convergence failed at  31  side 2    Res =  0.1235E+01
 MRCHDU: Convergence failed at  32  side 2    Res =  0.1173E+01
 Side 1  free  transition at x/c =  0.8027   67
 Side 2  free  transition at x/c =  0.2825   33
 idif Ue xi dudx           1  0.17665707      1.29222870E-03   136.70728    
 Uenew xinew           2  3.24305869E-03  2.37226486E-05

   7   rms: 0.4607E-01   max: 0.4992E+00   D at   26  2
       a =  0.000      CL =  0.3183
      Cm = -0.0685     CD =  0.00767   =>   CDf =  0.00602    CDp =  0.00165

 Side 1  free  transition at x/c =  0.8054   66
 Side 2  free  transition at x/c =  0.2495   32

   8   rms: 0.3032E-01   max: 0.4964E+00   C at   32  2
       a =  0.000      CL =  0.3199
      Cm = -0.0686     CD =  0.00793   =>   CDf =  0.00606    CDp =  0.00187

 Side 1  free  transition at x/c =  0.8049   66
 Side 2  free  transition at x/c =  0.2275   30

   9   rms: 0.6695E-02   max: -.1014E+00   D at   32  2
       a =  0.000      CL =  0.3199
      Cm = -0.0686     CD =  0.00792   =>   CDf =  0.00613    CDp =  0.00179

 Side 1  free  transition at x/c =  0.8049   66
 Side 2  free  transition at x/c =  0.2259   30

  10   rms: 0.3034E-03   max: 0.5476E-02   C at   30  2
       a =  0.000      CL =  0.3199
      Cm = -0.0686     CD =  0.00792   =>   CDf =  0.00613    CDp =  0.00179

 Side 1  free  transition at x/c =  0.8049   66
 Side 2  free  transition at x/c =  0.2258   30

  11   rms: 0.1599E-04   max: 0.1917E-03   D at    4  2
       a =  0.000      CL =  0.3199
      Cm = -0.0686     CD =  0.00792   =>   CDf =  0.00613    CDp =  0.00179
 plradd ia,ip,cpol            9           0  0.15644951    

 Point added to stored polar  1
 Point written to save file  goe507_Re500k.base.pol                          
 Dump file unspecified or not available
 Calculating wake trajectory ...
 Calculating source influence matrix ...

 Solving BL system ...

 Side 1  free  transition at x/c =  0.8049   66
 Side 2  free  transition at x/c =  0.2258   30

   1   rms: 0.1290E+00   max: -.1772E+01   C at   30  2   RLX: 0.282
       a =  0.500      CL =  0.3342
      Cm = -0.0683     CD =  0.00784   =>   CDf =  0.00614    CDp =  0.00170

 Side 1  free  transition at x/c =  0.7970   67
 Side 2  free  transition at x/c =  0.2395   30

   2   rms: 0.1067E+00   max: -.1647E+01   C at   30  2   RLX: 0.304
       a =  0.500      CL =  0.3454
      Cm = -0.0678     CD =  0.00781   =>   CDf =  0.00611    CDp =  0.00170

 Side 1  free  transition at x/c =  0.7925   67
 Side 2  free  transition at x/c =  0.2487   31

   3   rms: 0.8521E-01   max: -.1106E+01   C at   31  2   RLX: 0.452
       a =  0.500      CL =  0.3576
      Cm = -0.0677     CD =  0.00777   =>   CDf =  0.00613    CDp =  0.00163

 Side 1  free  transition at x/c =  0.7886   66
 Side 2  free  transition at x/c =  0.2640   32

   4   rms: 0.6809E-01   max: -.1093E+01   C at   32  2   RLX: 0.458
       a =  0.500      CL =  0.3640
      Cm = -0.0676     CD =  0.00768   =>   CDf =  0.00607    CDp =  0.00161

 Side 1  free  transition at x/c =  0.7845   66
 Side 2  free  transition at x/c =  0.2813   33

   5   rms: 0.7484E-01   max: -.1496E+01   C at   33  2   RLX: 0.334
       a =  0.500      CL =  0.3663
      Cm = -0.0675     CD =  0.00763   =>   CDf =  0.00599    CDp =  0.00164

 Side 1  free  transition at x/c =  0.7833   66
 Side 2  free  transition at x/c =  0.2956   34

   6   rms: 0.8818E-01   max: -.1862E+01   C at   34  2   RLX: 0.269
       a =  0.500      CL =  0.3673
      Cm = -0.0674     CD =  0.00758   =>   CDf =  0.00593    CDp =  0.00165

 Side 1  free  transition at x/c =  0.7826   66
 Side 2  free  transition at x/c =  0.3099   34

   7   rms: 0.1011E+00   max: -.2083E+01   C at   34  2   RLX: 0.240
       a =  0.500      CL =  0.3680
      Cm = -0.0674     CD =  0.00755   =>   CDf =  0.00588    CDp =  0.00166

 Side 1  free  transition at x/c =  0.7822   66
 Side 2  free  transition at x/c =  0.3219   35

   8   rms: 0.8226E-01   max: -.1711E+01   C at   35  2   RLX: 0.292
       a =  0.500      CL =  0.3686
      Cm = -0.0674     CD =  0.00751   =>   CDf =  0.00585    CDp =  0.00166

 Side 1  free  transition at x/c =  0.7819   66
 Side 2  free  transition at x/c =  0.3351   36

   9   rms: 0.6391E-01   max: -.1333E+01   C at   36  2   RLX: 0.375
       a =  0.500      CL =  0.3690
      Cm = -0.0673     CD =  0.00746   =>   CDf =  0.00581    CDp =  0.00166

 Side 1  free  transition at x/c =  0.7816   66
 Side 2  free  transition at x/c =  0.3492   37

  10   rms: 0.4314E-01   max: -.8982E+00   C at   37  2   RLX: 0.557
       a =  0.500      CL =  0.3693
      Cm = -0.0673     CD =  0.00742   =>   CDf =  0.00577    CDp =  0.00165

 Side 1  free  transition at x/c =  0.7813   66
 Side 2  free  transition at x/c =  0.3640   38

  11   rms: 0.2081E-01   max: -.4315E+00   C at   38  2
       a =  0.500      CL =  0.3694
      Cm = -0.0672     CD =  0.00738   =>   CDf =  0.00572    CDp =  0.00166

 Side 1  free  transition at x/c =  0.7811   66
 Side 2  free  transition at x/c =  0.3751   39

  12   rms: 0.2656E-02   max: -.5554E-01   C at   39  2
       a =  0.500      CL =  0.3695
      Cm = -0.0672     CD =  0.00738   =>   CDf =  0.00569    CDp =  0.00169

 Side 1  free  transition at x/c =  0.7811   66
 Side 2  free  transition at x/c =  0.3767   39

  13   rms: 0.5199E-04   max: -.1080E-02   C at   39  2
       a =  0.500      CL =  0.3695
      Cm = -0.0672     CD =  0.00738   =>   CDf =  0.00569    CDp =  0.00170
 plradd ia,ip,cpol           10           0  0.15644951    

 Point added to stored polar  1
 Point written to save file  goe507_Re500k.base.pol                          
 Dump file unspecified or not available
 Calculating wake trajectory ...
 Calculating source influence matrix ...

 Solving BL system ...

 Side 1  free  transition at x/c =  0.7811   66
 Side 2  free  transition at x/c =  0.3768   39

   1   rms: 0.7123E+00   max: -.1464E+02   C at   39  2   RLX: 0.034
       a =  1.000      CL =  0.3709
      Cm = -0.0671     CD =  0.00733   =>   CDf =  0.00569    CDp =  0.00165

 Side 1  free  transition at x/c =  0.7803   66
 Side 2  free  transition at x/c =  0.3911   40

   2   rms: 0.7222E+00   max: -.1477E+02   C at   40  2   RLX: 0.034
       a =  1.000      CL =  0.3724
      Cm = -0.0671     CD =  0.00729   =>   CDf =  0.00565    CDp =  0.00164

 Side 1  free  transition at x/c =  0.7795   66
 Side 2  free  transition at x/c =  0.4064   40

   3   rms: 0.8777E+00   max: -.1700E+02   C at   40  2   RLX: 0.029
       a =  1.000      CL =  0.3737
      Cm = -0.0670     CD =  0.00726   =>   CDf =  0.00561    CDp =  0.00165

 Side 1  free  transition at x/c =  0.7789   66
 Side 2  free  transition at x/c =  0.4216   41

   4   rms: 0.8469E+00   max: -.1644E+02   C at   41  2   RLX: 0.030
       a =  1.000      CL =  0.3748
      Cm = -0.0670     CD =  0.00722   =>   CDf =  0.00557    CDp =  0.00165

 Side 1  free  transition at x/c =  0.7783   66
 Side 2  free  transition at x/c =  0.4382   42

   5   rms: 0.7836E+00   max: -.1511E+02   C at   42  2   RLX: 0.033
       a =  1.000      CL =  0.3760
      Cm = -0.0669     CD =  0.00718   =>   CDf =  0.00552    CDp =  0.00165

 Side 1  free  transition at x/c =  0.7777   66
 Side 2  free  transition at x/c =  0.4572   44

   6   rms: 0.7220E+00   max: -.1444E+02   C at   44  2   RLX: 0.035
       a =  1.000      CL =  0.3771
      Cm = -0.0668     CD =  0.00711   =>   CDf =  0.00547    CDp =  0.00164

 Side 1  free  transition at x/c =  0.7771   66
 Side 2  free  transition at x/c =  0.4726   45

   7   rms: 0.6818E+00   max: -.1364E+02   C at   45  2   RLX: 0.037
       a =  1.000      CL =  0.3783
      Cm = -0.0667     CD =  0.00707   =>   CDf =  0.00543    CDp =  0.00163

 Side 1  free  transition at x/c =  0.7765   65
 Side 2  free  transition at x/c =  0.4876   46

   8   rms: 0.6637E+00   max: -.1323E+02   C at   46  2   RLX: 0.038
       a =  1.000      CL =  0.3795
      Cm = -0.0666     CD =  0.00702   =>   CDf =  0.00539    CDp =  0.00162

 Side 1  free  transition at x/c =  0.7757   65
 Side 2  free  transition at x/c =  0.5029   47

   9   rms: 0.6890E+00   max: -.1369E+02   C at   47  2   RLX: 0.037
       a =  1.000      CL =  0.3805
      Cm = -0.0666     CD =  0.00696   =>   CDf =  0.00534    CDp =  0.00162

 Side 1  free  transition at x/c =  0.7750   65
 Side 2  free  transition at x/c =  0.5190   48

  10   rms: 0.7342E+00   max: -.1450E+02   C at   48  2   RLX: 0.034
       a =  1.000      CL =  0.3814
      Cm = -0.0665     CD =  0.00691   =>   CDf =  0.00528    CDp =  0.00163

 Side 1  free  transition at x/c =  0.7743   65
 Side 2  free  transition at x/c =  0.5438   49

  11   rms: 0.1656E+01   max: -.3117E+02   C at   49  2   RLX: 0.016
       a =  1.000      CL =  0.3814
      Cm = -0.0663     CD =  0.00684   =>   CDf =  0.00520    CDp =  0.00164

 Side 1  free  transition at x/c =  0.7740   65
 Side 2  free  transition at x/c =  0.5545   50

  12   rms: 0.1264E+01   max: -.2427E+02   C at   50  2   RLX: 0.021
       a =  1.000      CL =  0.3817
      Cm = -0.0663     CD =  0.00680   =>   CDf =  0.00515    CDp =  0.00165

 Side 1  free  transition at x/c =  0.7736   66
 Side 2  free  transition at x/c =  0.5657   49

  13   rms: 0.1451E+01   max: -.2632E+02   C at   49  2   RLX: 0.019
       a =  1.000      CL =  0.3820
      Cm = -0.0662     CD =  0.00677   =>   CDf =  0.00513    CDp =  0.00164

 Side 1  free  transition at x/c =  0.7733   66
 Side 2  free  transition at x/c =  0.5740   50

  14   rms: 0.1190E+01   max: -.2238E+02   C at   50  2   RLX: 0.022
       a =  1.000      CL =  0.3823
      Cm = -0.0661     CD =  0.00674   =>   CDf =  0.00510    CDp =  0.00164

 Side 1  free  transition at x/c =  0.7729   66
 Side 2  free  transition at x/c =  0.5878   51

  15   rms: 0.1224E+01   max: -.2308E+02   C at   51  2   RLX: 0.022
       a =  1.000      CL =  0.3825
      Cm = -0.0660     CD =  0.00669   =>   CDf =  0.00505    CDp =  0.00164

 Side 1  free  transition at x/c =  0.7725   66
 Side 2  free  transition at x/c =  0.5997   52

  16   rms: 0.1197E+01   max: -.2291E+02   C at   52  2   RLX: 0.022
       a =  1.000      CL =  0.3827
      Cm = -0.0659     CD =  0.00665   =>   CDf =  0.00501    CDp =  0.00164

 Side 1  free  transition at x/c =  0.7722   66
 Side 2  free  transition at x/c =  0.6167   53

  17   rms: 0.1376E+01   max: -.2594E+02   C at   53  2   RLX: 0.019
       a =  1.000      CL =  0.3827
      Cm = -0.0658     CD =  0.00660   =>   CDf =  0.00495    CDp =  0.00164

 Side 1  free  transition at x/c =  0.7719   66
 Side 2  free  transition at x/c =  0.6358   54

  18   rms: 0.1535E+01   max: -.2840E+02   C at   54  2   RLX: 0.018
       a =  1.000      CL =  0.3825
      Cm = -0.0657     CD =  0.00654   =>   CDf =  0.00489    CDp =  0.00165

 Side 1  free  transition at x/c =  0.7716   66
 Side 2  free  transition at x/c =  0.6562   55

  19   rms: 0.1672E+01   max: -.3036E+02   C at   55  2   RLX: 0.016
       a =  1.000      CL =  0.3823
      Cm = -0.0655     CD =  0.00648   =>   CDf =  0.00483    CDp =  0.00165

 Side 1  free  transition at x/c =  0.7714   66
 Side 2  free  transition at x/c =  0.6782   57

  20   rms: 0.1473E+01   max: -.2812E+02   C at   57  2   RLX: 0.018
       a =  1.000      CL =  0.3818
      Cm = -0.0653     CD =  0.00640   =>   CDf =  0.00476    CDp =  0.00164

 Side 1  free  transition at x/c =  0.7712   66
 Side 2  free  transition at x/c =  0.6985   58

  21   rms: 0.1599E+01   max: -.2992E+02   C at   58  2   RLX: 0.017
       a =  1.000      CL =  0.3815
      Cm = -0.0651     CD =  0.00634   =>   CDf =  0.00469    CDp =  0.00165

 Side 1  free  transition at x/c =  0.7710   66
 Side 2  free  transition at x/c =  0.7110   59

  22   rms: 0.1245E+01   max: -.2357E+02   C at   59  2   RLX: 0.021
       a =  1.000      CL =  0.3813
      Cm = -0.0649     CD =  0.00630   =>   CDf =  0.00465    CDp =  0.00164

 Side 1  free  transition at x/c =  0.7707   66
 Side 2  free  transition at x/c =  0.7098   58

  23   rms: 0.8602E+00   max: -.1534E+02   C at   58  2   RLX: 0.033
       a =  1.000      CL =  0.3817
      Cm = -0.0649     CD =  0.00631   =>   CDf =  0.00466    CDp =  0.00165

 Side 1  free  transition at x/c =  0.7702   66
 Side 2  free  transition at x/c =  0.7395   60

  24   rms: 0.1234E+01   max: -.2150E+02   C at   60  2   RLX: 0.023
       a =  1.000      CL =  0.3812
      Cm = -0.0645     CD =  0.00621   =>   CDf =  0.00455    CDp =  0.00166

 Side 1  free  transition at x/c =  0.7699   66
 Side 2  free  transition at x/c =  0.7536   61

  25   rms: 0.1277E+01   max: -.2226E+02   C at   61  2   RLX: 0.022
       a =  1.000      CL =  0.3810
      Cm = -0.0643     CD =  0.00616   =>   CDf =  0.00449    CDp =  0.00167

 Side 1  free  transition at x/c =  0.7697   66
 Side 2  free  transition at x/c =  0.7716   62

  26   rms: 0.1427E+01   max: -.2454E+02   C at   62  2   RLX: 0.020
       a =  1.000      CL =  0.3808
      Cm = -0.0641     CD =  0.00611   =>   CDf =  0.00443    CDp =  0.00168

 Side 1  free  transition at x/c =  0.7695   66
 Side 2  free  transition at x/c =  0.7897   64

  27   rms: 0.1206E+01   max: -.2235E+02   C at   64  2   RLX: 0.022
       a =  1.000      CL =  0.3804
      Cm = -0.0639     CD =  0.00605   =>   CDf =  0.00437    CDp =  0.00168

 Side 1  free  transition at x/c =  0.7692   66
 Side 2  free  transition at x/c =  0.8112   65

  28   rms: 0.1512E+01   max: -.2732E+02   C at   65  2   RLX: 0.018
       a =  1.000      CL =  0.3803
      Cm = -0.0637     CD =  0.00600   =>   CDf =  0.00430    CDp =  0.00170

 Side 1  free  transition at x/c =  0.7690   66
 Side 2  free  transition at x/c =  0.8341   66

  29   rms: 0.1964E+01   max: -.3432E+02   C at   66  2   RLX: 0.015
       a =  1.000      CL =  0.3804
      Cm = -0.0635     CD =  0.00595   =>   CDf =  0.00423    CDp =  0.00172

 Side 1  free  transition at x/c =  0.7689   66
 Side 2  free  transition at x/c =  0.8346   66

  30   rms: 0.7777E+00   max: -.1359E+02   C at   66  2   RLX: 0.037
       a =  1.000      CL =  0.3814
      Cm = -0.0637     CD =  0.00595   =>   CDf =  0.00423    CDp =  0.00172

 Side 1  free  transition at x/c =  0.7684   66
 Side 2  free  transition at x/c =  0.8503   67

  31   rms: 0.4530E+00   max: -.7996E+01   C at   67  2   RLX: 0.063
       a =  1.000      CL =  0.3831
      Cm = -0.0636     CD =  0.00592   =>   CDf =  0.00419    CDp =  0.00173

 Side 1  free  transition at x/c =  0.7677   66
 Side 2  free  transition at x/c =  0.8800   69

  32   rms: 0.5585E+00   max: -.9595E+01   C at   69  2   RLX: 0.052
       a =  1.000      CL =  0.3863
      Cm = -0.0638     CD =  0.00587   =>   CDf =  0.00411    CDp =  0.00176

 Side 1  free  transition at x/c =  0.7669   66
 Side 2  free  transition at x/c =  0.9083   71

  33   rms: 0.5028E+00   max: -.7473E+01   C at   71  2   RLX: 0.067
       a =  1.000      CL =  0.3961
      Cm = -0.0653     CD =  0.00582   =>   CDf =  0.00406    CDp =  0.00176

 Side 1  free  transition at x/c =  0.7657   66
 Side 2  free  transition at x/c =  0.9412   73

  34   rms: 0.5750E-01   max: 0.4898E+00   C at   74  2
       a =  1.000      CL =  0.4105
      Cm = -0.0633     CD =  0.00593   =>   CDf =  0.00403    CDp =  0.00189

 MRCHDU: Convergence failed at  78  side 2    Res =  0.1076E+01
 MRCHDU: Convergence failed at  79  side 2    Res =  0.9163E+01
 Side 1  free  transition at x/c =  0.7564   65
 Side 2 forced transition at x/c =  1.0000   79

  35   rms: 0.9718E-01   max: 0.1193E+01   C at   79  2
       a =  1.000      CL =  0.4656
      Cm = -0.0757     CD =  0.00568   =>   CDf =  0.00409    CDp =  0.00159

 Side 1  free  transition at x/c =  0.7519   65
 Side 2  free  transition at x/c =  0.9958   79

  36   rms: 0.2473E-01   max: -.2811E+00   C at   79  2
       a =  1.000      CL =  0.4516
      Cm = -0.0723     CD =  0.00588   =>   CDf =  0.00410    CDp =  0.00178

 Side 1  free  transition at x/c =  0.7531   65
 Side 2  free  transition at x/c =  0.9777   77

  37   rms: 0.1082E-01   max: -.1978E+00   D at   78  2
       a =  1.000      CL =  0.4519
      Cm = -0.0724     CD =  0.00590   =>   CDf =  0.00407    CDp =  0.00183

 Side 1  free  transition at x/c =  0.7532   65
 Side 2  free  transition at x/c =  0.9809   77

  38   rms: 0.2365E-02   max: 0.2297E-01   D at   79  2
       a =  1.000      CL =  0.4530
      Cm = -0.0727     CD =  0.00589   =>   CDf =  0.00407    CDp =  0.00182

 Side 1  free  transition at x/c =  0.7531   65
 Side 2  free  transition at x/c =  0.9803   77

  39   rms: 0.1296E-04   max: -.1152E-03   D at   79  2
       a =  1.000      CL =  0.4530
      Cm = -0.0727     CD =  0.00589   =>   CDf =  0.00407    CDp =  0.00182
 plradd ia,ip,cpol           11           0  0.14104332    

 Point added to stored polar  1
 Point written to save file  goe507_Re500k.base.pol                          
 Dump file unspecified or not available
 Calculating wake trajectory ...
 Calculating source influence matrix ...

 Solving BL system ...

 Side 1  free  transition at x/c =  0.7531   65
 Side 2  free  transition at x/c =  0.9803   77

   1   rms: 0.1538E+00   max: 0.5684E+00   C at   77  2
       a =  1.500      CL =  0.5513
      Cm = -0.0815     CD =  0.00599   =>   CDf =  0.00410    CDp =  0.00189

 Side 1  free  transition at x/c =  0.7150   64
 Side 2 forced transition at x/c =  1.0000   78

   2   rms: 0.3029E-01   max: 0.3004E+00   D at   65  1
       a =  1.500      CL =  0.5364
      Cm = -0.0785     CD =  0.00601   =>   CDf =  0.00428    CDp =  0.00173

 Side 1  free  transition at x/c =  0.7218   64
 Side 2 forced transition at x/c =  1.0000   78

   3   rms: 0.6453E-02   max: 0.1090E+00   C at   64  1
       a =  1.500      CL =  0.5368
      Cm = -0.0786     CD =  0.00599   =>   CDf =  0.00419    CDp =  0.00180

 Side 1  free  transition at x/c =  0.7191   64
 Side 2 forced transition at x/c =  1.0000   78

   4   rms: 0.1539E-03   max: -.2066E-02   D at   66  1
       a =  1.500      CL =  0.5368
      Cm = -0.0786     CD =  0.00599   =>   CDf =  0.00422    CDp =  0.00177

 Side 1  free  transition at x/c =  0.7191   64
 Side 2 forced transition at x/c =  1.0000   78

   5   rms: 0.7935E-06   max: -.3903E-05   D at   77  1
       a =  1.500      CL =  0.5368
      Cm = -0.0786     CD =  0.00599   =>   CDf =  0.00422    CDp =  0.00177
 plradd ia,ip,cpol           12           0  0.14104332    

 Point added to stored polar  1
 Point written to save file  goe507_Re500k.base.pol                          
 Dump file unspecified or not available
 Calculating wake trajectory ...
 Calculating source influence matrix ...

 Solving BL system ...

 Side 1  free  transition at x/c =  0.7191   64
 Side 2 forced transition at x/c =  1.0000   78

   1   rms: 0.1035E+00   max: -.2379E+00   n at   77  2
       a =  2.000      CL =  0.5838
      Cm = -0.0765     CD =  0.00616   =>   CDf =  0.00423    CDp =  0.00192

 Side 1  free  transition at x/c =  0.6788   62
 Side 2 forced transition at x/c =  1.0000   77

   2   rms: 0.1696E-01   max: 0.2538E+00   D at   64  1
       a =  2.000      CL =  0.5837
      Cm = -0.0765     CD =  0.00617   =>   CDf =  0.00439    CDp =  0.00177

 Side 1  free  transition at x/c =  0.6821   62
 Side 2 forced transition at x/c =  1.0000   77

   3   rms: 0.1918E-02   max: -.3001E-01   D at   64  1
       a =  2.000      CL =  0.5838
      Cm = -0.0765     CD =  0.00615   =>   CDf =  0.00436    CDp =  0.00179

 Side 1  free  transition at x/c =  0.6811   62
 Side 2 forced transition at x/c =  1.0000   77

   4   rms: 0.2644E-04   max: -.5953E-03   D at   64  1
       a =  2.000      CL =  0.5838
      Cm = -0.0765     CD =  0.00615   =>   CDf =  0.00437    CDp =  0.00179
 plradd ia,ip,cpol           13           0  3.37445475E-02

 Point added to stored polar  1
 Point written to save file  goe507_Re500k.base.pol                          
 Dump file unspecified or not available
 Calculating wake trajectory ...
 Calculating source influence matrix ...

 Solving BL system ...

 Side 1  free  transition at x/c =  0.6811   62
 Side 2 forced transition at x/c =  1.0000   77

   1   rms: 0.9434E-01   max: -.1564E+00   n at   76  2
       a =  2.500      CL =  0.6314
      Cm = -0.0746     CD =  0.00629   =>   CDf =  0.00436    CDp =  0.00193

 Side 1  free  transition at x/c =  0.6130   59
 Side 2 forced transition at x/c =  1.0000   76

   2   rms: 0.2059E-01   max: -.3006E+00   C at   59  1
       a =  2.500      CL =  0.6288
      Cm = -0.0740     CD =  0.00642   =>   CDf =  0.00467    CDp =  0.00176

 Side 1  free  transition at x/c =  0.6248   60
 Side 2 forced transition at x/c =  1.0000   76

   3   rms: 0.3597E-02   max: 0.5616E-01   C at   60  1
       a =  2.500      CL =  0.6290
      Cm = -0.0740     CD =  0.00644   =>   CDf =  0.00457    CDp =  0.00186

 Side 1  free  transition at x/c =  0.6232   60
 Side 2 forced transition at x/c =  1.0000   76

   4   rms: 0.1032E-03   max: -.2130E-02   D at   62  1
       a =  2.500      CL =  0.6289
      Cm = -0.0740     CD =  0.00644   =>   CDf =  0.00459    CDp =  0.00185

 Side 1  free  transition at x/c =  0.6231   60
 Side 2 forced transition at x/c =  1.0000   76

   5   rms: 0.1577E-05   max: 0.2905E-04   C at   60  1
       a =  2.500      CL =  0.6289
      Cm = -0.0740     CD =  0.00644   =>   CDf =  0.00459    CDp =  0.00185
 plradd ia,ip,cpol           14           0  3.37445475E-02

 Point added to stored polar  1
 Point written to save file  goe507_Re500k.base.pol                          
 Dump file unspecified or not available
 Calculating wake trajectory ...
 Calculating source influence matrix ...

 Solving BL system ...

 Side 1  free  transition at x/c =  0.6231   60
 Side 2 forced transition at x/c =  1.0000   76

   1   rms: 0.1193E+00   max: 0.1528E+01   C at   60  1   RLX: 0.811
       a =  3.000      CL =  0.6630
      Cm = -0.0715     CD =  0.00684   =>   CDf =  0.00459    CDp =  0.00225

 Side 1  free  transition at x/c =  0.5579   55
 Side 2 forced transition at x/c =  1.0000   76

   2   rms: 0.2386E-01   max: 0.1663E+00   D at   59  1
       a =  3.000      CL =  0.6720
      Cm = -0.0712     CD =  0.00691   =>   CDf =  0.00492    CDp =  0.00198

 Side 1  free  transition at x/c =  0.5537   55
 Side 2 forced transition at x/c =  1.0000   76

   3   rms: 0.8349E-03   max: 0.1301E-01   C at   55  1
       a =  3.000      CL =  0.6717
      Cm = -0.0712     CD =  0.00693   =>   CDf =  0.00490    CDp =  0.00203

 Side 1  free  transition at x/c =  0.5532   55
 Side 2 forced transition at x/c =  1.0000   76

   4   rms: 0.7592E-05   max: -.1391E-03   C at   55  1
       a =  3.000      CL =  0.6717
      Cm = -0.0712     CD =  0.00693   =>   CDf =  0.00491    CDp =  0.00203
 plradd ia,ip,cpol           15           0  3.37445475E-02

 Point added to stored polar  1
 Point written to save file  goe507_Re500k.base.pol                          
 Dump file unspecified or not available
 Calculating wake trajectory ...
 Calculating source influence matrix ...

 Solving BL system ...

 Side 1  free  transition at x/c =  0.5532   55
 Side 2 forced transition at x/c =  1.0000   76

   1   rms: 0.1141E+00   max: 0.1472E+01   C at   55  1
       a =  3.500      CL =  0.7160
      Cm = -0.0687     CD =  0.00743   =>   CDf =  0.00487    CDp =  0.00256

 Side 1  free  transition at x/c =  0.4947   52
 Side 2 forced transition at x/c =  1.0000   75

   2   rms: 0.2142E-01   max: -.2088E+00   C at   52  1
       a =  3.500      CL =  0.7152
      Cm = -0.0686     CD =  0.00748   =>   CDf =  0.00520    CDp =  0.00228

 Side 1  free  transition at x/c =  0.5015   53
 Side 2 forced transition at x/c =  1.0000   75

   3   rms: 0.2164E-02   max: -.2352E-01   D at   55  1
       a =  3.500      CL =  0.7158
      Cm = -0.0687     CD =  0.00745   =>   CDf =  0.00513    CDp =  0.00232

 Side 1  free  transition at x/c =  0.5005   53
 Side 2 forced transition at x/c =  1.0000   75

   4   rms: 0.5614E-04   max: 0.9707E-03   C at   53  1
       a =  3.500      CL =  0.7158
      Cm = -0.0687     CD =  0.00745   =>   CDf =  0.00513    CDp =  0.00232
 plradd ia,ip,cpol           16           0  3.37445475E-02

 Point added to stored polar  1
 Point written to save file  goe507_Re500k.base.pol                          
 Dump file unspecified or not available
 Calculating wake trajectory ...
 Calculating source influence matrix ...

 Solving BL system ...

 Side 1  free  transition at x/c =  0.5004   53
 Side 2 forced transition at x/c =  1.0000   75

   1   rms: 0.1132E+00   max: 0.1262E+01   C at   53  1   RLX: 0.910
       a =  4.000      CL =  0.7551
      Cm = -0.0664     CD =  0.00801   =>   CDf =  0.00508    CDp =  0.00293

 Side 1  free  transition at x/c =  0.4478   50
 Side 2 forced transition at x/c =  1.0000   74

   2   rms: 0.2126E-01   max: 0.1926E+00   D at   53  1
       a =  4.000      CL =  0.7604
      Cm = -0.0664     CD =  0.00796   =>   CDf =  0.00535    CDp =  0.00260

 Side 1  free  transition at x/c =  0.4477   50
 Side 2 forced transition at x/c =  1.0000   74

   3   rms: 0.1908E-02   max: 0.3371E-01   C at   50  1
       a =  4.000      CL =  0.7603
      Cm = -0.0664     CD =  0.00797   =>   CDf =  0.00532    CDp =  0.00265

 Side 1  free  transition at x/c =  0.4466   50
 Side 2 forced transition at x/c =  1.0000   74

   4   rms: 0.1330E-04   max: -.1591E-03   C at   50  1
       a =  4.000      CL =  0.7603
      Cm = -0.0664     CD =  0.00797   =>   CDf =  0.00533    CDp =  0.00264
 plradd ia,ip,cpol           17           0  6.93203928E-03

 Point added to stored polar  1
 Point written to save file  goe507_Re500k.base.pol                          
 Dump file unspecified or not available
 Calculating wake trajectory ...
 Calculating source influence matrix ...

 Solving BL system ...

 Side 1  free  transition at x/c =  0.4466   50
 Side 2 forced transition at x/c =  1.0000   74

   1   rms: 0.1009E+00   max: 0.1035E+01   C at   50  1
       a =  4.500      CL =  0.8071
      Cm = -0.0645     CD =  0.00837   =>   CDf =  0.00533    CDp =  0.00305

 Side 1  free  transition at x/c =  0.3794   46
 Side 2 forced transition at x/c =  1.0000   74

   2   rms: 0.1712E-01   max: -.2216E+00   C at   46  1
       a =  4.500      CL =  0.8041
      Cm = -0.0640     CD =  0.00855   =>   CDf =  0.00559    CDp =  0.00296

 Side 1  free  transition at x/c =  0.3844   46
 Side 2 forced transition at x/c =  1.0000   74

   3   rms: 0.1909E-02   max: 0.3376E-01   C at   46  1
       a =  4.500      CL =  0.8040
      Cm = -0.0640     CD =  0.00856   =>   CDf =  0.00555    CDp =  0.00301

 Side 1  free  transition at x/c =  0.3833   46
 Side 2 forced transition at x/c =  1.0000   74

   4   rms: 0.1467E-04   max: -.1759E-03   D at   48  1
       a =  4.500      CL =  0.8040
      Cm = -0.0640     CD =  0.00856   =>   CDf =  0.00556    CDp =  0.00301
 plradd ia,ip,cpol           18           0  3.77806067E-03

 Point added to stored polar  1
 Point written to save file  goe507_Re500k.base.pol                          
 Dump file unspecified or not available
 Calculating wake trajectory ...
 Calculating source influence matrix ...

 Solving BL system ...

 Side 1  free  transition at x/c =  0.3833   46
 Side 2 forced transition at x/c =  1.0000   74

   1   rms: 0.1228E+00   max: 0.1808E+01   C at   46  1   RLX: 0.829
       a =  5.000      CL =  0.8408
      Cm = -0.0621     CD =  0.00906   =>   CDf =  0.00548    CDp =  0.00359

 Side 1  free  transition at x/c =  0.2931   41
 Side 2 forced transition at x/c =  1.0000   73

   2   rms: 0.2072E-01   max: -.1399E+00   D at   41  1
       a =  5.000      CL =  0.8436
      Cm = -0.0610     CD =  0.00951   =>   CDf =  0.00600    CDp =  0.00351

 Side 1  free  transition at x/c =  0.2786   41
 Side 2 forced transition at x/c =  1.0000   73

   3   rms: 0.3065E-02   max: -.4118E-01   C at   41  1
       a =  5.000      CL =  0.8423
      Cm = -0.0608     CD =  0.00960   =>   CDf =  0.00605    CDp =  0.00355

 Side 1  free  transition at x/c =  0.2793   41
 Side 2 forced transition at x/c =  1.0000   73

   4   rms: 0.1317E-03   max: 0.2406E-02   C at   41  1
       a =  5.000      CL =  0.8422
      Cm = -0.0608     CD =  0.00961   =>   CDf =  0.00604    CDp =  0.00356

 Side 1  free  transition at x/c =  0.2792   41
 Side 2 forced transition at x/c =  1.0000   73

   5   rms: 0.7797E-06   max: -.6253E-05   C at   41  1
       a =  5.000      CL =  0.8422
      Cm = -0.0608     CD =  0.00961   =>   CDf =  0.00604    CDp =  0.00356
 plradd ia,ip,cpol           19           0  2.60304403E-03

 Point added to stored polar  1
 Point written to save file  goe507_Re500k.base.pol                          
 Dump file unspecified or not available
 Calculating wake trajectory ...
 Calculating source influence matrix ...

 Solving BL system ...

 Side 1  free  transition at x/c =  0.2792   41
 Side 2 forced transition at x/c =  1.0000   73

   1   rms: 0.1912E+00   max: 0.3179E+01   C at   41  1   RLX: 0.389
       a =  5.500      CL =  0.8557
      Cm = -0.0594     CD =  0.01017   =>   CDf =  0.00604    CDp =  0.00413

 Side 1  free  transition at x/c =  0.2357   38
 Side 2 forced transition at x/c =  1.0000   73

   2   rms: 0.1311E+00   max: 0.2122E+01   C at   38  1   RLX: 0.570
       a =  5.500      CL =  0.8670
      Cm = -0.0581     CD =  0.01071   =>   CDf =  0.00626    CDp =  0.00444

 Side 1  free  transition at x/c =  0.1891   35
 Side 2 forced transition at x/c =  1.0000   73

   3   rms: 0.8396E-01   max: 0.1330E+01   C at   35  1   RLX: 0.730
       a =  5.500      CL =  0.8720
      Cm = -0.0572     CD =  0.01116   =>   CDf =  0.00642    CDp =  0.00475

 Side 1  free  transition at x/c =  0.1339   32
 Side 2 forced transition at x/c =  1.0000   72

   4   rms: 0.5090E-01   max: 0.1144E+01   C at   32  1
       a =  5.500      CL =  0.8728
      Cm = -0.0567     CD =  0.01146   =>   CDf =  0.00680    CDp =  0.00465

 Side 1  free  transition at x/c =  0.1087   30
 Side 2 forced transition at x/c =  1.0000   72

   5   rms: 0.1013E-01   max: -.2429E+00   C at   30  1
       a =  5.500      CL =  0.8726
      Cm = -0.0566     CD =  0.01146   =>   CDf =  0.00697    CDp =  0.00450

 Side 1  free  transition at x/c =  0.1098   30
 Side 2 forced transition at x/c =  1.0000   72

   6   rms: 0.1293E-01   max: -.3152E+00   C at   30  1
       a =  5.500      CL =  0.8726
      Cm = -0.0566     CD =  0.01146   =>   CDf =  0.00696    CDp =  0.00450

 Side 1  free  transition at x/c =  0.1099   30
 Side 2 forced transition at x/c =  1.0000   72

   7   rms: 0.1311E-01   max: -.3197E+00   C at   30  1
       a =  5.500      CL =  0.8726
      Cm = -0.0566     CD =  0.01146   =>   CDf =  0.00696    CDp =  0.00450

 Side 1  free  transition at x/c =  0.1099   30
 Side 2 forced transition at x/c =  1.0000   72

   8   rms: 0.1313E-01   max: -.3202E+00   C at   30  1
       a =  5.500      CL =  0.8726
      Cm = -0.0566     CD =  0.01146   =>   CDf =  0.00696    CDp =  0.00450

 Side 1  free  transition at x/c =  0.1099   30
 Side 2 forced transition at x/c =  1.0000   72

   9   rms: 0.1313E-01   max: -.3201E+00   C at   30  1
       a =  5.500      CL =  0.8726
      Cm = -0.0566     CD =  0.01146   =>   CDf =  0.00696    CDp =  0.00450

 Side 1  free  transition at x/c =  0.1099   30
 Side 2 forced transition at x/c =  1.0000   72

  10   rms: 0.1314E-01   max: -.3202E+00   C at   30  1
       a =  5.500      CL =  0.8726
      Cm = -0.0566     CD =  0.01146   =>   CDf =  0.00696    CDp =  0.00450

 Side 1  free  transition at x/c =  0.1099   30
 Side 2 forced transition at x/c =  1.0000   72

  11   rms: 0.1313E-01   max: -.3201E+00   C at   30  1
       a =  5.500      CL =  0.8726
      Cm = -0.0566     CD =  0.01146   =>   CDf =  0.00696    CDp =  0.00450

 Side 1  free  transition at x/c =  0.1099   30
 Side 2 forced transition at x/c =  1.0000   72

  12   rms: 0.1313E-01   max: -.3201E+00   C at   30  1
       a =  5.500      CL =  0.8726
      Cm = -0.0566     CD =  0.01146   =>   CDf =  0.00696    CDp =  0.00450

 Side 1  free  transition at x/c =  0.1099   30
 Side 2 forced transition at x/c =  1.0000   72

  13   rms: 0.1313E-01   max: -.3201E+00   C at   30  1
       a =  5.500      CL =  0.8726
      Cm = -0.0566     CD =  0.01146   =>   CDf =  0.00696    CDp =  0.00450

 Side 1  free  transition at x/c =  0.1099   30
 Side 2 forced transition at x/c =  1.0000   72

  14   rms: 0.1313E-01   max: -.3201E+00   C at   30  1
       a =  5.500      CL =  0.8726
      Cm = -0.0566     CD =  0.01146   =>   CDf =  0.00696    CDp =  0.00450

 Side 1  free  transition at x/c =  0.1099   30
 Side 2 forced transition at x/c =  1.0000   72

  15   rms: 0.1314E-01   max: -.3202E+00   C at   30  1
       a =  5.500      CL =  0.8726
      Cm = -0.0566     CD =  0.01146   =>   CDf =  0.00696    CDp =  0.00450

 Side 1  free  transition at x/c =  0.1099   30
 Side 2 forced transition at x/c =  1.0000   72

  16   rms: 0.1313E-01   max: -.3201E+00   C at   30  1
       a =  5.500      CL =  0.8726
      Cm = -0.0566     CD =  0.01146   =>   CDf =  0.00696    CDp =  0.00450

 Side 1  free  transition at x/c =  0.1099   30
 Side 2 forced transition at x/c =  1.0000   72

  17   rms: 0.1313E-01   max: -.3201E+00   C at   30  1
       a =  5.500      CL =  0.8726
      Cm = -0.0566     CD =  0.01146   =>   CDf =  0.00696    CDp =  0.00450

 Side 1  free  transition at x/c =  0.1099   30
 Side 2 forced transition at x/c =  1.0000   72

  18   rms: 0.1313E-01   max: -.3201E+00   C at   30  1
       a =  5.500      CL =  0.8726
      Cm = -0.0566     CD =  0.01146   =>   CDf =  0.00696    CDp =  0.00450

 Side 1  free  transition at x/c =  0.1099   30
 Side 2 forced transition at x/c =  1.0000   72

  19   rms: 0.1313E-01   max: -.3201E+00   C at   30  1
       a =  5.500      CL =  0.8726
      Cm = -0.0566     CD =  0.01146   =>   CDf =  0.00696    CDp =  0.00450

 Side 1  free  transition at x/c =  0.1099   30
 Side 2 forced transition at x/c =  1.0000   72

  20   rms: 0.1313E-01   max: -.3201E+00   C at   30  1
       a =  5.500      CL =  0.8726
      Cm = -0.0566     CD =  0.01146   =>   CDf =  0.00696    CDp =  0.00450

 Side 1  free  transition at x/c =  0.1099   30
 Side 2 forced transition at x/c =  1.0000   72

  21   rms: 0.1313E-01   max: -.3201E+00   C at   30  1
       a =  5.500      CL =  0.8726
      Cm = -0.0566     CD =  0.01146   =>   CDf =  0.00696    CDp =  0.00450

 Side 1  free  transition at x/c =  0.1099   30
 Side 2 forced transition at x/c =  1.0000   72

  22   rms: 0.1313E-01   max: -.3201E+00   C at   30  1
       a =  5.500      CL =  0.8726
      Cm = -0.0566     CD =  0.01146   =>   CDf =  0.00696    CDp =  0.00450

 Side 1  free  transition at x/c =  0.1099   30
 Side 2 forced transition at x/c =  1.0000   72

  23   rms: 0.1313E-01   max: -.3201E+00   C at   30  1
       a =  5.500      CL =  0.8726
      Cm = -0.0566     CD =  0.01146   =>   CDf =  0.00696    CDp =  0.00450

 Side 1  free  transition at x/c =  0.1099   30
 Side 2 forced transition at x/c =  1.0000   72

  24   rms: 0.1313E-01   max: -.3201E+00   C at   30  1
       a =  5.500      CL =  0.8726
      Cm = -0.0566     CD =  0.01146   =>   CDf =  0.00696    CDp =  0.00450

 Side 1  free  transition at x/c =  0.1099   30
 Side 2 forced transition at x/c =  1.0000   72

  25   rms: 0.1313E-01   max: -.3201E+00   C at   30  1
       a =  5.500      CL =  0.8726
      Cm = -0.0566     CD =  0.01146   =>   CDf =  0.00696    CDp =  0.00450

 Side 1  free  transition at x/c =  0.1099   30
 Side 2 forced transition at x/c =  1.0000   72

  26   rms: 0.1313E-01   max: -.3201E+00   C at   30  1
       a =  5.500      CL =  0.8726
      Cm = -0.0566     CD =  0.01146   =>   CDf =  0.00696    CDp =  0.00450

 Side 1  free  transition at x/c =  0.1099   30
 Side 2 forced transition at x/c =  1.0000   72

  27   rms: 0.1313E-01   max: -.3201E+00   C at   30  1
       a =  5.500      CL =  0.8726
      Cm = -0.0566     CD =  0.01146   =>   CDf =  0.00696    CDp =  0.00450

 Side 1  free  transition at x/c =  0.1099   30
 Side 2 forced transition at x/c =  1.0000   72

  28   rms: 0.1313E-01   max: -.3201E+00   C at   30  1
       a =  5.500      CL =  0.8726
      Cm = -0.0566     CD =  0.01146   =>   CDf =  0.00696    CDp =  0.00450

 Side 1  free  transition at x/c =  0.1099   30
 Side 2 forced transition at x/c =  1.0000   72

  29   rms: 0.1313E-01   max: -.3201E+00   C at   30  1
       a =  5.500      CL =  0.8726
      Cm = -0.0566     CD =  0.01146   =>   CDf =  0.00696    CDp =  0.00450

 Side 1  free  transition at x/c =  0.1099   30
 Side 2 forced transition at x/c =  1.0000   72

  30   rms: 0.1313E-01   max: -.3201E+00   C at   30  1
       a =  5.500      CL =  0.8726
      Cm = -0.0566     CD =  0.01146   =>   CDf =  0.00696    CDp =  0.00450

 Side 1  free  transition at x/c =  0.1099   30
 Side 2 forced transition at x/c =  1.0000   72

  31   rms: 0.1313E-01   max: -.3201E+00   C at   30  1
       a =  5.500      CL =  0.8726
      Cm = -0.0566     CD =  0.01146   =>   CDf =  0.00696    CDp =  0.00450

 Side 1  free  transition at x/c =  0.1099   30
 Side 2 forced transition at x/c =  1.0000   72

  32   rms: 0.1313E-01   max: -.3201E+00   C at   30  1
       a =  5.500      CL =  0.8726
      Cm = -0.0566     CD =  0.01146   =>   CDf =  0.00696    CDp =  0.00450

 Side 1  free  transition at x/c =  0.1099   30
 Side 2 forced transition at x/c =  1.0000   72

  33   rms: 0.1313E-01   max: -.3201E+00   C at   30  1
       a =  5.500      CL =  0.8726
      Cm = -0.0566     CD =  0.01146   =>   CDf =  0.00696    CDp =  0.00450

 Side 1  free  transition at x/c =  0.1099   30
 Side 2 forced transition at x/c =  1.0000   72

  34   rms: 0.1313E-01   max: -.3201E+00   C at   30  1
       a =  5.500      CL =  0.8726
      Cm = -0.0566     CD =  0.01146   =>   CDf =  0.00696    CDp =  0.00450

 Side 1  free  transition at x/c =  0.1099   30
 Side 2 forced transition at x/c =  1.0000   72

  35   rms: 0.1313E-01   max: -.3201E+00   C at   30  1
       a =  5.500      CL =  0.8726
      Cm = -0.0566     CD =  0.01146   =>   CDf =  0.00696    CDp =  0.00450

 Side 1  free  transition at x/c =  0.1099   30
 Side 2 forced transition at x/c =  1.0000   72

  36   rms: 0.1313E-01   max: -.3201E+00   C at   30  1
       a =  5.500      CL =  0.8726
      Cm = -0.0566     CD =  0.01146   =>   CDf =  0.00696    CDp =  0.00450

 Side 1  free  transition at x/c =  0.1099   30
 Side 2 forced transition at x/c =  1.0000   72

  37   rms: 0.1313E-01   max: -.3201E+00   C at   30  1
       a =  5.500      CL =  0.8726
      Cm = -0.0566     CD =  0.01146   =>   CDf =  0.00696    CDp =  0.00450

 Side 1  free  transition at x/c =  0.1099   30
 Side 2 forced transition at x/c =  1.0000   72

  38   rms: 0.1313E-01   max: -.3201E+00   C at   30  1
       a =  5.500      CL =  0.8726
      Cm = -0.0566     CD =  0.01146   =>   CDf =  0.00696    CDp =  0.00450

 Side 1  free  transition at x/c =  0.1099   30
 Side 2 forced transition at x/c =  1.0000   72

  39   rms: 0.1313E-01   max: -.3201E+00   C at   30  1
       a =  5.500      CL =  0.8726
      Cm = -0.0566     CD =  0.01146   =>   CDf =  0.00696    CDp =  0.00450

 Side 1  free  transition at x/c =  0.1099   30
 Side 2 forced transition at x/c =  1.0000   72

  40   rms: 0.1313E-01   max: -.3201E+00   C at   30  1
       a =  5.500      CL =  0.8726
      Cm = -0.0566     CD =  0.01146   =>   CDf =  0.00696    CDp =  0.00450

 Side 1  free  transition at x/c =  0.1099   30
 Side 2 forced transition at x/c =  1.0000   72

  41   rms: 0.1313E-01   max: -.3201E+00   C at   30  1
       a =  5.500      CL =  0.8726
      Cm = -0.0566     CD =  0.01146   =>   CDf =  0.00696    CDp =  0.00450

 Side 1  free  transition at x/c =  0.1099   30
 Side 2 forced transition at x/c =  1.0000   72

  42   rms: 0.1313E-01   max: -.3201E+00   C at   30  1
       a =  5.500      CL =  0.8726
      Cm = -0.0566     CD =  0.01146   =>   CDf =  0.00696    CDp =  0.00450

 Side 1  free  transition at x/c =  0.1099   30
 Side 2 forced transition at x/c =  1.0000   72

  43   rms: 0.1313E-01   max: -.3201E+00   C at   30  1
       a =  5.500      CL =  0.8726
      Cm = -0.0566     CD =  0.01146   =>   CDf =  0.00696    CDp =  0.00450

 Side 1  free  transition at x/c =  0.1099   30
 Side 2 forced transition at x/c =  1.0000   72

  44   rms: 0.1313E-01   max: -.3201E+00   C at   30  1
       a =  5.500      CL =  0.8726
      Cm = -0.0566     CD =  0.01146   =>   CDf =  0.00696    CDp =  0.00450

 Side 1  free  transition at x/c =  0.1099   30
 Side 2 forced transition at x/c =  1.0000   72

  45   rms: 0.1313E-01   max: -.3201E+00   C at   30  1
       a =  5.500      CL =  0.8726
      Cm = -0.0566     CD =  0.01146   =>   CDf =  0.00696    CDp =  0.00450

 Side 1  free  transition at x/c =  0.1099   30
 Side 2 forced transition at x/c =  1.0000   72

  46   rms: 0.1313E-01   max: -.3201E+00   C at   30  1
       a =  5.500      CL =  0.8726
      Cm = -0.0566     CD =  0.01146   =>   CDf =  0.00696    CDp =  0.00450

 Side 1  free  transition at x/c =  0.1099   30
 Side 2 forced transition at x/c =  1.0000   72

  47   rms: 0.1313E-01   max: -.3201E+00   C at   30  1
       a =  5.500      CL =  0.8726
      Cm = -0.0566     CD =  0.01146   =>   CDf =  0.00696    CDp =  0.00450

 Side 1  free  transition at x/c =  0.1099   30
 Side 2 forced transition at x/c =  1.0000   72

  48   rms: 0.1313E-01   max: -.3201E+00   C at   30  1
       a =  5.500      CL =  0.8726
      Cm = -0.0566     CD =  0.01146   =>   CDf =  0.00696    CDp =  0.00450

 Side 1  free  transition at x/c =  0.1099   30
 Side 2 forced transition at x/c =  1.0000   72

  49   rms: 0.1313E-01   max: -.3201E+00   C at   30  1
       a =  5.500      CL =  0.8726
      Cm = -0.0566     CD =  0.01146   =>   CDf =  0.00696    CDp =  0.00450

 Side 1  free  transition at x/c =  0.1099   30
 Side 2 forced transition at x/c =  1.0000   72

  50   rms: 0.1313E-01   max: -.3201E+00   C at   30  1
       a =  5.500      CL =  0.8726
      Cm = -0.0566     CD =  0.01146   =>   CDf =  0.00696    CDp =  0.00450

 Side 1  free  transition at x/c =  0.1099   30
 Side 2 forced transition at x/c =  1.0000   72

  51   rms: 0.1313E-01   max: -.3201E+00   C at   30  1
       a =  5.500      CL =  0.8726
      Cm = -0.0566     CD =  0.01146   =>   CDf =  0.00696    CDp =  0.00450

 Side 1  free  transition at x/c =  0.1099   30
 Side 2 forced transition at x/c =  1.0000   72

  52   rms: 0.1313E-01   max: -.3201E+00   C at   30  1
       a =  5.500      CL =  0.8726
      Cm = -0.0566     CD =  0.01146   =>   CDf =  0.00696    CDp =  0.00450

 Side 1  free  transition at x/c =  0.1099   30
 Side 2 forced transition at x/c =  1.0000   72

  53   rms: 0.1313E-01   max: -.3201E+00   C at   30  1
       a =  5.500      CL =  0.8726
      Cm = -0.0566     CD =  0.01146   =>   CDf =  0.00696    CDp =  0.00450

 Side 1  free  transition at x/c =  0.1099   30
 Side 2 forced transition at x/c =  1.0000   72

  54   rms: 0.1313E-01   max: -.3201E+00   C at   30  1
       a =  5.500      CL =  0.8726
      Cm = -0.0566     CD =  0.01146   =>   CDf =  0.00696    CDp =  0.00450

 Side 1  free  transition at x/c =  0.1099   30
 Side 2 forced transition at x/c =  1.0000   72

  55   rms: 0.1313E-01   max: -.3201E+00   C at   30  1
       a =  5.500      CL =  0.8726
      Cm = -0.0566     CD =  0.01146   =>   CDf =  0.00696    CDp =  0.00450

 Side 1  free  transition at x/c =  0.1099   30
 Side 2 forced transition at x/c =  1.0000   72

  56   rms: 0.1313E-01   max: -.3202E+00   C at   30  1
       a =  5.500      CL =  0.8726
      Cm = -0.0566     CD =  0.01146   =>   CDf =  0.00696    CDp =  0.00450

 Side 1  free  transition at x/c =  0.1099   30
 Side 2 forced transition at x/c =  1.0000   72

  57   rms: 0.1313E-01   max: -.3201E+00   C at   30  1
       a =  5.500      CL =  0.8726
      Cm = -0.0566     CD =  0.01146   =>   CDf =  0.00696    CDp =  0.00450

 Side 1  free  transition at x/c =  0.1099   30
 Side 2 forced transition at x/c =  1.0000   72

  58   rms: 0.1313E-01   max: -.3201E+00   C at   30  1
       a =  5.500      CL =  0.8726
      Cm = -0.0566     CD =  0.01146   =>   CDf =  0.00696    CDp =  0.00450

 Side 1  free  transition at x/c =  0.1099   30
 Side 2 forced transition at x/c =  1.0000   72

  59   rms: 0.1313E-01   max: -.3201E+00   C at   30  1
       a =  5.500      CL =  0.8726
      Cm = -0.0566     CD =  0.01146   =>   CDf =  0.00696    CDp =  0.00450

 Side 1  free  transition at x/c =  0.1099   30
 Side 2 forced transition at x/c =  1.0000   72

  60   rms: 0.1313E-01   max: -.3201E+00   C at   30  1
       a =  5.500      CL =  0.8726
      Cm = -0.0566     CD =  0.01146   =>   CDf =  0.00696    CDp =  0.00450

 Side 1  free  transition at x/c =  0.1099   30
 Side 2 forced transition at x/c =  1.0000   72

  61   rms: 0.1313E-01   max: -.3201E+00   C at   30  1
       a =  5.500      CL =  0.8726
      Cm = -0.0566     CD =  0.01146   =>   CDf =  0.00696    CDp =  0.00450

 Side 1  free  transition at x/c =  0.1099   30
 Side 2 forced transition at x/c =  1.0000   72

  62   rms: 0.1313E-01   max: -.3201E+00   C at   30  1
       a =  5.500      CL =  0.8726
      Cm = -0.0566     CD =  0.01146   =>   CDf =  0.00696    CDp =  0.00450

 Side 1  free  transition at x/c =  0.1099   30
 Side 2 forced transition at x/c =  1.0000   72

  63   rms: 0.1313E-01   max: -.3201E+00   C at   30  1
       a =  5.500      CL =  0.8726
      Cm = -0.0566     CD =  0.01146   =>   CDf =  0.00696    CDp =  0.00450

 Side 1  free  transition at x/c =  0.1099   30
 Side 2 forced transition at x/c =  1.0000   72

  64   rms: 0.1313E-01   max: -.3201E+00   C at   30  1
       a =  5.500      CL =  0.8726
      Cm = -0.0566     CD =  0.01146   =>   CDf =  0.00696    CDp =  0.00450

 Side 1  free  transition at x/c =  0.1099   30
 Side 2 forced transition at x/c =  1.0000   72

  65   rms: 0.1313E-01   max: -.3201E+00   C at   30  1
       a =  5.500      CL =  0.8726
      Cm = -0.0566     CD =  0.01146   =>   CDf =  0.00696    CDp =  0.00450

 Side 1  free  transition at x/c =  0.1099   30
 Side 2 forced transition at x/c =  1.0000   72

  66   rms: 0.1313E-01   max: -.3201E+00   C at   30  1
       a =  5.500      CL =  0.8726
      Cm = -0.0566     CD =  0.01146   =>   CDf =  0.00696    CDp =  0.00450

 Side 1  free  transition at x/c =  0.1099   30
 Side 2 forced transition at x/c =  1.0000   72

  67   rms: 0.1313E-01   max: -.3201E+00   C at   30  1
       a =  5.500      CL =  0.8726
      Cm = -0.0566     CD =  0.01146   =>   CDf =  0.00696    CDp =  0.00450

 Side 1  free  transition at x/c =  0.1099   30
 Side 2 forced transition at x/c =  1.0000   72

  68   rms: 0.1313E-01   max: -.3201E+00   C at   30  1
       a =  5.500      CL =  0.8726
      Cm = -0.0566     CD =  0.01146   =>   CDf =  0.00696    CDp =  0.00450

 Side 1  free  transition at x/c =  0.1099   30
 Side 2 forced transition at x/c =  1.0000   72

  69   rms: 0.1313E-01   max: -.3201E+00   C at   30  1
       a =  5.500      CL =  0.8726
      Cm = -0.0566     CD =  0.01146   =>   CDf =  0.00696    CDp =  0.00450

 Side 1  free  transition at x/c =  0.1099   30
 Side 2 forced transition at x/c =  1.0000   72

  70   rms: 0.1313E-01   max: -.3201E+00   C at   30  1
       a =  5.500      CL =  0.8726
      Cm = -0.0566     CD =  0.01146   =>   CDf =  0.00696    CDp =  0.00450

 Side 1  free  transition at x/c =  0.1099   30
 Side 2 forced transition at x/c =  1.0000   72

  71   rms: 0.1313E-01   max: -.3201E+00   C at   30  1
       a =  5.500      CL =  0.8726
      Cm = -0.0566     CD =  0.01146   =>   CDf =  0.00696    CDp =  0.00450

 Side 1  free  transition at x/c =  0.1099   30
 Side 2 forced transition at x/c =  1.0000   72

  72   rms: 0.1313E-01   max: -.3201E+00   C at   30  1
       a =  5.500      CL =  0.8726
      Cm = -0.0566     CD =  0.01146   =>   CDf =  0.00696    CDp =  0.00450

 Side 1  free  transition at x/c =  0.1099   30
 Side 2 forced transition at x/c =  1.0000   72

  73   rms: 0.1313E-01   max: -.3201E+00   C at   30  1
       a =  5.500      CL =  0.8726
      Cm = -0.0566     CD =  0.01146   =>   CDf =  0.00696    CDp =  0.00450

 Side 1  free  transition at x/c =  0.1099   30
 Side 2 forced transition at x/c =  1.0000   72

  74   rms: 0.1313E-01   max: -.3201E+00   C at   30  1
       a =  5.500      CL =  0.8726
      Cm = -0.0566     CD =  0.01146   =>   CDf =  0.00696    CDp =  0.00450

 Side 1  free  transition at x/c =  0.1099   30
 Side 2 forced transition at x/c =  1.0000   72

  75   rms: 0.1313E-01   max: -.3201E+00   C at   30  1
       a =  5.500      CL =  0.8726
      Cm = -0.0566     CD =  0.01146   =>   CDf =  0.00696    CDp =  0.00450

 Side 1  free  transition at x/c =  0.1099   30
 Side 2 forced transition at x/c =  1.0000   72

  76   rms: 0.1313E-01   max: -.3201E+00   C at   30  1
       a =  5.500      CL =  0.8726
      Cm = -0.0566     CD =  0.01146   =>   CDf =  0.00696    CDp =  0.00450

 Side 1  free  transition at x/c =  0.1099   30
 Side 2 forced transition at x/c =  1.0000   72

  77   rms: 0.1313E-01   max: -.3201E+00   C at   30  1
       a =  5.500      CL =  0.8726
      Cm = -0.0566     CD =  0.01146   =>   CDf =  0.00696    CDp =  0.00450

 Side 1  free  transition at x/c =  0.1099   30
 Side 2 forced transition at x/c =  1.0000   72

  78   rms: 0.1313E-01   max: -.3201E+00   C at   30  1
       a =  5.500      CL =  0.8726
      Cm = -0.0566     CD =  0.01146   =>   CDf =  0.00696    CDp =  0.00450

 Side 1  free  transition at x/c =  0.1099   30
 Side 2 forced transition at x/c =  1.0000   72

  79   rms: 0.1313E-01   max: -.3201E+00   C at   30  1
       a =  5.500      CL =  0.8726
      Cm = -0.0566     CD =  0.01146   =>   CDf =  0.00696    CDp =  0.00450

 Side 1  free  transition at x/c =  0.1099   30
 Side 2 forced transition at x/c =  1.0000   72

  80   rms: 0.1313E-01   max: -.3201E+00   C at   30  1
       a =  5.500      CL =  0.8726
      Cm = -0.0566     CD =  0.01146   =>   CDf =  0.00696    CDp =  0.00450

 Side 1  free  transition at x/c =  0.1099   30
 Side 2 forced transition at x/c =  1.0000   72

  81   rms: 0.1313E-01   max: -.3201E+00   C at   30  1
       a =  5.500      CL =  0.8726
      Cm = -0.0566     CD =  0.01146   =>   CDf =  0.00696    CDp =  0.00450

 Side 1  free  transition at x/c =  0.1099   30
 Side 2 forced transition at x/c =  1.0000   72

  82   rms: 0.1313E-01   max: -.3201E+00   C at   30  1
       a =  5.500      CL =  0.8726
      Cm = -0.0566     CD =  0.01146   =>   CDf =  0.00696    CDp =  0.00450

 Side 1  free  transition at x/c =  0.1099   30
 Side 2 forced transition at x/c =  1.0000   72

  83   rms: 0.1313E-01   max: -.3201E+00   C at   30  1
       a =  5.500      CL =  0.8726
      Cm = -0.0566     CD =  0.01146   =>   CDf =  0.00696    CDp =  0.00450

 Side 1  free  transition at x/c =  0.1099   30
 Side 2 forced transition at x/c =  1.0000   72

  84   rms: 0.1313E-01   max: -.3201E+00   C at   30  1
       a =  5.500      CL =  0.8726
      Cm = -0.0566     CD =  0.01146   =>   CDf =  0.00696    CDp =  0.00450

 Side 1  free  transition at x/c =  0.1099   30
 Side 2 forced transition at x/c =  1.0000   72

  85   rms: 0.1313E-01   max: -.3201E+00   C at   30  1
       a =  5.500      CL =  0.8726
      Cm = -0.0566     CD =  0.01146   =>   CDf =  0.00696    CDp =  0.00450

 Side 1  free  transition at x/c =  0.1099   30
 Side 2 forced transition at x/c =  1.0000   72

  86   rms: 0.1313E-01   max: -.3201E+00   C at   30  1
       a =  5.500      CL =  0.8726
      Cm = -0.0566     CD =  0.01146   =>   CDf =  0.00696    CDp =  0.00450

 Side 1  free  transition at x/c =  0.1099   30
 Side 2 forced transition at x/c =  1.0000   72

  87   rms: 0.1313E-01   max: -.3201E+00   C at   30  1
       a =  5.500      CL =  0.8726
      Cm = -0.0566     CD =  0.01146   =>   CDf =  0.00696    CDp =  0.00450

 Side 1  free  transition at x/c =  0.1099   30
 Side 2 forced transition at x/c =  1.0000   72

  88   rms: 0.1313E-01   max: -.3201E+00   C at   30  1
       a =  5.500      CL =  0.8726
      Cm = -0.0566     CD =  0.01146   =>   CDf =  0.00696    CDp =  0.00450

 Side 1  free  transition at x/c =  0.1099   30
 Side 2 forced transition at x/c =  1.0000   72

  89   rms: 0.1313E-01   max: -.3201E+00   C at   30  1
       a =  5.500      CL =  0.8726
      Cm = -0.0566     CD =  0.01146   =>   CDf =  0.00696    CDp =  0.00450

 Side 1  free  transition at x/c =  0.1099   30
 Side 2 forced transition at x/c =  1.0000   72

  90   rms: 0.1313E-01   max: -.3201E+00   C at   30  1
       a =  5.500      CL =  0.8726
      Cm = -0.0566     CD =  0.01146   =>   CDf =  0.00696    CDp =  0.00450

 Side 1  free  transition at x/c =  0.1099   30
 Side 2 forced transition at x/c =  1.0000   72

  91   rms: 0.1313E-01   max: -.3201E+00   C at   30  1
       a =  5.500      CL =  0.8726
      Cm = -0.0566     CD =  0.01146   =>   CDf =  0.00696    CDp =  0.00450

 Side 1  free  transition at x/c =  0.1099   30
 Side 2 forced transition at x/c =  1.0000   72

  92   rms: 0.1313E-01   max: -.3201E+00   C at   30  1
       a =  5.500      CL =  0.8726
      Cm = -0.0566     CD =  0.01146   =>   CDf =  0.00696    CDp =  0.00450

 Side 1  free  transition at x/c =  0.1099   30
 Side 2 forced transition at x/c =  1.0000   72

[...]

 Side 1  free  transition at x/c =  0.0120   26
 Side 2 forced transition at x/c =  1.0000   67

   4   rms: 0.5872E-05   max: 0.3643E-04   C at   67  2
       a = 12.750      CL =  1.2908
      Cm = -0.0066     CD =  0.03611   =>   CDf =  0.00572    CDp =  0.03039
 plradd ia,ip,cpol           40           0  6.86931453E-05

 Point added to stored polar  1
 Point written to save file  goe507_Re500k.base.pol                          
 Dump file unspecified or not available
 Calculating wake trajectory ...
 Calculating source influence matrix ...

 Solving BL system ...

 Side 1  free  transition at x/c =  0.0120   26
 Side 2 forced transition at x/c =  1.0000   67

   1   rms: 0.4028E-01   max: 0.1488E+00   T at   26  1   RLX: 0.941
       a = 13.000      CL =  1.2950
      Cm = -0.0053     CD =  0.03831   =>   CDf =  0.00572    CDp =  0.03258

 Side 1  free  transition at x/c =  0.0117   26
 Side 2 forced transition at x/c =  1.0000   67

   2   rms: 0.1091E-01   max: 0.4719E-01   D at   26  1
       a = 13.000      CL =  1.2907
      Cm = -0.0049     CD =  0.03892   =>   CDf =  0.00561    CDp =  0.03332

 Side 1  free  transition at x/c =  0.0116   26
 Side 2 forced transition at x/c =  1.0000   67

   3   rms: 0.8890E-03   max: 0.4078E-02   D at   78  2
       a = 13.000      CL =  1.2902
      Cm = -0.0048     CD =  0.03888   =>   CDf =  0.00560    CDp =  0.03328

 Side 1  free  transition at x/c =  0.0116   26
 Side 2 forced transition at x/c =  1.0000   67

   4   rms: 0.8583E-04   max: 0.2680E-03   T at   26  1
       a = 13.000      CL =  1.2902
      Cm = -0.0048     CD =  0.03888   =>   CDf =  0.00560    CDp =  0.03328
 plradd ia,ip,cpol           41           0  6.86931453E-05

 Point added to stored polar  1
 Point written to save file  goe507_Re500k.base.pol                          
 Dump file unspecified or not available
 Calculating wake trajectory ...
 Calculating source influence matrix ...

 Solving BL system ...

 Side 1  free  transition at x/c =  0.0116   26
 Side 2 forced transition at x/c =  1.0000   67

   1   rms: 0.5713E-01   max: 0.1537E+00   D at   29  1   RLX: 0.886
       a = 13.250      CL =  1.2908
      Cm = -0.0034     CD =  0.04216   =>   CDf =  0.00560    CDp =  0.03656

 Side 1  free  transition at x/c =  0.0115   25
 Side 2 forced transition at x/c =  1.0000   67

   2   rms: 0.1379E-01   max: -.8053E-01   D at   25  1
       a = 13.250      CL =  1.2905
      Cm = -0.0034     CD =  0.04159   =>   CDf =  0.00542    CDp =  0.03617

 Side 1  free  transition at x/c =  0.0115   25
 Side 2 forced transition at x/c =  1.0000   67

   3   rms: 0.1115E-02   max: 0.7026E-02   D at   78  1
       a = 13.250      CL =  1.2904
      Cm = -0.0033     CD =  0.04146   =>   CDf =  0.00542    CDp =  0.03603

 Side 1  free  transition at x/c =  0.0115   25
 Side 2 forced transition at x/c =  1.0000   67

   4   rms: 0.1129E-03   max: 0.4265E-03   D at   79  2
       a = 13.250      CL =  1.2903
      Cm = -0.0033     CD =  0.04145   =>   CDf =  0.00542    CDp =  0.03603

 Side 1  free  transition at x/c =  0.0115   25
 Side 2 forced transition at x/c =  1.0000   67

   5   rms: 0.3283E-05   max: -.4672E-04   C at   67  2
       a = 13.250      CL =  1.2903
      Cm = -0.0033     CD =  0.04145   =>   CDf =  0.00542    CDp =  0.03603
 plradd ia,ip,cpol           42           0  6.86931453E-05

 Point added to stored polar  1
 Point written to save file  goe507_Re500k.base.pol                          
 Dump file unspecified or not available
 Calculating wake trajectory ...
 Calculating source influence matrix ...

 Solving BL system ...

 Side 1  free  transition at x/c =  0.0115   25
 Side 2 forced transition at x/c =  1.0000   67

   1   rms: 0.3475E-01   max: 0.9937E-01   D at   73  1   RLX: 0.848
       a = 13.500      CL =  1.2932
      Cm = -0.0025     CD =  0.04344   =>   CDf =  0.00542    CDp =  0.03802

 Side 1  free  transition at x/c =  0.0114   25
 Side 2 forced transition at x/c =  1.0000   67

   2   rms: 0.6599E-02   max: 0.3247E-01   D at   77  1
       a = 13.500      CL =  1.2911
      Cm = -0.0022     CD =  0.04383   =>   CDf =  0.00526    CDp =  0.03857

 Side 1  free  transition at x/c =  0.0114   25
 Side 2 forced transition at x/c =  1.0000   67

   3   rms: 0.5810E-03   max: 0.4702E-02   D at   79  2
       a = 13.500      CL =  1.2907
      Cm = -0.0022     CD =  0.04379   =>   CDf =  0.00524    CDp =  0.03855

 Side 1  free  transition at x/c =  0.0114   25
 Side 2 forced transition at x/c =  1.0000   67

   4   rms: 0.8650E-05   max: 0.8780E-04   D at   79  2
       a = 13.500      CL =  1.2907
      Cm = -0.0022     CD =  0.04378   =>   CDf =  0.00524    CDp =  0.03855
 plradd ia,ip,cpol           43           0  6.86931453E-05

 Point added to stored polar  1
 Point written to save file  goe507_Re500k.base.pol                          
 Dump file unspecified or not available
 Calculating wake trajectory ...
 Calculating source influence matrix ...

 Solving BL system ...

 Side 1  free  transition at x/c =  0.0114   25
 Side 2 forced transition at x/c =  1.0000   67

   1   rms: 0.3559E-01   max: 0.1094E+00   T at   25  1   RLX: 0.807
       a = 13.750      CL =  1.2919
      Cm = -0.0015     CD =  0.04595   =>   CDf =  0.00524    CDp =  0.04071

 Side 1  free  transition at x/c =  0.0112   25
 Side 2 forced transition at x/c =  1.0000   67

   2   rms: 0.7995E-02   max: 0.4092E-01   D at   75  1
       a = 13.750      CL =  1.2894
      Cm = -0.0013     CD =  0.04649   =>   CDf =  0.00508    CDp =  0.04142

 Side 1  free  transition at x/c =  0.0112   25
 Side 2 forced transition at x/c =  1.0000   67

   3   rms: 0.6248E-03   max: 0.3684E-02   D at   80  2
       a = 13.750      CL =  1.2889
      Cm = -0.0013     CD =  0.04642   =>   CDf =  0.00504    CDp =  0.04138

 Side 1  free  transition at x/c =  0.0112   25
 Side 2 forced transition at x/c =  1.0000   67

   4   rms: 0.1769E-04   max: -.7745E-04   C at   67  2
       a = 13.750      CL =  1.2889
      Cm = -0.0013     CD =  0.04642   =>   CDf =  0.00504    CDp =  0.04137
 plradd ia,ip,cpol           44           0  6.86931453E-05

 Point added to stored polar  1
 Point written to save file  goe507_Re500k.base.pol                          
 Dump file unspecified or not available
 Calculating wake trajectory ...
 Calculating source influence matrix ...

 Solving BL system ...

 Side 1  free  transition at x/c =  0.0112   25
 Side 2 forced transition at x/c =  1.0000   67

   1   rms: 0.3690E-01   max: 0.1167E+00   D at   70  1   RLX: 0.768
       a = 14.000      CL =  1.2887
      Cm = -0.0008     CD =  0.04879   =>   CDf =  0.00464    CDp =  0.04414

 Side 1  free  transition at x/c =  0.0110   26
 Side 2 forced transition at x/c =  1.0000   66

   2   rms: 0.1006E-01   max: 0.4634E-01   D at   75  1
       a = 14.000      CL =  1.2856
      Cm = -0.0007     CD =  0.04953   =>   CDf =  0.00486    CDp =  0.04466

 Side 1  free  transition at x/c =  0.0110   26
 Side 2 forced transition at x/c =  1.0000   66

   3   rms: 0.1275E-02   max: -.9772E-02   D at    4  1
       a = 14.000      CL =  1.2849
      Cm = -0.0006     CD =  0.04943   =>   CDf =  0.00482    CDp =  0.04461

 Side 1  free  transition at x/c =  0.0110   26
 Side 2 forced transition at x/c =  1.0000   66

   4   rms: 0.3577E-04   max: 0.3852E-03   D at   79  2
       a = 14.000      CL =  1.2849
      Cm = -0.0006     CD =  0.04942   =>   CDf =  0.00482    CDp =  0.04460
 plradd ia,ip,cpol           45           0  6.86931453E-05

 Point added to stored polar  1
 Point written to save file  goe507_Re500k.base.pol                          
 Dump file unspecified or not available
 Calculating wake trajectory ...
 Calculating source influence matrix ...

 Solving BL system ...

 Side 1  free  transition at x/c =  0.0110   26
 Side 2 forced transition at x/c =  1.0000   66

   1   rms: 0.3744E-01   max: 0.1227E+00   D at   69  1   RLX: 0.730
       a = 14.250      CL =  1.2838
      Cm = -0.0005     CD =  0.05196   =>   CDf =  0.00483    CDp =  0.04714

 Side 1  free  transition at x/c =  0.0108   26
 Side 2 forced transition at x/c =  1.0000   66

   2   rms: 0.1173E-01   max: 0.5646E-01   D at   73  1
       a = 14.250      CL =  1.2803
      Cm = -0.0004     CD =  0.05288   =>   CDf =  0.00468    CDp =  0.04820

 Side 1  free  transition at x/c =  0.0108   26
 Side 2 forced transition at x/c =  1.0000   66

   3   rms: 0.1234E-02   max: 0.8158E-02   D at   72  1
       a = 14.250      CL =  1.2794
      Cm = -0.0004     CD =  0.05275   =>   CDf =  0.00463    CDp =  0.04812

 Side 1  free  transition at x/c =  0.0108   26
 Side 2 forced transition at x/c =  1.0000   66

   4   rms: 0.3581E-04   max: 0.2436E-03   D at   80  2
       a = 14.250      CL =  1.2794
      Cm = -0.0004     CD =  0.05274   =>   CDf =  0.00463    CDp =  0.04810
 plradd ia,ip,cpol           46           0  6.86931453E-05

 Point added to stored polar  1
 Point written to save file  goe507_Re500k.base.pol                          
 Dump file unspecified or not available
 Calculating wake trajectory ...
 Calculating source influence matrix ...

 Solving BL system ...

 Side 1  free  transition at x/c =  0.0108   26
 Side 2 forced transition at x/c =  1.0000   66

   1   rms: 0.3921E-01   max: 0.1339E+00   D at   68  1   RLX: 0.694
       a = 14.500      CL =  1.2769
      Cm = -0.0005     CD =  0.05557   =>   CDf =  0.00464    CDp =  0.05093

 Side 1  free  transition at x/c =  0.0108   26
 Side 2 forced transition at x/c =  1.0000   66

   2   rms: 0.1431E-01   max: 0.6291E-01   D at   71  1
       a = 14.500      CL =  1.2725
      Cm = -0.0005     CD =  0.05679   =>   CDf =  0.00450    CDp =  0.05229

 Side 1  free  transition at x/c =  0.0107   26
 Side 2 forced transition at x/c =  1.0000   66

   3   rms: 0.1699E-02   max: 0.9876E-02   D at   80  2
       a = 14.500      CL =  1.2713
      Cm = -0.0005     CD =  0.05662   =>   CDf =  0.00444    CDp =  0.05218

 Side 1  free  transition at x/c =  0.0108   26
 Side 2 forced transition at x/c =  1.0000   66

   4   rms: 0.5198E-04   max: 0.7531E-03   D at   80  2
       a = 14.500      CL =  1.2713
      Cm = -0.0005     CD =  0.05659   =>   CDf =  0.00444    CDp =  0.05215
 plradd ia,ip,cpol           47           0  6.86931453E-05

 Point added to stored polar  1
 Point written to save file  goe507_Re500k.base.pol                          
 Dump file unspecified or not available
 Calculating wake trajectory ...
 Calculating source influence matrix ...

 Solving BL system ...

 Side 1  free  transition at x/c =  0.0108   26
 Side 2 forced transition at x/c =  1.0000   66

   1   rms: 0.4019E-01   max: 0.1425E+00   D at   67  1   RLX: 0.659
       a = 14.750      CL =  1.2678
      Cm = -0.0009     CD =  0.05965   =>   CDf =  0.00444    CDp =  0.05520

 Side 1  free  transition at x/c =  0.0107   26
 Side 2 forced transition at x/c =  1.0000   66

   2   rms: 0.1610E-01   max: 0.6928E-01   D at   69  1
       a = 14.750      CL =  1.2627
      Cm = -0.0012     CD =  0.06112   =>   CDf =  0.00431    CDp =  0.05681

 Side 1  free  transition at x/c =  0.0107   26
 Side 2 forced transition at x/c =  1.0000   66

   3   rms: 0.2040E-02   max: 0.1165E-01   D at   80  2
       a = 14.750      CL =  1.2613
      Cm = -0.0011     CD =  0.06088   =>   CDf =  0.00425    CDp =  0.05663

 Side 1  free  transition at x/c =  0.0107   26
 Side 2 forced transition at x/c =  1.0000   66

   4   rms: 0.6067E-04   max: 0.3762E-03   D at   81  2
       a = 14.750      CL =  1.2613
      Cm = -0.0011     CD =  0.06085   =>   CDf =  0.00425    CDp =  0.05660
 plradd ia,ip,cpol           48           0  6.86931453E-05

 Point added to stored polar  1
 Point written to save file  goe507_Re500k.base.pol                          
 Dump file unspecified or not available
 Calculating wake trajectory ...
 Calculating source influence matrix ...

 Solving BL system ...

 Side 1  free  transition at x/c =  0.0107   26
 Side 2 forced transition at x/c =  1.0000   66

   1   rms: 0.4329E-01   max: 0.1564E+00   D at   65  1   RLX: 0.625
       a = 15.000      CL =  1.2562
      Cm = -0.0018     CD =  0.06422   =>   CDf =  0.00425    CDp =  0.05996

 Side 1  free  transition at x/c =  0.0107   26
 Side 2 forced transition at x/c =  1.0000   66

   2   rms: 0.1918E-01   max: 0.8242E-01   D at   67  1
       a = 15.000      CL =  1.2498
      Cm = -0.0024     CD =  0.06618   =>   CDf =  0.00411    CDp =  0.06206

 Side 1  free  transition at x/c =  0.0107   26
 Side 2 forced transition at x/c =  1.0000   66

   3   rms: 0.2592E-02   max: 0.1576E-01   D at   66  1
       a = 15.000      CL =  1.2481
      Cm = -0.0023     CD =  0.06590   =>   CDf =  0.00404    CDp =  0.06186

 Side 1  free  transition at x/c =  0.0107   26
 Side 2 forced transition at x/c =  1.0000   66

   4   rms: 0.9731E-04   max: 0.7739E-03   D at   81  2
       a = 15.000      CL =  1.2481
      Cm = -0.0023     CD =  0.06586   =>   CDf =  0.00404    CDp =  0.06181
 plradd ia,ip,cpol           49           0  6.86931453E-05

 Point added to stored polar  1
 Point written to save file  goe507_Re500k.base.pol                          
 Dump file unspecified or not available
 Calculating wake trajectory ...
 Calculating source influence matrix ...

 Solving BL system ...

 Side 1  free  transition at x/c =  0.0107   26
 Side 2 forced transition at x/c =  1.0000   66

   1   rms: 0.4038E-01   max: 0.1510E+00   D at   63  1   RLX: 0.595
       a = 15.250      CL =  1.2439
      Cm = -0.0034     CD =  0.06916   =>   CDf =  0.00405    CDp =  0.06511

 Side 1  free  transition at x/c =  0.0106   26
 Side 2 forced transition at x/c =  1.0000   66

   2   rms: 0.1815E-01   max: 0.8361E-01   D at   65  1
       a = 15.250      CL =  1.2386
      Cm = -0.0042     CD =  0.07119   =>   CDf =  0.00393    CDp =  0.06726

 Side 1  free  transition at x/c =  0.0106   26
 Side 2 forced transition at x/c =  1.0000   66

   3   rms: 0.2689E-02   max: 0.2020E-01   D at   81  2
       a = 15.250      CL =  1.2370
      Cm = -0.0041     CD =  0.07084   =>   CDf =  0.00386    CDp =  0.06697

 Side 1  free  transition at x/c =  0.0106   26
 Side 2 forced transition at x/c =  1.0000   66

   4   rms: 0.1211E-03   max: 0.1414E-02   D at   81  2
       a = 15.250      CL =  1.2370
      Cm = -0.0041     CD =  0.07079   =>   CDf =  0.00387    CDp =  0.06692

 Side 1  free  transition at x/c =  0.0106   26
 Side 2 forced transition at x/c =  1.0000   66

   5   rms: 0.1075E-04   max: 0.1115E-03   C at   66  2
       a = 15.250      CL =  1.2370
      Cm = -0.0041     CD =  0.07079   =>   CDf =  0.00387    CDp =  0.06693
 plradd ia,ip,cpol           50           0  6.86931453E-05

 Point added to stored polar  1
 Point written to save file  goe507_Re500k.base.pol                          
 Dump file unspecified or not available
 Calculating wake trajectory ...
 Calculating source influence matrix ...

 Solving BL system ...

 Side 1  free  transition at x/c =  0.0106   26
 Side 2 forced transition at x/c =  1.0000   66

   1   rms: 0.4762E-01   max: 0.1795E+00   D at   60  1   RLX: 0.566
       a = 15.500      CL =  1.2305
      Cm = -0.0056     CD =  0.07480   =>   CDf =  0.00387    CDp =  0.07093

 Side 1  free  transition at x/c =  0.0106   26
 Side 2 forced transition at x/c =  1.0000   66

   2   rms: 0.2436E-01   max: 0.1015E+00   D at   62  1
       a = 15.500      CL =  1.2222
      Cm = -0.0069     CD =  0.07773   =>   CDf =  0.00375    CDp =  0.07399

 Side 1  free  transition at x/c =  0.0106   26
 Side 2 forced transition at x/c =  1.0000   66

   3   rms: 0.3505E-02   max: 0.2027E-01   D at   61  1
       a = 15.500      CL =  1.2200
      Cm = -0.0068     CD =  0.07716   =>   CDf =  0.00366    CDp =  0.07350

 Side 1  free  transition at x/c =  0.0106   26
 Side 2 forced transition at x/c =  1.0000   66

   4   rms: 0.1572E-03   max: 0.9992E-03   D at   82  2
       a = 15.500      CL =  1.2200
      Cm = -0.0068     CD =  0.07708   =>   CDf =  0.00366    CDp =  0.07342

 Side 1  free  transition at x/c =  0.0106   26
 Side 2 forced transition at x/c =  1.0000   66

   5   rms: 0.1589E-04   max: 0.1585E-03   C at   66  2
       a = 15.500      CL =  1.2200
      Cm = -0.0068     CD =  0.07708   =>   CDf =  0.00366    CDp =  0.07342
 plradd ia,ip,cpol           51           0  6.86931453E-05

 Point added to stored polar  1
 Point written to save file  goe507_Re500k.base.pol                          
 Dump file unspecified or not available
 Calculating wake trajectory ...
 Calculating source influence matrix ...

 Solving BL system ...

 Side 1  free  transition at x/c =  0.0106   26
 Side 2 forced transition at x/c =  1.0000   66

   1   rms: 0.4847E-01   max: 0.1870E+00   D at   58  1   RLX: 0.538
       a = 15.750      CL =  1.2135
      Cm = -0.0086     CD =  0.08130   =>   CDf =  0.00367    CDp =  0.07764

 Side 1  free  transition at x/c =  0.0105   26
 Side 2 forced transition at x/c =  1.0000   66

   2   rms: 0.2474E-01   max: 0.1107E+00   D at   60  1
       a = 15.750      CL =  1.2053
      Cm = -0.0103     CD =  0.08457   =>   CDf =  0.00355    CDp =  0.08102

 Side 1  free  transition at x/c =  0.0105   26
 Side 2 forced transition at x/c =  1.0000   66

   3   rms: 0.3629E-02   max: 0.2376E-01   D at   59  1
       a = 15.750      CL =  1.2031
      Cm = -0.0101     CD =  0.08384   =>   CDf =  0.00346    CDp =  0.08037

 Side 1  free  transition at x/c =  0.0105   26
 Side 2 forced transition at x/c =  1.0000   66

   4   rms: 0.2294E-03   max: -.1384E-02   D at   59  1
       a = 15.750      CL =  1.2032
      Cm = -0.0101     CD =  0.08374   =>   CDf =  0.00347    CDp =  0.08027

 Side 1  free  transition at x/c =  0.0105   26
 Side 2 forced transition at x/c =  1.0000   66

   5   rms: 0.2288E-04   max: -.1399E-03   D at   82  2
       a = 15.750      CL =  1.2032
      Cm = -0.0101     CD =  0.08375   =>   CDf =  0.00347    CDp =  0.08028
 plradd ia,ip,cpol           52           0  6.86931453E-05

 Point added to stored polar  1
 Point written to save file  goe507_Re500k.base.pol                          
 Dump file unspecified or not available
 Calculating wake trajectory ...
 Calculating source influence matrix ...

 Solving BL system ...

 Side 1  free  transition at x/c =  0.0105   26
 Side 2 forced transition at x/c =  1.0000   66

   1   rms: 0.5514E-01   max: 0.2146E+00   D at   55  1   RLX: 0.512
       a = 16.000      CL =  1.1951
      Cm = -0.0123     CD =  0.08856   =>   CDf =  0.00348    CDp =  0.08509

 Side 1  free  transition at x/c =  0.0106   26
 Side 2 forced transition at x/c =  1.0000   66

   2   rms: 0.2999E-01   max: 0.1278E+00   D at   57  1
       a = 16.000      CL =  1.1846
      Cm = -0.0145     CD =  0.09273   =>   CDf =  0.00336    CDp =  0.08937

 Side 1  free  transition at x/c =  0.0106   26
 Side 2 forced transition at x/c =  1.0000   66

   3   rms: 0.4533E-02   max: 0.2750E-01   D at   82  2
       a = 16.000      CL =  1.1820
      Cm = -0.0143     CD =  0.09172   =>   CDf =  0.00326    CDp =  0.08846

 Side 1  free  transition at x/c =  0.0107   26
 Side 2 forced transition at x/c =  1.0000   66

   4   rms: 0.2769E-03   max: -.1371E-02   D at   56  1
       a = 16.000      CL =  1.1820
      Cm = -0.0142     CD =  0.09160   =>   CDf =  0.00327    CDp =  0.08833

 Side 1  free  transition at x/c =  0.0107   26
 Side 2 forced transition at x/c =  1.0000   66

   5   rms: 0.3261E-04   max: -.1984E-03   D at   82  2
       a = 16.000      CL =  1.1821
      Cm = -0.0143     CD =  0.09161   =>   CDf =  0.00327    CDp =  0.08834
 plradd ia,ip,cpol           53           0  6.86931453E-05

 Point added to stored polar  1
 Point written to save file  goe507_Re500k.base.pol                          
 Dump file unspecified or not available

.OPERva   c>  
 Polar accumulation disabled

.OPERv   c>  
 XFOIL   c>  
 XFOIL   c>  