
 ===================================================
  XFOIL Version 6.99
  Copyright (C) 2000   Mark Drela, Harold Youngren

  This software comes with ABSOLUTELY NO WARRANTY,
    subject to the GNU General Public License.

  Caveat computor
 ===================================================

 File  xfoil.def  not found

   QUIT    Exit program

  .OPER    Direct operating point(s)
  .MDES    Complex mapping design routine
  .QDES    Surface speed design routine
  .GDES    Geometry design routine

   SAVE f  Write airfoil to labeled coordinate file
   PSAV f  Write airfoil to plain coordinate file
   ISAV f  Write airfoil to ISES coordinate file
   MSAV f  Write airfoil to MSES coordinate file
   REVE    Reverse written-airfoil node ordering

   LOAD f  Read buffer airfoil from coordinate file
   NACA i  Set NACA 4,5-digit airfoil and buffer airfoil
   INTE    Set buffer airfoil by interpolating two airfoils
   NORM    Buffer airfoil normalization toggle
   XYCM rr Change CM reference location, currently  0.25000 0.00000

   BEND    Display structural properties of current airfoil

   PCOP    Set current-airfoil panel nodes directly from buffer airfoil points
   PANE    Set current-airfoil panel nodes ( 160 ) based on curvature
  .PPAR    Show/change paneling

  .PLOP    Plotting options

   WDEF f  Write  current-settings file
   RDEF f  Reread current-settings file
   NAME s  Specify new airfoil name
   NINC    Increment name version number

   Z       Zoom    | (available in all menus)
   U       Unzoom  | 

 XFOIL   c>  
 Labeled airfoil file.  Name:  GOE 572 AIRFOIL                                 

 Number of input coordinate points:  33
 Counterclockwise ordering
 Max thickness =     0.186044  at x =   0.298
 Max camber    =     0.079688  at x =   0.301

  LE  x,y  =  -0.00118   0.00508  |   Chord =   1.00119
  TE  x,y  =   1.00000   0.00000  |

 Current airfoil nodes set from buffer airfoil nodes (  33 )

 WARNING: Poor input coordinate distribution
          Excessive panel angle   74.7  at i =  17
          Repaneling with PANE and/or PPAR suggested
           (doing GDES,CADD before repaneling _may_
            improve excessively coarse LE spacing

 XFOIL   c>  
 XFOIL   c>  
 Sharp trailing edge

 Paneling parameters used...
   Number of panel nodes       160
   Panel bunching parameter    1.000
   TE/LE panel density ratio   0.150
   Refined-area/LE panel density ratio    0.200
   Top    side refined area x/c limits  1.000 1.000
   Bottom side refined area x/c limits  1.000 1.000

 XFOIL   c>  
.OPERi   c>  
 Xtr/c     =  1.0000    top    side
 Xtr/c     =  1.0000    bottom side
 Ncrit     =    9.00   ( 0.070 % turb. level )
 Vacc      =  0.0100

 Klag  =  5.6000     Uxwt  =    1.00
 A     =  6.7000     B     =  0.7500       KCt = 0.01485
 CtiniK=  1.8000     CtiniX=  3.3000

..VPAR   c>  
..VPAR   c>  
.OPERi   c>  
 M  =    0.0000
 Re =    150000

.OPERv   c>  
.OPERv   c>  
.OPERv   c>  
 Polar  1 newly created for accumulation
 Airfoil archived with polar: GOE 572 AIRFOIL                                 

Enter  polar save filename  OR  <return> for no file   s>  
 New polar save file available

Enter  polar dump filename  OR  <return> for no file   s>  
 Polar dump file will NOT be written

 Polar accumulation enabled

.OPERva   c>   Calculating unit vorticity distributions ...
 Calculating wake trajectory ...
 Calculating source influence matrix ...

 Solving BL system ...

 Initializing BL ...
    side            1  ...
 MRCHUE: Inverse mode at  36     Hk =   3.829
 MRCHUE: Inverse mode at  37     Hk =   4.382
 MRCHUE: Inverse mode at  38     Hk =   4.921
 MRCHUE: Inverse mode at  39     Hk =   5.448
 MRCHUE: Inverse mode at  40     Hk =   5.965
 MRCHUE: Inverse mode at  41     Hk =   6.476
 MRCHUE: Inverse mode at  42     Hk =   6.980
 MRCHUE: Inverse mode at  43     Hk =   7.478
 MRCHUE: Inverse mode at  44     Hk =   7.971
 MRCHUE: Inverse mode at  45     Hk =   8.458
 MRCHUE: Inverse mode at  46     Hk =   8.940
 MRCHUE: Inverse mode at  47     Hk =   9.416
 MRCHUE: Inverse mode at  48     Hk =   8.054
 MRCHUE: Inverse mode at  49     Hk =   6.344
 MRCHUE: Inverse mode at  50     Hk =   5.165
 MRCHUE: Inverse mode at  51     Hk =   4.257
 MRCHUE: Inverse mode at  52     Hk =   3.522
 MRCHUE: Inverse mode at  75     Hk =   2.500
 MRCHUE: Convergence failed at  76  side 1    Res =  0.1019E+02
    side            2  ...
 MRCHUE: Inverse mode at  23     Hk =   3.935
 MRCHUE: Inverse mode at  24     Hk =   4.471
 MRCHUE: Convergence failed at  25  side 2    Res =  0.7301E+01
 MRCHUE: Inverse mode at  26     Hk =   5.129
 MRCHUE: Convergence failed at  27  side 2    Res =  0.1014E+02
 MRCHUE: Inverse mode at  28     Hk =   5.955
 MRCHUE: Inverse mode at  29     Hk =   6.841
 MRCHUE: Inverse mode at  30     Hk =   7.787
 MRCHUE: Inverse mode at  31     Hk =   8.777
 MRCHUE: Inverse mode at  32     Hk =   7.095
 MRCHUE: Inverse mode at  33     Hk =   3.489
 MRCHUE: Inverse mode at  34     Hk =   2.500
 MRCHUE: Inverse mode at  85     Hk =   2.500
 MRCHUE: Convergence failed at  86  side 2    Res =  0.8006E+01

 MRCHDU: Convergence failed at  76  side 1    Res =  0.1055E+02
 MRCHDU: Convergence failed at  27  side 2    Res =  0.3027E+01
 MRCHDU: Convergence failed at  28  side 2    Res =  0.2354E+01
 MRCHDU: Convergence failed at  29  side 2    Res =  0.4336E+01
 MRCHDU: Convergence failed at  30  side 2    Res =  0.1124E+03
 MRCHDU: Convergence failed at  31  side 2    Res =  0.5349E+01
 MRCHDU: Convergence failed at  32  side 2    Res =  0.1148E+02
 MRCHDU: Convergence failed at  33  side 2    Res =  0.2610E+02
 MRCHDU: Convergence failed at  34  side 2    Res =  0.3407E+02
 MRCHDU: Convergence failed at  35  side 2    Res =  0.2848E+02
 MRCHDU: Convergence failed at  36  side 2    Res =  0.3714E+02
 MRCHDU: Convergence failed at  37  side 2    Res =  0.4756E+02
 MRCHDU: Convergence failed at  38  side 2    Res =  0.4094E+03
 MRCHDU: Convergence failed at  39  side 2    Res =  0.9099E+02
 MRCHDU: Convergence failed at  40  side 2    Res =  0.3573E+02
 MRCHDU: Convergence failed at  41  side 2    Res =  0.4027E+02
 MRCHDU: Convergence failed at  42  side 2    Res =  0.3911E+02
 MRCHDU: Convergence failed at  43  side 2    Res =  0.2546E+02
 MRCHDU: Convergence failed at  44  side 2    Res =  0.2307E+02
 MRCHDU: Convergence failed at  45  side 2    Res =  0.2379E+02
 MRCHDU: Convergence failed at  46  side 2    Res =  0.2268E+02
 MRCHDU: Convergence failed at  47  side 2    Res =  0.2380E+02
 MRCHDU: Convergence failed at  48  side 2    Res =  0.2516E+02
 MRCHDU: Convergence failed at  49  side 2    Res =  0.2624E+02
 MRCHDU: Convergence failed at  50  side 2    Res =  0.2749E+02
 MRCHDU: Convergence failed at  51  side 2    Res =  0.2839E+02
 MRCHDU: Convergence failed at  52  side 2    Res =  0.2940E+02
 MRCHDU: Convergence failed at  53  side 2    Res =  0.3011E+02
 MRCHDU: Convergence failed at  54  side 2    Res =  0.3080E+02
 MRCHDU: Convergence failed at  55  side 2    Res =  0.3100E+02
 MRCHDU: Convergence failed at  56  side 2    Res =  0.3092E+02
 MRCHDU: Convergence failed at  57  side 2    Res =  0.3076E+02
 MRCHDU: Convergence failed at  58  side 2    Res =  0.3040E+02
 MRCHDU: Convergence failed at  59  side 2    Res =  0.3017E+02
 MRCHDU: Convergence failed at  60  side 2    Res =  0.2989E+02
 MRCHDU: Convergence failed at  61  side 2    Res =  0.2987E+02
 MRCHDU: Convergence failed at  62  side 2    Res =  0.2980E+02
 MRCHDU: Convergence failed at  63  side 2    Res =  0.2970E+02
 MRCHDU: Convergence failed at  64  side 2    Res =  0.2942E+02
 MRCHDU: Convergence failed at  65  side 2    Res =  0.2893E+02
 MRCHDU: Convergence failed at  66  side 2    Res =  0.2779E+02
 MRCHDU: Convergence failed at  67  side 2    Res =  0.2623E+02
 MRCHDU: Convergence failed at  68  side 2    Res =  0.2504E+02
 MRCHDU: Convergence failed at  69  side 2    Res =  0.2413E+02
 MRCHDU: Convergence failed at  70  side 2    Res =  0.2390E+02
 MRCHDU: Convergence failed at  71  side 2    Res =  0.2423E+02
 MRCHDU: Convergence failed at  72  side 2    Res =  0.2659E+02
 MRCHDU: Convergence failed at  73  side 2    Res =  0.4366E+02
 MRCHDU: Convergence failed at  74  side 2    Res =  0.5111E+02
 MRCHDU: Convergence failed at  75  side 2    Res =  0.5880E+02
 MRCHDU: Convergence failed at  76  side 2    Res =  0.6779E+02
 MRCHDU: Convergence failed at  77  side 2    Res =  0.7336E+02
 MRCHDU: Convergence failed at  78  side 2    Res =  0.5446E+02
 MRCHDU: Convergence failed at  79  side 2    Res =  0.2575E+02
 MRCHDU: Convergence failed at  80  side 2    Res =  0.2253E+02
 MRCHDU: Convergence failed at  81  side 2    Res =  0.2453E+02
 MRCHDU: Convergence failed at  82  side 2    Res =  0.8715E+02
 MRCHDU: Convergence failed at  83  side 2    Res =  0.1162E+04
 MRCHDU: Convergence failed at  84  side 2    Res =  0.5896E+02
 MRCHDU: Convergence failed at  85  side 2    Res =  0.4066E+02
 MRCHDU: Convergence failed at  86  side 2    Res =  0.1644E+02
 Side 1  free  transition at x/c =  0.5615   48
 Side 2  free  transition at x/c =  0.1151   33

   1   rms: 0.1075E+01   max: 0.3407E+01   D at   88  2   RLX: 0.438
       a = -4.000      CL = -0.3920
      Cm =  0.1017     CD =  0.00734   =>   CDf =  0.00489    CDp =  0.00245

 Side 1  free  transition at x/c =  0.5579   49
 Side 2  free  transition at x/c =  0.0974   31
 idif Ue xi dudx           1  0.10239255      4.87732887E-03   20.993570    
 Uenew xinew           2  2.44857185E-02  1.16634369E-03

   2   rms: 0.6695E+00   max: 0.5411E+01   T at   31  2   RLX: 0.277
       a = -4.000      CL = -0.1972
      Cm =  0.0384     CD =  0.01161   =>   CDf =  0.01336    CDp = -0.00176

 MRCHDU: Convergence failed at  32  side 2    Res =  0.1324E+02
 MRCHDU: Convergence failed at  33  side 2    Res =  0.1439E+02
 MRCHDU: Convergence failed at  34  side 2    Res =  0.1514E+03
 MRCHDU: Convergence failed at  35  side 2    Res =  0.1150E+02
 MRCHDU: Convergence failed at  36  side 2    Res =  0.2019E+02
 MRCHDU: Convergence failed at  37  side 2    Res =  0.2184E+02
 MRCHDU: Convergence failed at  38  side 2    Res =  0.2307E+02
 MRCHDU: Convergence failed at  39  side 2    Res =  0.3460E+02
 MRCHDU: Convergence failed at  40  side 2    Res =  0.3665E+02
 MRCHDU: Convergence failed at  41  side 2    Res =  0.3731E+02
 MRCHDU: Convergence failed at  42  side 2    Res =  0.3497E+02
 MRCHDU: Convergence failed at  43  side 2    Res =  0.3348E+02
 MRCHDU: Convergence failed at  44  side 2    Res =  0.4142E+02
 MRCHDU: Convergence failed at  45  side 2    Res =  0.4857E+02
 MRCHDU: Convergence failed at  46  side 2    Res =  0.6720E+02
 MRCHDU: Convergence failed at  47  side 2    Res =  0.1265E+03
 MRCHDU: Convergence failed at  48  side 2    Res =  0.1653E+03
 MRCHDU: Convergence failed at  49  side 2    Res =  0.1597E+03
 MRCHDU: Convergence failed at  50  side 2    Res =  0.1778E+03
 MRCHDU: Convergence failed at  51  side 2    Res =  0.5297E+03
 MRCHDU: Convergence failed at  52  side 2    Res =  0.8159E+03
 MRCHDU: Convergence failed at  53  side 2    Res =  0.9006E+04
 MRCHDU: Convergence failed at  54  side 2    Res =  0.5117E+03
 MRCHDU: Convergence failed at  55  side 2    Res =  0.2841E+03
 MRCHDU: Convergence failed at  56  side 2    Res =  0.2171E+03
 MRCHDU: Convergence failed at  57  side 2    Res =  0.1847E+03
 MRCHDU: Convergence failed at  58  side 2    Res =  0.1686E+03
 MRCHDU: Convergence failed at  59  side 2    Res =  0.1578E+03
 MRCHDU: Convergence failed at  60  side 2    Res =  0.1515E+03
 MRCHDU: Convergence failed at  61  side 2    Res =  0.1474E+03
 MRCHDU: Convergence failed at  62  side 2    Res =  0.1449E+03
 MRCHDU: Convergence failed at  63  side 2    Res =  0.1442E+03
 MRCHDU: Convergence failed at  64  side 2    Res =  0.1456E+03
 MRCHDU: Convergence failed at  65  side 2    Res =  0.1500E+03
 MRCHDU: Convergence failed at  66  side 2    Res =  0.1605E+03
 MRCHDU: Convergence failed at  67  side 2    Res =  0.1760E+03
 MRCHDU: Convergence failed at  68  side 2    Res =  0.1974E+03
 MRCHDU: Convergence failed at  69  side 2    Res =  0.2190E+03
 MRCHDU: Convergence failed at  70  side 2    Res =  0.2322E+03
 MRCHDU: Convergence failed at  71  side 2    Res =  0.2238E+03
 MRCHDU: Convergence failed at  72  side 2    Res =  0.1900E+03
 MRCHDU: Convergence failed at  73  side 2    Res =  0.1506E+03
 MRCHDU: Convergence failed at  74  side 2    Res =  0.1445E+03
 MRCHDU: Convergence failed at  75  side 2    Res =  0.1164E+03
 MRCHDU: Convergence failed at  76  side 2    Res =  0.1014E+03
 MRCHDU: Convergence failed at  77  side 2    Res =  0.9670E+02
 MRCHDU: Convergence failed at  78  side 2    Res =  0.1075E+03
 MRCHDU: Convergence failed at  79  side 2    Res =  0.1299E+03
 MRCHDU: Convergence failed at  80  side 2    Res =  0.1465E+03
 MRCHDU: Convergence failed at  81  side 2    Res =  0.1313E+03
 MRCHDU: Convergence failed at  82  side 2    Res =  0.1022E+03
 MRCHDU: Convergence failed at  83  side 2    Res =  0.7708E+02
 MRCHDU: Convergence failed at  84  side 2    Res =  0.5413E+02
 MRCHDU: Convergence failed at  85  side 2    Res =  0.6832E+02
 MRCHDU: Convergence failed at  86  side 2    Res =  0.3757E+02
 Side 1  free  transition at x/c =  0.5585   48
 Side 2  free  transition at x/c =  0.0823   31

   3   rms: 0.8193E+00   max: 0.1848E+01   D at   90  2   RLX: 0.499
       a = -4.000      CL =  0.0693
      Cm =  0.0042     CD =  0.01391   =>   CDf =  0.00542    CDp =  0.00849

 Side 1  free  transition at x/c =  0.5509   49
 Side 2  free  transition at x/c =  0.0892   29

   4   rms: 0.3178E+00   max: 0.6913E+00   D at   95  2   RLX: 0.587
       a = -4.000      CL =  0.5228
      Cm = -0.1349     CD =  0.03611   =>   CDf =  0.00614    CDp =  0.02997

 Side 1  free  transition at x/c =  0.5455   49
 Side 2  free  transition at x/c =  0.0894   29

   5   rms: 0.7333E+00   max: -.2988E+01   D at   67  2   RLX: 0.167
       a = -4.000      CL =  0.6566
      Cm = -0.1716     CD =  0.03394   =>   CDf =  0.00640    CDp =  0.02755

 MRCHDU: Convergence failed at  66  side 2    Res =  0.8627E-01
 MRCHDU: Convergence failed at  67  side 2    Res =  0.2460E-04
 Side 1  free  transition at x/c =  0.5429   49
 Side 2  free  transition at x/c =  0.0914   29

   6   rms: 0.5008E+00   max: 0.2587E+01   D at   29  2   RLX: 0.512
       a = -4.000      CL =  0.4743
      Cm = -0.1493     CD =  0.03835   =>   CDf =  0.00673    CDp =  0.03162

 Side 1  free  transition at x/c =  0.5464   49
 Side 2  free  transition at x/c =  0.1111   31
 idif Ue xi dudx           1  0.12804140      4.68504429E-03   27.329817    
 Uenew xinew           2  4.00208794E-02  1.46436691E-03

   7   rms: 0.1334E+02   max: 0.1554E+03   T at   31  2   RLX: 0.010
       a = -4.000      CL =  0.4293
      Cm = -0.1435     CD =  0.04175   =>   CDf =  0.00637    CDp =  0.03538

 MRCHDU: Convergence failed at  32  side 2    Res =  0.1678E+02
 MRCHDU: Convergence failed at  33  side 2    Res =  0.2514E+02
 MRCHDU: Convergence failed at  34  side 2    Res =  0.1125E+03
 MRCHDU: Convergence failed at  35  side 2    Res =  0.2573E+03
 MRCHDU: Convergence failed at  36  side 2    Res =  0.7914E+02
 MRCHDU: Convergence failed at  37  side 2    Res =  0.1021E+03
 MRCHDU: Convergence failed at  38  side 2    Res =  0.5194E+02
 MRCHDU: Convergence failed at  39  side 2    Res =  0.7098E+02
 MRCHDU: Convergence failed at  40  side 2    Res =  0.7077E+02
 MRCHDU: Convergence failed at  41  side 2    Res =  0.1585E+03
 MRCHDU: Convergence failed at  42  side 2    Res =  0.6717E+02
 MRCHDU: Convergence failed at  43  side 2    Res =  0.7303E+02
 MRCHDU: Convergence failed at  44  side 2    Res =  0.2053E+03
 MRCHDU: Convergence failed at  45  side 2    Res =  0.1700E+03
 MRCHDU: Convergence failed at  46  side 2    Res =  0.6285E+02
 MRCHDU: Convergence failed at  47  side 2    Res =  0.1701E+03
 MRCHDU: Convergence failed at  48  side 2    Res =  0.5719E+03
 MRCHDU: Convergence failed at  49  side 2    Res =  0.6330E+03
 MRCHDU: Convergence failed at  50  side 2    Res =  0.7137E+03
 MRCHDU: Convergence failed at  51  side 2    Res =  0.4674E+03
 MRCHDU: Convergence failed at  52  side 2    Res =  0.2155E+03
 MRCHDU: Convergence failed at  53  side 2    Res =  0.2266E+03
 MRCHDU: Convergence failed at  54  side 2    Res =  0.2372E+03
 MRCHDU: Convergence failed at  55  side 2    Res =  0.2469E+03
 MRCHDU: Convergence failed at  56  side 2    Res =  0.2552E+03
 MRCHDU: Convergence failed at  57  side 2    Res =  0.2626E+03
 MRCHDU: Convergence failed at  58  side 2    Res =  0.1005E+03
 MRCHDU: Convergence failed at  59  side 2    Res =  0.8060E+02
 MRCHDU: Convergence failed at  60  side 2    Res =  0.1024E+03
 MRCHDU: Convergence failed at  61  side 2    Res =  0.7254E+02
 MRCHDU: Convergence failed at  62  side 2    Res =  0.8895E+02
 MRCHDU: Convergence failed at  63  side 2    Res =  0.9620E+02
 MRCHDU: Convergence failed at  64  side 2    Res =  0.7900E+02
 MRCHDU: Convergence failed at  65  side 2    Res =  0.1011E+03
 MRCHDU: Convergence failed at  66  side 2    Res =  0.8104E+02
 MRCHDU: Convergence failed at  67  side 2    Res =  0.7460E+02
 MRCHDU: Convergence failed at  68  side 2    Res =  0.5887E+02
 MRCHDU: Convergence failed at  69  side 2    Res =  0.5229E+05
 MRCHDU: Convergence failed at  70  side 2    Res =  0.6758E+02
 MRCHDU: Convergence failed at  71  side 2    Res =  0.5982E+02
 MRCHDU: Convergence failed at  72  side 2    Res =  0.7419E+02
 MRCHDU: Convergence failed at  73  side 2    Res =  0.3406E+04
 MRCHDU: Convergence failed at  74  side 2    Res =  0.1310E+04
 MRCHDU: Convergence failed at  75  side 2    Res =  0.9929E+02
 MRCHDU: Convergence failed at  76  side 2    Res =  0.1082E+03
 MRCHDU: Convergence failed at  77  side 2    Res =  0.1228E+03
 MRCHDU: Convergence failed at  78  side 2    Res =  0.8654E+02
 MRCHDU: Convergence failed at  79  side 2    Res =  0.2043E+03
 MRCHDU: Convergence failed at  80  side 2    Res =  0.2902E+03
 MRCHDU: Convergence failed at  81  side 2    Res =  0.1576E+03
 MRCHDU: Convergence failed at  82  side 2    Res =  0.7596E+03
 MRCHDU: Convergence failed at  83  side 2    Res =  0.7166E+03
 MRCHDU: Convergence failed at  84  side 2    Res =  0.1230E+03
 MRCHDU: Convergence failed at  85  side 2    Res =  0.7829E+02
 Side 1  free  transition at x/c =  0.5483   48
 Side 2  free  transition at x/c =  0.1025   31

   8   rms: 0.7384E+00   max: 0.3653E+01   D at   87  2   RLX: 0.186
       a = -4.000      CL = -0.1638
      Cm =  0.0826     CD =  0.01766   =>   CDf =  0.00542    CDp =  0.01224

 Side 1  free  transition at x/c =  0.5444   49
 Side 2  free  transition at x/c =  0.1091   30

   9   rms: 0.5070E+00   max: -.1654E+01   T at    2  1   RLX: 0.302
       a = -4.000      CL =  0.2262
      Cm = -0.0465     CD =  0.06047   =>   CDf =  0.00585    CDp =  0.05463

 Side 1  free  transition at x/c =  0.5477   49
 Side 2  free  transition at x/c =  0.1097   30

  10   rms: 0.3602E+00   max: -.1064E+01   C at  103  2   RLX: 0.470
       a = -4.000      CL =  0.4408
      Cm = -0.1107     CD =  0.06297   =>   CDf =  0.00626    CDp =  0.05671

 Side 1  free  transition at x/c =  0.5469   49
 Side 2  free  transition at x/c =  0.1095   30

  11   rms: 0.3042E+00   max: -.8530E+00   D at   68  2   RLX: 0.586
       a = -4.000      CL =  0.5296
      Cm = -0.1498     CD =  0.05265   =>   CDf =  0.00645    CDp =  0.04620

 Side 1  free  transition at x/c =  0.5449   49
 Side 2  free  transition at x/c =  0.1059   30

  12   rms: 0.5272E+00   max: 0.8407E+01   T at   30  2   RLX: 0.143
       a = -4.000      CL =  0.5576
      Cm = -0.1671     CD =  0.05460   =>   CDf =  0.00621    CDp =  0.04839

 Side 1  free  transition at x/c =  0.5452   49
 Side 2  free  transition at x/c =  0.1004   30

  13   rms: 0.2722E+00   max: -.3488E+01   T at   30  2   RLX: 0.143
       a = -4.000      CL =  0.5342
      Cm = -0.1590     CD =  0.05715   =>   CDf =  0.00614    CDp =  0.05101

 Side 1  free  transition at x/c =  0.5445   49
 Side 2  free  transition at x/c =  0.1120   31
 idif Ue xi dudx           1  0.11887619      4.16243076E-03   28.559319    
 Uenew xinew           2  2.68958341E-02  9.41753387E-04

  14   rms: 0.4507E+00   max: -.1207E+01   D at   59  2   RLX: 0.414
       a = -4.000      CL =  0.4567
      Cm = -0.1626     CD =  0.04532   =>   CDf =  0.00603    CDp =  0.03929

 Side 1  free  transition at x/c =  0.5480   48
 Side 2  free  transition at x/c =  0.1121   32

  15   rms: 0.3313E+00   max: 0.1043E+01   T at   32  2   RLX: 0.530
       a = -4.000      CL =  0.3543
      Cm = -0.1359     CD =  0.03704   =>   CDf =  0.00682    CDp =  0.03022

 Side 1  free  transition at x/c =  0.5508   48
 Side 2  free  transition at x/c =  0.1066   31
 idif Ue xi dudx           1  9.28425416E-02  4.17256355E-03   22.250719    
 Uenew xinew           2  1.02704503E-02  4.61578369E-04

  16   rms: 0.4095E+00   max: 0.8714E+01   T at   31  2   RLX: 0.131
       a = -4.000      CL =  0.3016
      Cm = -0.1276     CD =  0.03662   =>   CDf =  0.00706    CDp =  0.02956

 Side 1  free  transition at x/c =  0.5517   47
 Side 2  free  transition at x/c =  0.1041   32

  17   rms: 0.1291E+01   max: 0.1592E+02   T at   32  2   RLX: 0.094
       a = -4.000      CL =  0.3158
      Cm = -0.1293     CD =  0.03016   =>   CDf =  0.00734    CDp =  0.02282

 Side 1  free  transition at x/c =  0.5523   47
 Side 2  free  transition at x/c =  0.0897   31

  18   rms: 0.1914E+01   max: 0.2524E+02   T at   31  2   RLX: 0.046
       a = -4.000      CL =  0.3116
      Cm = -0.1323     CD =  0.03117   =>   CDf =  0.00726    CDp =  0.02391

 Side 1  free  transition at x/c =  0.5526   47
 Side 2  free  transition at x/c =  0.0838   31

  19   rms: 0.4679E+00   max: 0.2706E+01   D at   33  2   RLX: 0.535
       a = -4.000      CL =  0.1729
      Cm = -0.0919     CD =  0.04209   =>   CDf =  0.00774    CDp =  0.03435

 TRCHEK2: N2 convergence failed.
 x:  0.22893  0.24500  0.24651  N:  8.866  9.000  9.005  Nx:  10.142   dN:-0.215E+00
 TRCHEK2: N2 convergence failed.
 x:  0.22893  0.24466  0.24651  N:  8.866  9.000  9.007  Nx:  10.041   dN:-0.362E-01
 TRCHEK2: N2 convergence failed.
 x:  0.22893  0.24432  0.24651  N:  8.866  9.000  9.010  Nx:   9.733   dN:-0.163E-01
 TRCHEK2: N2 convergence failed.
 x:  0.22893  0.24455  0.24651  N:  8.866  9.000  9.025  Nx:   9.091   dN: 0.261E-01
 TRCHEK2: N2 convergence failed.
 x:  0.22893  0.24431  0.24651  N:  8.866  9.000  9.010  Nx:   9.398   dN:-0.193E-01
 TRCHEK2: N2 convergence failed.
 x:  0.22893  0.24411  0.24651  N:  8.866  9.000  9.012  Nx:   9.197   dN:-0.300E-01
 TRCHEK2: N2 convergence failed.
 x:  0.22893  0.24331  0.24651  N:  8.866  9.000  9.024  Nx:  10.258   dN:-0.553E-02
 TRCHEK2: N2 convergence failed.
 x:  0.22893  0.24410  0.24651  N:  8.866  9.000  9.030  Nx:   9.118   dN: 0.274E-01
 MRCHDU: Convergence failed at  38  side 2    Res =  0.9261E+01
 MRCHDU: Convergence failed at  39  side 2    Res =  0.4410E+02
 MRCHDU: Convergence failed at  40  side 2    Res =  0.5328E+02
 MRCHDU: Convergence failed at  41  side 2    Res =  0.7847E+02
 MRCHDU: Convergence failed at  42  side 2    Res =  0.1884E+03
 MRCHDU: Convergence failed at  43  side 2    Res =  0.1136E+03
 MRCHDU: Convergence failed at  44  side 2    Res =  0.6356E+02
 MRCHDU: Convergence failed at  45  side 2    Res =  0.1624E+03
 MRCHDU: Convergence failed at  46  side 2    Res =  0.3179E+03
 MRCHDU: Convergence failed at  47  side 2    Res =  0.1383E+03
 MRCHDU: Convergence failed at  48  side 2    Res =  0.1494E+03
 MRCHDU: Convergence failed at  49  side 2    Res =  0.1841E+04
 MRCHDU: Convergence failed at  50  side 2    Res =  0.4681E+03
 MRCHDU: Convergence failed at  51  side 2    Res =  0.8961E+02
 MRCHDU: Convergence failed at  52  side 2    Res =  0.6260E+03
 MRCHDU: Convergence failed at  53  side 2    Res =  0.4736E+03
 MRCHDU: Convergence failed at  54  side 2    Res =  0.6368E+03
 MRCHDU: Convergence failed at  55  side 2    Res =  0.9225E+03
 MRCHDU: Convergence failed at  56  side 2    Res =  0.1584E+04
 MRCHDU: Convergence failed at  57  side 2    Res =  0.4875E+04
 MRCHDU: Convergence failed at  58  side 2    Res =  0.7923E+03
 MRCHDU: Convergence failed at  59  side 2    Res =  0.6606E+03
 MRCHDU: Convergence failed at  60  side 2    Res =  0.8675E+03
 MRCHDU: Convergence failed at  61  side 2    Res =  0.6850E+03
 MRCHDU: Convergence failed at  62  side 2    Res =  0.5641E+03
 MRCHDU: Convergence failed at  63  side 2    Res =  0.4822E+03
 MRCHDU: Convergence failed at  64  side 2    Res =  0.4227E+03
 MRCHDU: Convergence failed at  65  side 2    Res =  0.3768E+03
 MRCHDU: Convergence failed at  66  side 2    Res =  0.3391E+03
 MRCHDU: Convergence failed at  67  side 2    Res =  0.3093E+03
 MRCHDU: Convergence failed at  68  side 2    Res =  0.2912E+03
 MRCHDU: Convergence failed at  69  side 2    Res =  0.2784E+03
 MRCHDU: Convergence failed at  70  side 2    Res =  0.2691E+03
 MRCHDU: Convergence failed at  71  side 2    Res =  0.2383E+03
 MRCHDU: Convergence failed at  72  side 2    Res =  0.2339E+03
 MRCHDU: Convergence failed at  73  side 2    Res =  0.2331E+03
 MRCHDU: Convergence failed at  74  side 2    Res =  0.2352E+03
 MRCHDU: Convergence failed at  75  side 2    Res =  0.2364E+03
 MRCHDU: Convergence failed at  76  side 2    Res =  0.2343E+03
 MRCHDU: Convergence failed at  77  side 2    Res =  0.2274E+03
 MRCHDU: Convergence failed at  78  side 2    Res =  0.2145E+03
 MRCHDU: Convergence failed at  79  side 2    Res =  0.2033E+03
 MRCHDU: Convergence failed at  80  side 2    Res =  0.2000E+03
 MRCHDU: Convergence failed at  81  side 2    Res =  0.2069E+03
 MRCHDU: Convergence failed at  82  side 2    Res =  0.2269E+03
 MRCHDU: Convergence failed at  83  side 2    Res =  0.3480E+03
 MRCHDU: Convergence failed at  84  side 2    Res =  0.3922E+03
 MRCHDU: Convergence failed at  85  side 2    Res =  0.6421E+03
 MRCHDU: Convergence failed at  86  side 2    Res =  0.8780E+03
 Side 1  free  transition at x/c =  0.5552   47
 Side 2  free  transition at x/c =  0.2067   38

  20   rms: 0.1206E+01   max: 0.7576E+01   D at   88  2   RLX: 0.198
       a = -4.000      CL = -0.5211
      Cm =  0.1717     CD =  0.01498   =>   CDf =  0.00460    CDp =  0.01038

 MRCHDU: Convergence failed at  87  side 2    Res =  0.3592E+02
 Side 1  free  transition at x/c =  0.5493   48
 Side 2  free  transition at x/c =  0.2037   37

  21   rms: 0.8587E+00   max: 0.7833E+01   T at   37  2   RLX: 0.191
       a = -4.000      CL = -0.1795
      Cm =  0.0397     CD =  0.04824   =>   CDf =  0.00509    CDp =  0.04315

 Side 1  free  transition at x/c =  0.5563   49
 Side 2  free  transition at x/c =  0.2028   37
 idif Ue xi dudx           1  6.23038597E-02  3.91089916E-03   15.930827    
 Uenew xinew           2  3.18479515E-03  1.99913979E-04

  22   rms: 0.5747E+00   max: 0.6198E+01   T at   37  2   RLX: 0.242
       a = -4.000      CL = -0.0338
      Cm = -0.0204     CD =  0.04955   =>   CDf =  0.00556    CDp =  0.04399

 Side 1  free  transition at x/c =  0.5595   48
 Side 2  free  transition at x/c =  0.1833   37

  23   rms: 0.4553E+00   max: 0.2921E+01   T at   37  2   RLX: 0.504
       a = -4.000      CL =  0.2004
      Cm = -0.0912     CD =  0.05104   =>   CDf =  0.00580    CDp =  0.04524

 Side 1  free  transition at x/c =  0.5600   49
 Side 2  free  transition at x/c =  0.1787   35
 idif Ue xi dudx           1  8.67044404E-02  4.67109680E-03   18.561901    
 Uenew xinew           2  1.78214964E-02  9.60111618E-04

  24   rms: 0.1184E+01   max: 0.4970E+01   T at   36  2   RLX: 0.126
       a = -4.000      CL =  0.1657
      Cm = -0.1135     CD =  0.06094   =>   CDf =  0.00598    CDp =  0.05495

 MRCHDU: Convergence failed at  38  side 2    Res =  0.4146E+01
 MRCHDU: Convergence failed at  39  side 2    Res =  0.3752E+01
 MRCHDU: Convergence failed at  40  side 2    Res =  0.5734E+01
 MRCHDU: Convergence failed at  41  side 2    Res =  0.9000E+01
 MRCHDU: Convergence failed at  42  side 2    Res =  0.2079E+02
 MRCHDU: Convergence failed at  43  side 2    Res =  0.3730E+02
 MRCHDU: Convergence failed at  44  side 2    Res =  0.9593E+01
 MRCHDU: Convergence failed at  45  side 2    Res =  0.2004E+02
 MRCHDU: Convergence failed at  46  side 2    Res =  0.3054E+02
 MRCHDU: Convergence failed at  47  side 2    Res =  0.4726E+02
 MRCHDU: Convergence failed at  48  side 2    Res =  0.1622E+03
 MRCHDU: Convergence failed at  49  side 2    Res =  0.5971E+02
 MRCHDU: Convergence failed at  50  side 2    Res =  0.2154E+02
 MRCHDU: Convergence failed at  51  side 2    Res =  0.1754E+02
 MRCHDU: Convergence failed at  52  side 2    Res =  0.2860E+02
 MRCHDU: Convergence failed at  53  side 2    Res =  0.5517E+02
 MRCHDU: Convergence failed at  54  side 2    Res =  0.2092E+03
 MRCHDU: Convergence failed at  55  side 2    Res =  0.1736E+03
 MRCHDU: Convergence failed at  56  side 2    Res =  0.7320E+02
 MRCHDU: Convergence failed at  57  side 2    Res =  0.5006E+02
 MRCHDU: Convergence failed at  58  side 2    Res =  0.3936E+02
 MRCHDU: Convergence failed at  59  side 2    Res =  0.3190E+02
 MRCHDU: Convergence failed at  60  side 2    Res =  0.9040E+01
 MRCHDU: Convergence failed at  61  side 2    Res =  0.1004E+02
 MRCHDU: Convergence failed at  62  side 2    Res =  0.1159E+02
 MRCHDU: Convergence failed at  63  side 2    Res =  0.1376E+02
 MRCHDU: Convergence failed at  64  side 2    Res =  0.1669E+02
 MRCHDU: Convergence failed at  65  side 2    Res =  0.2176E+02
 MRCHDU: Convergence failed at  66  side 2    Res =  0.2961E+02
 MRCHDU: Convergence failed at  67  side 2    Res =  0.5058E+02
 MRCHDU: Convergence failed at  68  side 2    Res =  0.1179E+03
 MRCHDU: Convergence failed at  69  side 2    Res =  0.6147E+03
 MRCHDU: Convergence failed at  70  side 2    Res =  0.8055E+02
 MRCHDU: Convergence failed at  71  side 2    Res =  0.4491E+02
 MRCHDU: Convergence failed at  72  side 2    Res =  0.3248E+02
 MRCHDU: Convergence failed at  73  side 2    Res =  0.2580E+02
 MRCHDU: Convergence failed at  74  side 2    Res =  0.2176E+02
 MRCHDU: Convergence failed at  75  side 2    Res =  0.1875E+02
 MRCHDU: Convergence failed at  76  side 2    Res =  0.9469E+01
 MRCHDU: Convergence failed at  77  side 2    Res =  0.1031E+02
 MRCHDU: Convergence failed at  78  side 2    Res =  0.1141E+02
 MRCHDU: Convergence failed at  79  side 2    Res =  0.1289E+02
 MRCHDU: Convergence failed at  80  side 2    Res =  0.1489E+02
 MRCHDU: Convergence failed at  81  side 2    Res =  0.1792E+02
 MRCHDU: Convergence failed at  82  side 2    Res =  0.2282E+02
 MRCHDU: Convergence failed at  83  side 2    Res =  0.3313E+02
 MRCHDU: Convergence failed at  84  side 2    Res =  0.5928E+02
 MRCHDU: Convergence failed at  85  side 2    Res =  0.6780E+03
 MRCHDU: Convergence failed at  86  side 2    Res =  0.4840E+02
 Side 1  free  transition at x/c =  0.5628   48
 Side 2  free  transition at x/c =  0.1778   36

  25   rms: 0.6873E+00   max: 0.1019E+01   D at   89  2   RLX: 0.730
       a = -4.000      CL =  0.3702
      Cm = -0.0792     CD =  0.02565   =>   CDf =  0.00576    CDp =  0.01988

 MRCHDU: Convergence failed at  56  side 2    Res =  0.6588E-01
 MRCHDU: Convergence failed at  57  side 2    Res =  0.5207E-03
 Side 1  free  transition at x/c =  0.5422   49
 Side 2  free  transition at x/c =  0.2014   36

  26   rms: 0.3950E+00   max: 0.3639E+01   T at   36  2   RLX: 0.412
       a = -4.000      CL =  0.4810
      Cm = -0.1446     CD =  0.04290   =>   CDf =  0.00630    CDp =  0.03661

 Side 1  free  transition at x/c =  0.5444   49
 Side 2  free  transition at x/c =  0.1718   34

  27   rms: 0.2729E+01   max: -.6207E+02   T at   34  2   RLX: 0.008
       a = -4.000      CL =  0.4595
      Cm = -0.1435     CD =  0.04303   =>   CDf =  0.00613    CDp =  0.03690

 Side 1  free  transition at x/c =  0.5442   49
 Side 2  free  transition at x/c =  0.1690   34

  28   rms: 0.4910E+00   max: 0.4940E+01   T at   34  2   RLX: 0.223
       a = -4.000      CL =  0.4766
      Cm = -0.1491     CD =  0.03844   =>   CDf =  0.00613    CDp =  0.03231

 MRCHDU: Convergence failed at  43  side 2    Res =  0.1473E+01
 MRCHDU: Convergence failed at  44  side 2    Res =  0.2279E+01
 MRCHDU: Convergence failed at  45  side 2    Res =  0.2761E+01
 MRCHDU: Convergence failed at  46  side 2    Res =  0.2743E+01
 MRCHDU: Convergence failed at  47  side 2    Res =  0.2494E+01
 MRCHDU: Convergence failed at  48  side 2    Res =  0.2207E+01
 MRCHDU: Convergence failed at  49  side 2    Res =  0.1943E+01
 MRCHDU: Convergence failed at  50  side 2    Res =  0.1707E+01
 MRCHDU: Convergence failed at  51  side 2    Res =  0.1994E+01
 MRCHDU: Convergence failed at  52  side 2    Res =  0.2404E+01
 MRCHDU: Convergence failed at  53  side 2    Res =  0.3057E+01
 MRCHDU: Convergence failed at  54  side 2    Res =  0.4933E+01
 MRCHDU: Convergence failed at  55  side 2    Res =  0.6654E+01
 Side 1  free  transition at x/c =  0.5440   49
 Side 2  free  transition at x/c =  0.1322   32
 idif Ue xi dudx           1  9.78533104E-02  3.58331203E-03   27.308064    
 Uenew xinew           2  9.90285072E-03  3.62634659E-04

  29   rms: 0.4099E+00   max: 0.4754E+01   T at   32  2   RLX: 0.316
       a = -4.000      CL =  0.3785
      Cm = -0.1319     CD =  0.04207   =>   CDf =  0.00613    CDp =  0.03595

 Side 1  free  transition at x/c =  0.5461   48
 Side 2  free  transition at x/c =  0.1277   33

  30   rms: 0.3009E+00   max: 0.2282E+01   T at   33  2   RLX: 0.602
       a = -4.000      CL =  0.3401
      Cm = -0.1233     CD =  0.04639   =>   CDf =  0.00776    CDp =  0.03863

 MRCHDU: Convergence failed at  33  side 2    Res =  0.9677E+01
 MRCHDU: Convergence failed at  34  side 2    Res =  0.3496E+02
 MRCHDU: Convergence failed at  35  side 2    Res =  0.4041E+02
 MRCHDU: Convergence failed at  36  side 2    Res =  0.2534E+03
 MRCHDU: Convergence failed at  37  side 2    Res =  0.5893E+02
 MRCHDU: Convergence failed at  38  side 2    Res =  0.1366E+03
 MRCHDU: Convergence failed at  39  side 2    Res =  0.5661E+02
 MRCHDU: Convergence failed at  40  side 2    Res =  0.4393E+03
 MRCHDU: Convergence failed at  41  side 2    Res =  0.2596E+03
 MRCHDU: Convergence failed at  42  side 2    Res =  0.1970E+03
 MRCHDU: Convergence failed at  43  side 2    Res =  0.1842E+03
 MRCHDU: Convergence failed at  44  side 2    Res =  0.1925E+03
 MRCHDU: Convergence failed at  45  side 2    Res =  0.1733E+03
 MRCHDU: Convergence failed at  46  side 2    Res =  0.2731E+03
 MRCHDU: Convergence failed at  47  side 2    Res =  0.7865E+02
 MRCHDU: Convergence failed at  48  side 2    Res =  0.1620E+04
 MRCHDU: Convergence failed at  49  side 2    Res =  0.2903E+03
 MRCHDU: Convergence failed at  50  side 2    Res =  0.6249E+03
 MRCHDU: Convergence failed at  51  side 2    Res =  0.2185E+04
 MRCHDU: Convergence failed at  52  side 2    Res =  0.4783E+04
 MRCHDU: Convergence failed at  53  side 2    Res =  0.3548E+04
 MRCHDU: Convergence failed at  54  side 2    Res =  0.9551E+02
 MRCHDU: Convergence failed at  55  side 2    Res =  0.8245E+02
 MRCHDU: Convergence failed at  56  side 2    Res =  0.1846E+03
 MRCHDU: Convergence failed at  57  side 2    Res =  0.1373E+03
 MRCHDU: Convergence failed at  58  side 2    Res =  0.1211E+03
 MRCHDU: Convergence failed at  59  side 2    Res =  0.6448E+02
 MRCHDU: Convergence failed at  60  side 2    Res =  0.1896E+03
 MRCHDU: Convergence failed at  61  side 2    Res =  0.1899E+03
 MRCHDU: Convergence failed at  62  side 2    Res =  0.1938E+03
 MRCHDU: Convergence failed at  63  side 2    Res =  0.1718E+03
 MRCHDU: Convergence failed at  64  side 2    Res =  0.1761E+03
 MRCHDU: Convergence failed at  65  side 2    Res =  0.1807E+03
 MRCHDU: Convergence failed at  66  side 2    Res =  0.1853E+03
 MRCHDU: Convergence failed at  67  side 2    Res =  0.1903E+03
 MRCHDU: Convergence failed at  68  side 2    Res =  0.1955E+03
 MRCHDU: Convergence failed at  69  side 2    Res =  0.2009E+03
 MRCHDU: Convergence failed at  70  side 2    Res =  0.2072E+03
 MRCHDU: Convergence failed at  71  side 2    Res =  0.2147E+03
 MRCHDU: Convergence failed at  72  side 2    Res =  0.2235E+03
 MRCHDU: Convergence failed at  73  side 2    Res =  0.2334E+03
 MRCHDU: Convergence failed at  74  side 2    Res =  0.2450E+03
 MRCHDU: Convergence failed at  75  side 2    Res =  0.2575E+03
 MRCHDU: Convergence failed at  76  side 2    Res =  0.2708E+03
 MRCHDU: Convergence failed at  77  side 2    Res =  0.2835E+03
 MRCHDU: Convergence failed at  78  side 2    Res =  0.2995E+03
 MRCHDU: Convergence failed at  79  side 2    Res =  0.3241E+03
 MRCHDU: Convergence failed at  80  side 2    Res =  0.3650E+03
 MRCHDU: Convergence failed at  81  side 2    Res =  0.4350E+03
 MRCHDU: Convergence failed at  82  side 2    Res =  0.5598E+03
 MRCHDU: Convergence failed at  83  side 2    Res =  0.1764E+04
 MRCHDU: Convergence failed at  84  side 2    Res =  0.4275E+03
 MRCHDU: Convergence failed at  85  side 2    Res =  0.2288E+03
 Side 1  free  transition at x/c =  0.5484   48
 Side 2  free  transition at x/c =  0.1218   32

  31   rms: 0.7358E+00   max: 0.3672E+01   D at   87  2   RLX: 0.408
       a = -4.000      CL =  0.0686
      Cm =  0.0227     CD =  0.01969   =>   CDf =  0.00515    CDp =  0.01454

 Side 1  free  transition at x/c =  0.5401   49
 Side 2  free  transition at x/c =  0.1158   31

  32   rms: 0.3857E+00   max: -.1104E+01   C at  102  2   RLX: 0.453
       a = -4.000      CL =  0.4336
      Cm = -0.1003     CD =  0.05403   =>   CDf =  0.00603    CDp =  0.04800

 Side 1  free  transition at x/c =  0.5438   49
 Side 2  free  transition at x/c =  0.1136   31

  33   rms: 0.2989E+00   max: -.8868E+00   C at  101  2   RLX: 0.564
       a = -4.000      CL =  0.5662
      Cm = -0.1406     CD =  0.05281   =>   CDf =  0.00647    CDp =  0.04635

 Side 1  free  transition at x/c =  0.5417   50
 Side 2  free  transition at x/c =  0.1151   30
 idif Ue xi dudx           1  0.11671118      3.75068188E-03   31.117323    
 Uenew xinew           2  2.83960234E-02  9.12547112E-04

  34   rms: 0.2978E+00   max: -.8941E+00   D at   68  2   RLX: 0.559
       a = -4.000      CL =  0.5599
      Cm = -0.1579     CD =  0.05098   =>   CDf =  0.00641    CDp =  0.04457

 Side 1  free  transition at x/c =  0.5431   49
 Side 2  free  transition at x/c =  0.1140   31

  35   rms: 0.3919E+00   max: -.1111E+01   D at   63  2   RLX: 0.450
       a = -4.000      CL =  0.4931
      Cm = -0.1667     CD =  0.04478   =>   CDf =  0.00615    CDp =  0.03863

 Side 1  free  transition at x/c =  0.5461   49
 Side 2  free  transition at x/c =  0.1300   32
 idif Ue xi dudx           1  0.14339626      5.39183617E-03   26.595070    
 Uenew xinew           2  5.77421188E-02  2.17115879E-03

  36   rms: 0.4004E+00   max: -.1227E+01   D at   48  2   RLX: 0.407
       a = -4.000      CL =  0.4206
      Cm = -0.1534     CD =  0.03709   =>   CDf =  0.00657    CDp =  0.03052

 Side 1  free  transition at x/c =  0.5485   48
 Side 2  free  transition at x/c =  0.1242   32

  37   rms: 0.3447E+00   max: 0.7039E+01   T at   32  2   RLX: 0.156
       a = -4.000      CL =  0.3752
      Cm = -0.1448     CD =  0.03817   =>   CDf =  0.00672    CDp =  0.03145

 Side 1  free  transition at x/c =  0.5489   48
 Side 2  free  transition at x/c =  0.1313   33
 idif Ue xi dudx           1  0.11223015      4.84621525E-03   23.158310    
 Uenew xinew           2  2.62900088E-02  1.13523006E-03

  38   rms: 0.4689E+00   max: 0.4358E+01   T at   33  2   RLX: 0.344
       a = -4.000      CL =  0.2903
      Cm = -0.1238     CD =  0.03519   =>   CDf =  0.00675    CDp =  0.02844

 MRCHDU: Convergence failed at  34  side 2    Res =  0.1379E+02
 MRCHDU: Convergence failed at  35  side 2    Res =  0.1261E+03
 MRCHDU: Convergence failed at  36  side 2    Res =  0.1752E+03
 MRCHDU: Convergence failed at  37  side 2    Res =  0.2808E+03
 MRCHDU: Convergence failed at  38  side 2    Res =  0.8054E+02
 MRCHDU: Convergence failed at  39  side 2    Res =  0.1410E+03
 MRCHDU: Convergence failed at  40  side 2    Res =  0.7396E+02
 MRCHDU: Convergence failed at  41  side 2    Res =  0.8018E+03
 MRCHDU: Convergence failed at  42  side 2    Res =  0.1626E+04
 MRCHDU: Convergence failed at  43  side 2    Res =  0.4896E+03
 MRCHDU: Convergence failed at  44  side 2    Res =  0.1781E+05
 MRCHDU: Convergence failed at  45  side 2    Res =  0.3542E+03
 MRCHDU: Convergence failed at  46  side 2    Res =  0.1925E+03
 MRCHDU: Convergence failed at  47  side 2    Res =  0.2332E+03
 MRCHDU: Convergence failed at  48  side 2    Res =  0.7147E+02
 MRCHDU: Convergence failed at  49  side 2    Res =  0.4454E+03
 MRCHDU: Convergence failed at  50  side 2    Res =  0.1012E+03
 MRCHDU: Convergence failed at  51  side 2    Res =  0.8021E+02
 MRCHDU: Convergence failed at  52  side 2    Res =  0.7650E+02
 MRCHDU: Convergence failed at  53  side 2    Res =  0.2956E+04
 MRCHDU: Convergence failed at  54  side 2    Res =  0.1451E+03
 MRCHDU: Convergence failed at  55  side 2    Res =  0.3501E+03
 MRCHDU: Convergence failed at  56  side 2    Res =  0.3604E+03
 MRCHDU: Convergence failed at  57  side 2    Res =  0.5944E+04
 MRCHDU: Convergence failed at  58  side 2    Res =  0.1158E+04
 MRCHDU: Convergence failed at  59  side 2    Res =  0.1335E+04
 MRCHDU: Convergence failed at  60  side 2    Res =  0.4192E+04
 MRCHDU: Convergence failed at  61  side 2    Res =  0.8432E+02
 MRCHDU: Convergence failed at  62  side 2    Res =  0.8384E+02
 MRCHDU: Convergence failed at  63  side 2    Res =  0.8314E+02
 MRCHDU: Convergence failed at  64  side 2    Res =  0.8244E+02
 MRCHDU: Convergence failed at  65  side 2    Res =  0.8755E+02
 MRCHDU: Convergence failed at  66  side 2    Res =  0.1824E+03
 MRCHDU: Convergence failed at  67  side 2    Res =  0.2168E+03
 MRCHDU: Convergence failed at  68  side 2    Res =  0.2099E+03
 MRCHDU: Convergence failed at  69  side 2    Res =  0.7613E+03
 MRCHDU: Convergence failed at  70  side 2    Res =  0.2073E+03
 MRCHDU: Convergence failed at  71  side 2    Res =  0.1671E+03
 MRCHDU: Convergence failed at  72  side 2    Res =  0.1569E+03
 MRCHDU: Convergence failed at  73  side 2    Res =  0.1599E+03
 MRCHDU: Convergence failed at  74  side 2    Res =  0.9547E+02
 MRCHDU: Convergence failed at  75  side 2    Res =  0.9726E+02
 MRCHDU: Convergence failed at  76  side 2    Res =  0.9853E+02
 MRCHDU: Convergence failed at  77  side 2    Res =  0.9893E+02
 MRCHDU: Convergence failed at  78  side 2    Res =  0.9377E+02
 MRCHDU: Convergence failed at  79  side 2    Res =  0.9265E+02
 MRCHDU: Convergence failed at  80  side 2    Res =  0.9254E+02
 MRCHDU: Convergence failed at  81  side 2    Res =  0.9359E+02
 MRCHDU: Convergence failed at  82  side 2    Res =  0.9539E+02
 MRCHDU: Convergence failed at  83  side 2    Res =  0.1645E+03
 MRCHDU: Convergence failed at  84  side 2    Res =  0.9248E+03
 MRCHDU: Convergence failed at  85  side 2    Res =  0.2862E+04
 MRCHDU: Convergence failed at  86  side 2    Res =  0.9046E+03
 MRCHDU: Convergence failed at  88  side 2    Res =  0.7105E-01
 Side 1  free  transition at x/c =  0.5523   47
 Side 2  free  transition at x/c =  0.1171   33

  39   rms: 0.1595E+01   max: 0.1216E+02   D at   88  2   RLX: 0.044
       a = -4.000      CL = -0.6146
      Cm =  0.1956     CD =  0.01426   =>   CDf =  0.00494    CDp =  0.00933

 MRCHDU: Convergence failed at  88  side 2    Res =  0.3999E+00
 MRCHDU: Convergence failed at  89  side 2    Res =  0.8541E+00
 MRCHDU: Convergence failed at  90  side 2    Res =  0.1208E+01
 MRCHDU: Convergence failed at  91  side 2    Res =  0.1417E+01
 MRCHDU: Convergence failed at  92  side 2    Res =  0.1543E+01
 MRCHDU: Convergence failed at  93  side 2    Res =  0.1640E+01
 MRCHDU: Convergence failed at  94  side 2    Res =  0.1836E+01
 MRCHDU: Convergence failed at  95  side 2    Res =  0.1925E+01
 MRCHDU: Convergence failed at  96  side 2    Res =  0.1941E+01
 MRCHDU: Convergence failed at  97  side 2    Res =  0.2012E+01
 MRCHDU: Convergence failed at  98  side 2    Res =  0.2058E+01
 MRCHDU: Convergence failed at  99  side 2    Res =  0.2291E+01
 MRCHDU: Convergence failed at 100  side 2    Res =  0.2493E+01
 MRCHDU: Convergence failed at 101  side 2    Res =  0.2958E+01
 MRCHDU: Convergence failed at 102  side 2    Res =  0.3314E+01
 MRCHDU: Convergence failed at 103  side 2    Res =  0.3528E+01
 MRCHDU: Convergence failed at 104  side 2    Res =  0.3630E+01
 MRCHDU: Convergence failed at 105  side 2    Res =  0.3696E+01
 MRCHDU: Convergence failed at 106  side 2    Res =  0.3752E+01
 MRCHDU: Convergence failed at 107  side 2    Res =  0.3772E+01
 MRCHDU: Convergence failed at 108  side 2    Res =  0.3791E+01
 Side 1  free  transition at x/c =  0.5509   47
 Side 2  free  transition at x/c =  0.1198   33

  40   rms: 0.6789E+00   max: 0.2302E+01   T at   33  2   RLX: 0.361
       a = -4.000      CL =  0.0341
      Cm =  0.0128     CD =  0.00976   =>   CDf =  0.00533    CDp =  0.00443

 Side 1  free  transition at x/c =  0.5398   49
 Side 2  free  transition at x/c =  0.1082   30

  41   rms: 0.6361E+00   max: -.4812E+01   D at    2  1   RLX: 0.104
       a = -4.000      CL =  0.1013
      Cm = -0.0021     CD =  0.01572   =>   CDf =  0.00570    CDp =  0.01001

 Side 1  free  transition at x/c =  0.5387   49
 Side 2  free  transition at x/c =  0.1081   30

  42   rms: 0.4594E+00   max: -.1037E+01   C at  100  2   RLX: 0.482
       a = -4.000      CL =  0.4238
      Cm = -0.0836     CD =  0.01728   =>   CDf =  0.00588    CDp =  0.01140

 Side 1  free  transition at x/c =  0.5370   49
 Side 2  free  transition at x/c =  0.1077   29

  43   rms: 0.3273E+00   max: -.1020E+01   D at  104  2   RLX: 0.490
       a = -4.000      CL =  0.5494
      Cm = -0.1281     CD =  0.02758   =>   CDf =  0.00622    CDp =  0.02135

 Side 1  free  transition at x/c =  0.5390   50
 Side 2  free  transition at x/c =  0.1073   29
 idif Ue xi dudx           1  0.12798183      4.10544872E-03   31.173651    
 Uenew xinew           2  3.95068042E-02  1.26731396E-03

  44   rms: 0.3855E+00   max: -.1163E+01   D at   99  2   RLX: 0.430
       a = -4.000      CL =  0.5324
      Cm = -0.1522     CD =  0.03791   =>   CDf =  0.00638    CDp =  0.03153

 Side 1  free  transition at x/c =  0.5470   49
 Side 2  free  transition at x/c =  0.1087   30

  45   rms: 0.5655E+00   max: -.2086E+01   D at   98  2   RLX: 0.240
       a = -4.000      CL =  0.4887
      Cm = -0.1690     CD =  0.03952   =>   CDf =  0.00626    CDp =  0.03326

 Side 1  free  transition at x/c =  0.5571   50
 Side 2  free  transition at x/c =  0.1286   32

  46   rms: 0.1814E+03   max: -.7284E+03   T at   32  2   RLX: 0.000
       a = -4.000      CL =  0.5351
      Cm = -0.1810     CD =  0.03836   =>   CDf =  0.00638    CDp =  0.03198

 Side 1  free  transition at x/c =  0.5552   49
 Side 2  free  transition at x/c =  0.1299   32
 idif Ue xi dudx           1  0.15567349      5.65755367E-03   27.516043    
 Uenew xinew           2  6.70531914E-02  2.43687630E-03

  47   rms: 0.2965E+01   max: -.9755E+01   D at  100  2   RLX: 0.051
       a = -4.000      CL =  0.4621
      Cm = -0.1939     CD =  0.03136   =>   CDf =  0.00638    CDp =  0.02498

 MRCHDU: Convergence failed at  50  side 1    Res =  0.1615E+02
 MRCHDU: Convergence failed at  51  side 1    Res =  0.7171E+01
 MRCHDU: Convergence failed at  52  side 1    Res =  0.6325E+01
 MRCHDU: Convergence failed at  53  side 1    Res =  0.1190E+02
 MRCHDU: Convergence failed at  54  side 1    Res =  0.2205E+02
 MRCHDU: Convergence failed at  55  side 1    Res =  0.4169E+02
 MRCHDU: Convergence failed at  56  side 1    Res =  0.7340E+02
 MRCHDU: Convergence failed at  57  side 1    Res =  0.1213E+03
 MRCHDU: Convergence failed at  58  side 1    Res =  0.1583E+03
 MRCHDU: Convergence failed at  59  side 1    Res =  0.1620E+03
 MRCHDU: Convergence failed at  60  side 1    Res =  0.1387E+03
 MRCHDU: Convergence failed at  61  side 1    Res =  0.1121E+03
 MRCHDU: Convergence failed at  62  side 1    Res =  0.9044E+02
 MRCHDU: Convergence failed at  63  side 1    Res =  0.7464E+02
 MRCHDU: Convergence failed at  64  side 1    Res =  0.6129E+02
 MRCHDU: Convergence failed at  65  side 1    Res =  0.5362E+02
 MRCHDU: Convergence failed at  66  side 1    Res =  0.4760E+02
 MRCHDU: Convergence failed at  67  side 1    Res =  0.4441E+02
 MRCHDU: Convergence failed at  68  side 1    Res =  0.4321E+02
 MRCHDU: Convergence failed at  69  side 1    Res =  0.4440E+02
 MRCHDU: Convergence failed at  70  side 1    Res =  0.4562E+02
 MRCHDU: Convergence failed at  71  side 1    Res =  0.4280E+02
 MRCHDU: Convergence failed at  72  side 1    Res =  0.3702E+02
 MRCHDU: Convergence failed at  73  side 1    Res =  0.3006E+02
 MRCHDU: Convergence failed at  74  side 1    Res =  0.2394E+02
 MRCHDU: Convergence failed at  75  side 1    Res =  0.1775E+02
 MRCHDU: Convergence failed at  76  side 1    Res =  0.1310E+02
 MRCHDU: Convergence failed at  77  side 1    Res =  0.2123E+03
 Side 1  free  transition at x/c =  0.5726   50
 Side 2  free  transition at x/c =  0.1267   32

  48   rms: 0.7097E+01   max: 0.2394E+02   T at   32  2   RLX: 0.034
       a = -4.000      CL =  0.7653
      Cm = -0.2950     CD =  0.03875   =>   CDf =  0.00369    CDp =  0.03506

 MRCHDU: Convergence failed at  67  side 1    Res =  0.1254E-01
 Side 1  free  transition at x/c =  0.5594   50
 Side 2  free  transition at x/c =  0.1332   32
 idif Ue xi dudx           2  0.19152352      7.52973557E-03   25.435623    
 Uenew xinew           3  0.10960358      4.30905819E-03

  49   rms: 0.4197E+01   max: 0.2252E+02   T at   32  2   RLX: 0.052
       a = -4.000      CL =  0.5518
      Cm = -0.2541     CD =  0.03540   =>   CDf =  0.00531    CDp =  0.03009

 MRCHDU: Convergence failed at  65  side 1    Res =  0.5272E-01
 MRCHDU: Convergence failed at  34  side 2    Res =  0.5218E+02
 MRCHDU: Convergence failed at  35  side 2    Res =  0.1505E+03
 MRCHDU: Convergence failed at  36  side 2    Res =  0.8592E+02
 MRCHDU: Convergence failed at  37  side 2    Res =  0.1014E+03
 MRCHDU: Convergence failed at  38  side 2    Res =  0.9855E+02
 MRCHDU: Convergence failed at  39  side 2    Res =  0.1104E+03
 MRCHDU: Convergence failed at  40  side 2    Res =  0.5441E+02
 MRCHDU: Convergence failed at  41  side 2    Res =  0.1354E+03
 MRCHDU: Convergence failed at  42  side 2    Res =  0.2065E+03
 MRCHDU: Convergence failed at  43  side 2    Res =  0.3328E+03
 MRCHDU: Convergence failed at  44  side 2    Res =  0.1671E+03
 MRCHDU: Convergence failed at  45  side 2    Res =  0.1884E+03
 MRCHDU: Convergence failed at  46  side 2    Res =  0.1893E+03
 MRCHDU: Convergence failed at  47  side 2    Res =  0.2160E+03
 MRCHDU: Convergence failed at  48  side 2    Res =  0.2351E+03
 MRCHDU: Convergence failed at  49  side 2    Res =  0.2559E+03
 MRCHDU: Convergence failed at  50  side 2    Res =  0.2740E+03
 MRCHDU: Convergence failed at  51  side 2    Res =  0.2943E+03
 MRCHDU: Convergence failed at  52  side 2    Res =  0.3001E+03
 MRCHDU: Convergence failed at  53  side 2    Res =  0.3200E+03
 MRCHDU: Convergence failed at  54  side 2    Res =  0.3175E+03
 MRCHDU: Convergence failed at  55  side 2    Res =  0.2939E+03
 MRCHDU: Convergence failed at  56  side 2    Res =  0.4878E+03
 MRCHDU: Convergence failed at  57  side 2    Res =  0.3474E+04
 MRCHDU: Convergence failed at  58  side 2    Res =  0.1998E+06
 MRCHDU: Convergence failed at  59  side 2    Res =  0.2542E+04
 MRCHDU: Convergence failed at  60  side 2    Res =  0.3550E+03
 MRCHDU: Convergence failed at  61  side 2    Res =  0.1220E+03
 MRCHDU: Convergence failed at  62  side 2    Res =  0.3929E+03
 MRCHDU: Convergence failed at  63  side 2    Res =  0.1186E+03
 MRCHDU: Convergence failed at  64  side 2    Res =  0.2757E+03
 MRCHDU: Convergence failed at  65  side 2    Res =  0.2727E+03
 MRCHDU: Convergence failed at  66  side 2    Res =  0.2771E+03
 MRCHDU: Convergence failed at  67  side 2    Res =  0.2949E+03
 MRCHDU: Convergence failed at  68  side 2    Res =  0.3230E+03
 MRCHDU: Convergence failed at  69  side 2    Res =  0.3799E+03
 MRCHDU: Convergence failed at  70  side 2    Res =  0.1334E+03
 MRCHDU: Convergence failed at  71  side 2    Res =  0.6439E+03
 MRCHDU: Convergence failed at  72  side 2    Res =  0.1398E+05
 MRCHDU: Convergence failed at  73  side 2    Res =  0.8105E+03
 MRCHDU: Convergence failed at  74  side 2    Res =  0.3815E+03
 MRCHDU: Convergence failed at  75  side 2    Res =  0.2052E+03
 MRCHDU: Convergence failed at  76  side 2    Res =  0.1663E+03
 MRCHDU: Convergence failed at  77  side 2    Res =  0.1326E+03
 MRCHDU: Convergence failed at  78  side 2    Res =  0.9920E+02
 MRCHDU: Convergence failed at  79  side 2    Res =  0.9364E+02
 MRCHDU: Convergence failed at  80  side 2    Res =  0.9321E+02
 MRCHDU: Convergence failed at  81  side 2    Res =  0.9798E+02
 MRCHDU: Convergence failed at  82  side 2    Res =  0.1061E+03
 MRCHDU: Convergence failed at  83  side 2    Res =  0.1252E+03
 MRCHDU: Convergence failed at  84  side 2    Res =  0.1454E+03
 MRCHDU: Convergence failed at  85  side 2    Res =  0.2261E+03
 MRCHDU: Convergence failed at  86  side 2    Res =  0.3709E+03
 MRCHDU: Convergence failed at 107  side 2    Res =  0.2108E+01
 Side 1  free  transition at x/c =  0.5724   49
 Side 2  free  transition at x/c =  0.1200   33

  50   rms: 0.1007E+01   max: 0.9904E+01   T at   33  2   RLX: 0.151
       a = -4.000      CL = -0.2256
      Cm =  0.0494     CD =  0.00857   =>   CDf =  0.00485    CDp =  0.00372

 MRCHDU: Convergence failed at  66  side 1    Res =  0.7983E-01
 Side 1  free  transition at x/c =  0.5690   49
 Side 2  free  transition at x/c =  0.1107   32

  51   rms: 0.5477E+00   max: -.2240E+01   T at  107  2   RLX: 0.223
       a = -4.000      CL =  0.1358
      Cm = -0.0598     CD =  0.03344   =>   CDf =  0.00510    CDp =  0.02834

 MRCHDU: Convergence failed at  66  side 1    Res =  0.9625E-01
 Side 1  free  transition at x/c =  0.5696   49
 Side 2  free  transition at x/c =  0.1101   32

  52   rms: 0.6003E+00   max: 0.2647E+01   T at   33  2   RLX: 0.301
       a = -4.000      CL =  0.2187
      Cm = -0.0776     CD =  0.03170   =>   CDf =  0.00520    CDp =  0.02650

 Side 1  free  transition at x/c =  0.5754   50
 Side 2  free  transition at x/c =  0.1093   31

  53   rms: 0.5043E+00   max: -.2209E+01   D at   61  1   RLX: 0.226
       a = -4.000      CL =  0.3117
      Cm = -0.1107     CD =  0.02915   =>   CDf =  0.00545    CDp =  0.02370

 MRCHDU: Convergence failed at  57  side 1    Res =  0.3174E+00
 MRCHDU: Convergence failed at  66  side 1    Res =  0.2233E-02
 Side 1  free  transition at x/c =  0.5749   50
 Side 2  free  transition at x/c =  0.1094   31

  54   rms: 0.6922E+00   max: -.6541E+01   T at   31  2   RLX: 0.076
       a = -4.000      CL =  0.3815
      Cm = -0.1353     CD =  0.02952   =>   CDf =  0.00606    CDp =  0.02346

 MRCHDU: Convergence failed at  66  side 1    Res =  0.3487E-01
 Side 1  free  transition at x/c =  0.5737   50
 Side 2  free  transition at x/c =  0.1038   31

  55   rms: 0.5318E+00   max: -.1930E+01   D at  102  2   RLX: 0.259
       a = -4.000      CL =  0.4551
      Cm = -0.1577     CD =  0.01806   =>   CDf =  0.00614    CDp =  0.01192

 MRCHDU: Convergence failed at  67  side 1    Res =  0.7965E-02
 Side 1  free  transition at x/c =  0.5692   50
 Side 2  free  transition at x/c =  0.0932   29
 idif Ue xi dudx           1  0.11087590      4.00948524E-03   27.653400    
 Uenew xinew           2  2.18132194E-02  7.88807869E-04

  56   rms: 0.4940E+00   max: 0.4669E+01   T at    2  1   RLX: 0.228
       a = -4.000      CL =  0.3859
      Cm = -0.1367     CD =  0.02068   =>   CDf =  0.00674    CDp =  0.01393

 Side 1  free  transition at x/c =  0.5638   49
 Side 2  free  transition at x/c =  0.0933   30

  57   rms: 0.3985E+00   max: -.1025E+01   D at  100  2   RLX: 0.488
       a = -4.000      CL =  0.3879
      Cm = -0.1473     CD =  0.01645   =>   CDf =  0.00639    CDp =  0.01006

 Side 1  free  transition at x/c =  0.5557   49
 Side 2  free  transition at x/c =  0.0932   30

  58   rms: 0.2953E+00   max: -.1062E+01   D at   64  2   RLX: 0.471
       a = -4.000      CL =  0.3996
      Cm = -0.1524     CD =  0.01773   =>   CDf =  0.00652    CDp =  0.01121

 Side 1  free  transition at x/c =  0.5521   48
 Side 2  free  transition at x/c =  0.0930   30
 idif Ue xi dudx           1  0.11486622      5.13732433E-03   22.359152    
 Uenew xinew           2  3.18917334E-02  1.42633915E-03

  59   rms: 0.2925E+00   max: 0.1696E+01   T at   31  2   RLX: 0.525
       a = -4.000      CL =  0.2596
      Cm = -0.1126     CD =  0.02658   =>   CDf =  0.00714    CDp =  0.01944

 MRCHDU: Convergence failed at  32  side 2    Res =  0.4745E+02
 MRCHDU: Convergence failed at  33  side 2    Res =  0.2432E+03
 MRCHDU: Convergence failed at  34  side 2    Res =  0.4126E+02
 MRCHDU: Convergence failed at  35  side 2    Res =  0.7650E+02
 MRCHDU: Convergence failed at  36  side 2    Res =  0.8633E+02
 MRCHDU: Convergence failed at  37  side 2    Res =  0.2596E+03
 MRCHDU: Convergence failed at  38  side 2    Res =  0.6582E+03
 MRCHDU: Convergence failed at  39  side 2    Res =  0.1586E+04
 MRCHDU: Convergence failed at  40  side 2    Res =  0.1562E+03
 MRCHDU: Convergence failed at  41  side 2    Res =  0.1508E+03
 MRCHDU: Convergence failed at  42  side 2    Res =  0.1479E+03
 MRCHDU: Convergence failed at  43  side 2    Res =  0.1466E+03
 MRCHDU: Convergence failed at  44  side 2    Res =  0.1479E+03
 MRCHDU: Convergence failed at  45  side 2    Res =  0.1538E+03
 MRCHDU: Convergence failed at  46  side 2    Res =  0.1595E+03
 MRCHDU: Convergence failed at  47  side 2    Res =  0.1646E+03
 MRCHDU: Convergence failed at  48  side 2    Res =  0.1693E+03
 MRCHDU: Convergence failed at  49  side 2    Res =  0.1743E+03
 MRCHDU: Convergence failed at  50  side 2    Res =  0.1790E+03
 MRCHDU: Convergence failed at  51  side 2    Res =  0.1826E+03
 MRCHDU: Convergence failed at  52  side 2    Res =  0.1857E+03
 MRCHDU: Convergence failed at  53  side 2    Res =  0.1885E+03
 MRCHDU: Convergence failed at  54  side 2    Res =  0.1910E+03
 MRCHDU: Convergence failed at  55  side 2    Res =  0.1931E+03
 MRCHDU: Convergence failed at  56  side 2    Res =  0.1949E+03
 MRCHDU: Convergence failed at  57  side 2    Res =  0.1964E+03
 MRCHDU: Convergence failed at  58  side 2    Res =  0.1974E+03
 MRCHDU: Convergence failed at  59  side 2    Res =  0.1979E+03
 MRCHDU: Convergence failed at  60  side 2    Res =  0.1980E+03
 MRCHDU: Convergence failed at  61  side 2    Res =  0.1975E+03
 MRCHDU: Convergence failed at  62  side 2    Res =  0.1961E+03
 MRCHDU: Convergence failed at  63  side 2    Res =  0.1936E+03
 MRCHDU: Convergence failed at  64  side 2    Res =  0.1666E+03
 MRCHDU: Convergence failed at  65  side 2    Res =  0.1789E+03
 MRCHDU: Convergence failed at  66  side 2    Res =  0.3116E+03
 MRCHDU: Convergence failed at  67  side 2    Res =  0.3083E+03
 MRCHDU: Convergence failed at  68  side 2    Res =  0.3070E+03
 MRCHDU: Convergence failed at  69  side 2    Res =  0.3071E+03
 MRCHDU: Convergence failed at  70  side 2    Res =  0.3079E+03
 MRCHDU: Convergence failed at  71  side 2    Res =  0.3096E+03
 MRCHDU: Convergence failed at  72  side 2    Res =  0.3121E+03
 MRCHDU: Convergence failed at  73  side 2    Res =  0.3154E+03
 MRCHDU: Convergence failed at  74  side 2    Res =  0.3191E+03
 MRCHDU: Convergence failed at  75  side 2    Res =  0.3231E+03
 MRCHDU: Convergence failed at  76  side 2    Res =  0.3273E+03
 MRCHDU: Convergence failed at  77  side 2    Res =  0.3312E+03
 MRCHDU: Convergence failed at  78  side 2    Res =  0.3342E+03
 MRCHDU: Convergence failed at  79  side 2    Res =  0.3377E+03
 MRCHDU: Convergence failed at  80  side 2    Res =  0.3434E+03
 MRCHDU: Convergence failed at  81  side 2    Res =  0.3519E+03
 MRCHDU: Convergence failed at  82  side 2    Res =  0.3634E+03
 MRCHDU: Convergence failed at  83  side 2    Res =  0.3755E+03
 MRCHDU: Convergence failed at  84  side 2    Res =  0.4047E+03
 MRCHDU: Convergence failed at  85  side 2    Res =  0.4010E+03
 MRCHDU: Convergence failed at  86  side 2    Res =  0.3931E+03
 MRCHDU: Convergence failed at  88  side 2    Res =  0.6880E-01
 MRCHDU: Convergence failed at 108  side 2    Res =  0.1436E+02
 Side 1  free  transition at x/c =  0.5499   47
 Side 2  free  transition at x/c =  0.0938   32

  60   rms: 0.1448E+01   max: 0.1036E+02   D at   88  2   RLX: 0.145
       a = -4.000      CL = -0.5772
      Cm =  0.1917     CD =  0.01457   =>   CDf =  0.00453    CDp =  0.01004

 Side 1  free  transition at x/c =  0.5458   48
 Side 2  free  transition at x/c =  0.1011   31

  61   rms: 0.1591E+01   max: 0.9116E+01   D at   90  2   RLX: 0.101
       a = -4.000      CL = -0.3327
      Cm =  0.1020     CD =  0.06068   =>   CDf =  0.00510    CDp =  0.05559

 Side 1  free  transition at x/c =  0.5538   48
 Side 2  free  transition at x/c =  0.1023   31

  62   rms: 0.8273E+00   max: 0.3399E+01   D at   87  2   RLX: 0.200
       a = -4.000      CL = -0.1086
      Cm =  0.0399     CD =  0.07096   =>   CDf =  0.00565    CDp =  0.06532

 Side 1  free  transition at x/c =  0.5598   49
 Side 2  free  transition at x/c =  0.1022   31

  63   rms: 0.5817E+00   max: -.1945E+01   C at  107  2   RLX: 0.257
       a = -4.000      CL =  0.1229
      Cm = -0.0221     CD =  0.06731   =>   CDf =  0.00619    CDp =  0.06112

 Side 1  free  transition at x/c =  0.5601   50
 Side 2  free  transition at x/c =  0.1039   30

  64   rms: 0.4925E+00   max: -.1793E+01   D at    2  1   RLX: 0.279
       a = -4.000      CL =  0.3112
      Cm = -0.0716     CD =  0.07082   =>   CDf =  0.00655    CDp =  0.06427

 Side 1  free  transition at x/c =  0.5582   50
 Side 2  free  transition at x/c =  0.1056   30

  65   rms: 0.4007E+00   max: -.1348E+01   C at   99  2   RLX: 0.371
       a = -4.000      CL =  0.4756
      Cm = -0.1155     CD =  0.07294   =>   CDf =  0.00691    CDp =  0.06602

 Side 1  free  transition at x/c =  0.5551   50
 Side 2  free  transition at x/c =  0.1080   29

  66   rms: 0.3683E+00   max: -.1212E+01   C at  103  2   RLX: 0.413
       a = -4.000      CL =  0.5563
      Cm = -0.1431     CD =  0.07019   =>   CDf =  0.00705    CDp =  0.06313

 Side 1  free  transition at x/c =  0.5519   50
 Side 2  free  transition at x/c =  0.1094   29
 idif Ue xi dudx           1  0.10672136      3.49450111E-03   30.539797    
 Uenew xinew           2  2.00452954E-02  6.56366348E-04

  67   rms: 0.3909E+00   max: -.1513E+01   D at  102  2   RLX: 0.330
       a = -4.000      CL =  0.5705
      Cm = -0.1590     CD =  0.07275   =>   CDf =  0.00683    CDp =  0.06592

 Side 1  free  transition at x/c =  0.5514   49
 Side 2  free  transition at x/c =  0.1098   30

  68   rms: 0.3792E+00   max: -.1518E+01   D at  102  2   RLX: 0.329
       a = -4.000      CL =  0.5604
      Cm = -0.1694     CD =  0.06446   =>   CDf =  0.00667    CDp =  0.05779

 Side 1  free  transition at x/c =  0.5518   49
 Side 2  free  transition at x/c =  0.1091   30
 idif Ue xi dudx           1  0.10722428      3.25870514E-03   32.903954    
 Uenew xinew           2  1.25126378E-03  3.80277634E-05

  69   rms: 0.5549E+00   max: -.1810E+01   D at  100  2   RLX: 0.276
       a = -4.000      CL =  0.5336
      Cm = -0.1851     CD =  0.04953   =>   CDf =  0.00639    CDp =  0.04313

 Side 1  free  transition at x/c =  0.5539   48
 Side 2  free  transition at x/c =  0.1093   31

  70   rms: 0.5306E+01   max: 0.9335E+02   D at    2  2   RLX: 0.012
       a = -4.000      CL =  0.5587
      Cm = -0.1983     CD =  0.04635   =>   CDf =  0.00666    CDp =  0.03969

 Side 1  free  transition at x/c =  0.5538   48
 Side 2  free  transition at x/c =  0.1094   31

  71   rms: 0.3266E+00   max: -.1109E+01   D at   63  2   RLX: 0.451
       a = -4.000      CL =  0.4847
      Cm = -0.1770     CD =  0.03818   =>   CDf =  0.00667    CDp =  0.03152

 Side 1  free  transition at x/c =  0.5509   48
 Side 2  free  transition at x/c =  0.1095   31

  72   rms: 0.1805E+00   max: -.8242E+00   D at   79  2   RLX: 0.607
       a = -4.000      CL =  0.3886
      Cm = -0.1428     CD =  0.04361   =>   CDf =  0.00707    CDp =  0.03654

 Side 1  free  transition at x/c =  0.5484   48
 Side 2  free  transition at x/c =  0.1083   31

  73   rms: 0.1879E+00   max: 0.7783E+00   D at   32  2
       a = -4.000      CL =  0.3439
      Cm = -0.1190     CD =  0.04333   =>   CDf =  0.00733    CDp =  0.03601

 MRCHDU: Convergence failed at  43  side 2    Res =  0.2954E+02
 MRCHDU: Convergence failed at  44  side 2    Res =  0.2441E+02
 MRCHDU: Convergence failed at  45  side 2    Res =  0.2721E+02
 MRCHDU: Convergence failed at  46  side 2    Res =  0.2385E+03
 MRCHDU: Convergence failed at  47  side 2    Res =  0.2144E+03
 MRCHDU: Convergence failed at  48  side 2    Res =  0.3784E+03
 MRCHDU: Convergence failed at  49  side 2    Res =  0.6842E+03
 MRCHDU: Convergence failed at  50  side 2    Res =  0.3850E+03
 MRCHDU: Convergence failed at  51  side 2    Res =  0.2759E+03
 MRCHDU: Convergence failed at  52  side 2    Res =  0.1801E+03
 MRCHDU: Convergence failed at  53  side 2    Res =  0.2218E+04
 MRCHDU: Convergence failed at  54  side 2    Res =  0.1878E+03
 MRCHDU: Convergence failed at  55  side 2    Res =  0.1375E+03
 MRCHDU: Convergence failed at  56  side 2    Res =  0.1281E+03
 MRCHDU: Convergence failed at  57  side 2    Res =  0.1193E+03
 MRCHDU: Convergence failed at  58  side 2    Res =  0.1123E+03
 MRCHDU: Convergence failed at  59  side 2    Res =  0.1066E+03
 MRCHDU: Convergence failed at  60  side 2    Res =  0.2123E+03
 MRCHDU: Convergence failed at  61  side 2    Res =  0.1008E+03
 MRCHDU: Convergence failed at  62  side 2    Res =  0.6843E+02
 MRCHDU: Convergence failed at  63  side 2    Res =  0.1300E+03
 MRCHDU: Convergence failed at  64  side 2    Res =  0.6708E+02
 MRCHDU: Convergence failed at  65  side 2    Res =  0.1283E+03
 MRCHDU: Convergence failed at  66  side 2    Res =  0.7939E+02
 MRCHDU: Convergence failed at  67  side 2    Res =  0.7783E+02
 MRCHDU: Convergence failed at  68  side 2    Res =  0.6081E+02
 MRCHDU: Convergence failed at  69  side 2    Res =  0.6583E+02
 MRCHDU: Convergence failed at  70  side 2    Res =  0.6828E+02
 MRCHDU: Convergence failed at  71  side 2    Res =  0.6956E+02
 MRCHDU: Convergence failed at  72  side 2    Res =  0.6964E+02
 MRCHDU: Convergence failed at  73  side 2    Res =  0.6977E+02
 MRCHDU: Convergence failed at  74  side 2    Res =  0.6962E+02
 MRCHDU: Convergence failed at  75  side 2    Res =  0.7012E+02
 MRCHDU: Convergence failed at  76  side 2    Res =  0.7137E+02
 MRCHDU: Convergence failed at  77  side 2    Res =  0.2765E+03
 MRCHDU: Convergence failed at  78  side 2    Res =  0.2552E+04
 MRCHDU: Convergence failed at  79  side 2    Res =  0.3591E+03
 MRCHDU: Convergence failed at  80  side 2    Res =  0.7394E+02
 MRCHDU: Convergence failed at  81  side 2    Res =  0.8533E+02
 MRCHDU: Convergence failed at  82  side 2    Res =  0.2620E+03
 MRCHDU: Convergence failed at  83  side 2    Res =  0.1470E+03
 MRCHDU: Convergence failed at  84  side 2    Res =  0.2581E+03
 MRCHDU: Convergence failed at  85  side 2    Res =  0.1971E+04
 Side 1  free  transition at x/c =  0.5475   48
 Side 2  free  transition at x/c =  0.3535   45

  74   rms: 0.8137E+00   max: 0.7253E+01   T at   45  2   RLX: 0.207
       a = -4.000      CL = -0.1101
      Cm =  0.0694     CD =  0.01568   =>   CDf =  0.00488    CDp =  0.01080

 Side 1  free  transition at x/c =  0.5436   49
 Side 2  free  transition at x/c =  0.3440   44

  75   rms: 0.4392E+00   max: -.1975E+01   T at    2  1   RLX: 0.253
       a = -4.000      CL =  0.1836
      Cm = -0.0446     CD =  0.05175   =>   CDf =  0.00541    CDp =  0.04635

 Side 1  free  transition at x/c =  0.5453   49
 Side 2  free  transition at x/c =  0.2617   39

  76   rms: 0.3896E+00   max: 0.4672E+01   T at   39  2   RLX: 0.292
       a = -4.000      CL =  0.2926
      Cm = -0.0663     CD =  0.05676   =>   CDf =  0.00575    CDp =  0.05102

 Side 1  free  transition at x/c =  0.5451   49
 Side 2  free  transition at x/c =  0.2167   37

  77   rms: 0.3106E+00   max: 0.1531E+01   T at   37  2   RLX: 0.632
       a = -4.000      CL =  0.5096
      Cm = -0.1251     CD =  0.05408   =>   CDf =  0.00605    CDp =  0.04803

 Side 1  free  transition at x/c =  0.5429   50
 Side 2  free  transition at x/c =  0.2109   35

  78   rms: 0.2487E+00   max: 0.1244E+01   T at   35  2   RLX: 0.623
       a = -4.000      CL =  0.5495
      Cm = -0.1454     CD =  0.05112   =>   CDf =  0.00631    CDp =  0.04481

 Side 1  free  transition at x/c =  0.5415   50
 Side 2  free  transition at x/c =  0.1810   34
 idif Ue xi dudx           1  0.11087730      3.66353989E-03   30.265072    
 Uenew xinew           2  2.49809455E-02  8.25405121E-04

  79   rms: 0.2557E+00   max: -.8042E+00   D at   75  2   RLX: 0.622
       a = -4.000      CL =  0.4931
      Cm = -0.1424     CD =  0.05273   =>   CDf =  0.00615    CDp =  0.04658

 Side 1  free  transition at x/c =  0.5426   49
 Side 2  free  transition at x/c =  0.1773   34

  80   rms: 0.2708E+00   max: -.1230E+01   T at   35  2   RLX: 0.407
       a = -4.000      CL =  0.4809
      Cm = -0.1490     CD =  0.05016   =>   CDf =  0.00590    CDp =  0.04426

 Side 1  free  transition at x/c =  0.5432   49
 Side 2  free  transition at x/c =  0.1588   33

  81   rms: 0.2557E+00   max: 0.9045E+00   T at   33  2   RLX: 0.593
       a = -4.000      CL =  0.3794
      Cm = -0.1337     CD =  0.04814   =>   CDf =  0.00578    CDp =  0.04236

 Side 1  free  transition at x/c =  0.5452   49
 Side 2  free  transition at x/c =  0.1371   32
 idif Ue xi dudx           1  0.10698350      3.87072563E-03   27.639132    
 Uenew xinew           2  1.79667696E-02  6.50048256E-04

  82   rms: 0.2039E+00   max: -.7711E+00   D at   76  2   RLX: 0.648
       a = -4.000      CL =  0.3427
      Cm = -0.1259     CD =  0.04824   =>   CDf =  0.00558    CDp =  0.04266

 Side 1  free  transition at x/c =  0.5460   48
 Side 2  free  transition at x/c =  0.1385   33

  83   rms: 0.1426E+00   max: -.1255E+01   T at   33  2   RLX: 0.398
       a = -4.000      CL =  0.3514
      Cm = -0.1257     CD =  0.04613   =>   CDf =  0.00591    CDp =  0.04022

 Side 1  free  transition at x/c =  0.5462   48
 Side 2  free  transition at x/c =  0.1387   33

  84   rms: 0.1180E+00   max: -.5345E+00   D at   33  2   RLX: 0.935
       a = -4.000      CL =  0.3377
      Cm = -0.1223     CD =  0.04265   =>   CDf =  0.00602    CDp =  0.03663

 Side 1  free  transition at x/c =  0.5470   48
 Side 2  free  transition at x/c =  0.1500   34

  85   rms: 0.1406E+00   max: 0.7972E+00   D at   43  2
       a = -4.000      CL =  0.3110
      Cm = -0.1167     CD =  0.04010   =>   CDf =  0.00736    CDp =  0.03274

 Side 1  free  transition at x/c =  0.5483   48
 Side 2  free  transition at x/c =  0.1481   34

  86   rms: 0.2883E-01   max: -.1477E+00   T at   34  2
       a = -4.000      CL =  0.3233
      Cm = -0.1189     CD =  0.03987   =>   CDf =  0.00646    CDp =  0.03342

 Side 1  free  transition at x/c =  0.5478   48
 Side 2  free  transition at x/c =  0.1493   34

  87   rms: 0.1087E-01   max: -.4834E-01   T at   34  2
       a = -4.000      CL =  0.3251
      Cm = -0.1192     CD =  0.03992   =>   CDf =  0.00651    CDp =  0.03341

 Side 1  free  transition at x/c =  0.5478   48
 Side 2  free  transition at x/c =  0.1499   34

  88   rms: 0.1068E-02   max: -.7336E-02   T at   34  2
       a = -4.000      CL =  0.3255
      Cm = -0.1193     CD =  0.03993   =>   CDf =  0.00655    CDp =  0.03338

 Side 1  free  transition at x/c =  0.5478   48
 Side 2  free  transition at x/c =  0.1500   34

  89   rms: 0.3491E-04   max: -.3516E-03   T at   34  2
       a = -4.000      CL =  0.3255
      Cm = -0.1193     CD =  0.03993   =>   CDf =  0.00655    CDp =  0.03338
 plradd ia,ip,cpol            1           0  2.00683740E-03

 Point added to stored polar  1
 Point written to save file  goe572_Re150k.base.pol                          
 Dump file unspecified or not available
 Calculating wake trajectory ...
 Calculating source influence matrix ...

 Solving BL system ...

 Side 1  free  transition at x/c =  0.5478   48
 Side 2  free  transition at x/c =  0.1500   34

   1   rms: 0.8393E-01   max: -.1005E+01   T at   34  2   RLX: 0.497
       a = -3.500      CL =  0.3384
      Cm = -0.1170     CD =  0.03866   =>   CDf =  0.00656    CDp =  0.03210

 Side 1  free  transition at x/c =  0.5427   48
 Side 2  free  transition at x/c =  0.1566   34

   2   rms: 0.3277E+00   max: -.6194E+01   T at   34  2   RLX: 0.081
       a = -3.500      CL =  0.3344
      Cm = -0.1160     CD =  0.04277   =>   CDf =  0.00640    CDp =  0.03637

 Side 1  free  transition at x/c =  0.5425   48
 Side 2  free  transition at x/c =  0.1545   34

   3   rms: 0.9772E-01   max: -.5653E+00   D at   34  2   RLX: 0.884
       a = -3.500      CL =  0.3393
      Cm = -0.1129     CD =  0.03913   =>   CDf =  0.00633    CDp =  0.03280

 Side 1  free  transition at x/c =  0.5401   48
 Side 2  free  transition at x/c =  0.1599   34

   4   rms: 0.1160E+00   max: -.4928E+00   T at   34  2
       a = -3.500      CL =  0.3267
      Cm = -0.1084     CD =  0.04220   =>   CDf =  0.00659    CDp =  0.03560

 Side 1  free  transition at x/c =  0.5405   48
 Side 2  free  transition at x/c =  0.1605   34

   5   rms: 0.2306E+00   max: 0.9980E+00   D at   35  2
       a = -3.500      CL =  0.3703
      Cm = -0.1154     CD =  0.04220   =>   CDf =  0.00751    CDp =  0.03468

 MRCHDU: Convergence failed at  39  side 2    Res =  0.8322E+02
 MRCHDU: Convergence failed at  40  side 2    Res =  0.2069E+02
 MRCHDU: Convergence failed at  41  side 2    Res =  0.7720E+02
 MRCHDU: Convergence failed at  42  side 2    Res =  0.2357E+03
 MRCHDU: Convergence failed at  43  side 2    Res =  0.5087E+03
 MRCHDU: Convergence failed at  44  side 2    Res =  0.1345E+03
 MRCHDU: Convergence failed at  45  side 2    Res =  0.8225E+02
 MRCHDU: Convergence failed at  46  side 2    Res =  0.6045E+02
 MRCHDU: Convergence failed at  47  side 2    Res =  0.4675E+02
 MRCHDU: Convergence failed at  48  side 2    Res =  0.6542E+02
 MRCHDU: Convergence failed at  49  side 2    Res =  0.6914E+02
 MRCHDU: Convergence failed at  50  side 2    Res =  0.4832E+02
 MRCHDU: Convergence failed at  51  side 2    Res =  0.4158E+02
 MRCHDU: Convergence failed at  52  side 2    Res =  0.2265E+03
 MRCHDU: Convergence failed at  53  side 2    Res =  0.1225E+03
 MRCHDU: Convergence failed at  54  side 2    Res =  0.1094E+03
 MRCHDU: Convergence failed at  55  side 2    Res =  0.9973E+02
 MRCHDU: Convergence failed at  56  side 2    Res =  0.5902E+02
 MRCHDU: Convergence failed at  57  side 2    Res =  0.5367E+02
 MRCHDU: Convergence failed at  58  side 2    Res =  0.1097E+03
 MRCHDU: Convergence failed at  59  side 2    Res =  0.1340E+03
 MRCHDU: Convergence failed at  60  side 2    Res =  0.1274E+03
 MRCHDU: Convergence failed at  61  side 2    Res =  0.9698E+02
 MRCHDU: Convergence failed at  62  side 2    Res =  0.9391E+02
 MRCHDU: Convergence failed at  63  side 2    Res =  0.9127E+02
 MRCHDU: Convergence failed at  64  side 2    Res =  0.8884E+02
 MRCHDU: Convergence failed at  65  side 2    Res =  0.8675E+02
 MRCHDU: Convergence failed at  66  side 2    Res =  0.7457E+02
 MRCHDU: Convergence failed at  67  side 2    Res =  0.7732E+02
 MRCHDU: Convergence failed at  68  side 2    Res =  0.7969E+02
 MRCHDU: Convergence failed at  69  side 2    Res =  0.9243E+02
 MRCHDU: Convergence failed at  70  side 2    Res =  0.9525E+02
 MRCHDU: Convergence failed at  71  side 2    Res =  0.9692E+02
 MRCHDU: Convergence failed at  72  side 2    Res =  0.9859E+02
 MRCHDU: Convergence failed at  73  side 2    Res =  0.1003E+03
 MRCHDU: Convergence failed at  74  side 2    Res =  0.1018E+03
 MRCHDU: Convergence failed at  75  side 2    Res =  0.1025E+03
 MRCHDU: Convergence failed at  76  side 2    Res =  0.1020E+03
 MRCHDU: Convergence failed at  77  side 2    Res =  0.1022E+03
 MRCHDU: Convergence failed at  78  side 2    Res =  0.1051E+03
 MRCHDU: Convergence failed at  79  side 2    Res =  0.1123E+03
 MRCHDU: Convergence failed at  80  side 2    Res =  0.1253E+03
 MRCHDU: Convergence failed at  81  side 2    Res =  0.1541E+03
 MRCHDU: Convergence failed at  82  side 2    Res =  0.1866E+03
 MRCHDU: Convergence failed at  83  side 2    Res =  0.2465E+03
 MRCHDU: Convergence failed at  84  side 2    Res =  0.5856E+03
 Side 1  free  transition at x/c =  0.5390   49
 Side 2  free  transition at x/c =  0.2493   39

   6   rms: 0.1259E+01   max: -.1354E+02   T at   39  2   RLX: 0.037
       a = -3.500      CL = -0.1619
      Cm =  0.0920     CD =  0.01429   =>   CDf =  0.00507    CDp =  0.00922

 Side 1  free  transition at x/c =  0.5385   49
 Side 2  free  transition at x/c =  0.2511   39

   7   rms: 0.1021E+01   max: 0.8689E+01   T at   39  2   RLX: 0.173
       a = -3.500      CL =  0.0187
      Cm =  0.0128     CD =  0.05330   =>   CDf =  0.00538    CDp =  0.04793

 Side 1  free  transition at x/c =  0.5447   49
 Side 2  free  transition at x/c =  0.2126   36

   8   rms: 0.1100E+01   max: 0.1316E+02   T at   37  2   RLX: 0.069
       a = -3.500      CL =  0.0471
      Cm =  0.0013     CD =  0.06324   =>   CDf =  0.00567    CDp =  0.05757

 Side 1  free  transition at x/c =  0.5458   49
 Side 2  free  transition at x/c =  0.2062   36

   9   rms: 0.5040E+00   max: 0.1780E+01   D at   86  2   RLX: 0.387
       a = -3.500      CL =  0.2983
      Cm = -0.0651     CD =  0.06371   =>   CDf =  0.00573    CDp =  0.05798

 Side 1  free  transition at x/c =  0.5451   49
 Side 2  free  transition at x/c =  0.2055   36

  10   rms: 0.3348E+00   max: -.1048E+01   C at  100  2   RLX: 0.477
       a = -3.500      CL =  0.4829
      Cm = -0.1151     CD =  0.05853   =>   CDf =  0.00633    CDp =  0.05219

 Side 1  free  transition at x/c =  0.5401   50
 Side 2  free  transition at x/c =  0.2102   35

  11   rms: 0.2922E+00   max: -.8393E+00   D at   77  2   RLX: 0.596
       a = -3.500      CL =  0.5592
      Cm = -0.1455     CD =  0.05079   =>   CDf =  0.00651    CDp =  0.04428

 TRCHEK2: N2 convergence failed.
 x:  0.78258  0.79775  0.79947  N:  8.966  9.000  9.002  Nx:   2.634   dN:-0.348E+00
 TRCHEK2: N2 convergence failed.
 x:  0.78258  0.79850  0.79947  N:  8.966  9.000  9.000  Nx:   2.418   dN:-0.401E-01
 TRCHEK2: N2 convergence failed.
 x:  0.78258  0.79947  0.79947  N:  8.966  9.000  9.001  Nx:   2.115   dN: 0.142E-02
 TRCHEK2: N2 convergence failed.
 x:  0.78258  0.79445  0.79947  N:  8.966  9.000  9.011  Nx:   4.823   dN:-0.614E-01
 TRCHEK2: N2 convergence failed.
 x:  0.78258  0.79946  0.79947  N:  8.966  9.000  9.000  Nx:   2.966   dN:-0.112E-01
 TRCHEK2: N2 convergence failed.
 x:  0.78258  0.79791  0.79947  N:  8.966  9.000  9.001  Nx:   3.127   dN:-0.638E-02
 TRCHEK2: N2 convergence failed.
 x:  0.78258  0.79521  0.79947  N:  8.966  9.000  9.009  Nx:   4.880   dN:-0.264E-01
 TRCHEK2: N2 convergence failed.
 x:  0.78258  0.79947  0.79947  N:  8.966  9.000  9.003  Nx:   2.215   dN: 0.320E-02
 MRCHDU: Convergence failed at  68  side 2    Res =  0.2109E+02
 MRCHDU: Convergence failed at  69  side 2    Res =  0.1654E+02
 MRCHDU: Convergence failed at  70  side 2    Res =  0.1295E+02
 MRCHDU: Convergence failed at  71  side 2    Res =  0.1202E+02
 MRCHDU: Convergence failed at  72  side 2    Res =  0.1443E+02
 MRCHDU: Convergence failed at  73  side 2    Res =  0.1769E+02
 MRCHDU: Convergence failed at  74  side 2    Res =  0.2270E+02
 MRCHDU: Convergence failed at  75  side 2    Res =  0.3236E+02
 MRCHDU: Convergence failed at  76  side 2    Res =  0.6259E+02
[...]

 Side 1  free  transition at x/c =  0.3187   48
 Side 2 forced transition at x/c =  1.0000   71

   1   rms: 0.3711E-01   max: 0.2042E+00   D at    7  1   RLX: 0.280
       a = 13.750      CL =  0.7141
      Cm = -0.0647     CD =  0.18289   =>   CDf =  0.00715    CDp =  0.17573

 Side 1  free  transition at x/c =  0.3184   48
 Side 2 forced transition at x/c =  1.0000   71

   2   rms: 0.2647E-01   max: 0.1392E+00   D at    7  1
       a = 13.750      CL =  0.7255
      Cm = -0.0649     CD =  0.18444   =>   CDf =  0.00704    CDp =  0.17740

 Side 1  free  transition at x/c =  0.3179   49
 Side 2 forced transition at x/c =  1.0000   70

   3   rms: 0.1776E-02   max: 0.1106E-01   D at    3  2
       a = 13.750      CL =  0.7251
      Cm = -0.0648     CD =  0.18396   =>   CDf =  0.00713    CDp =  0.17683

 Side 1  free  transition at x/c =  0.3179   49
 Side 2 forced transition at x/c =  1.0000   70

   4   rms: 0.5955E-03   max: 0.7443E-02   D at    4  1
       a = 13.750      CL =  0.7254
      Cm = -0.0648     CD =  0.18413   =>   CDf =  0.00714    CDp =  0.17699

 Side 1  free  transition at x/c =  0.3179   49
 Side 2 forced transition at x/c =  1.0000   70

   5   rms: 0.1978E-04   max: 0.2122E-03   D at   69  2
       a = 13.750      CL =  0.7254
      Cm = -0.0648     CD =  0.18414   =>   CDf =  0.00713    CDp =  0.17701
 plradd ia,ip,cpol           42           0  0.14527155    

 Point added to stored polar  1
 Point written to save file  goe572_Re150k.base.pol                          
 Dump file unspecified or not available
 Calculating wake trajectory ...
 Calculating source influence matrix ...

 Solving BL system ...

 Side 1  free  transition at x/c =  0.3179   49
 Side 2 forced transition at x/c =  1.0000   70

   1   rms: 0.3898E-01   max: -.3189E+00   D at    8  1   RLX: 0.278
       a = 14.000      CL =  0.7290
      Cm = -0.0649     CD =  0.18482   =>   CDf =  0.00714    CDp =  0.17768

 Side 1  free  transition at x/c =  0.3177   49
 Side 2 forced transition at x/c =  1.0000   70

   2   rms: 0.2841E-01   max: -.2225E+00   D at    8  1
       a = 14.000      CL =  0.7405
      Cm = -0.0651     CD =  0.18644   =>   CDf =  0.00713    CDp =  0.17931

 Side 1  free  transition at x/c =  0.3173   49
 Side 2 forced transition at x/c =  1.0000   70

   3   rms: 0.1166E-02   max: -.6054E-02   D at   49  1
       a = 14.000      CL =  0.7402
      Cm = -0.0650     CD =  0.18602   =>   CDf =  0.00712    CDp =  0.17890

 Side 1  free  transition at x/c =  0.3174   49
 Side 2 forced transition at x/c =  1.0000   70

   4   rms: 0.2258E-03   max: -.1193E-02   D at   90  2
       a = 14.000      CL =  0.7403
      Cm = -0.0651     CD =  0.18614   =>   CDf =  0.00712    CDp =  0.17902

 Side 1  free  transition at x/c =  0.3174   49
 Side 2 forced transition at x/c =  1.0000   70

   5   rms: 0.1392E-04   max: 0.1495E-03   D at   69  2
       a = 14.000      CL =  0.7403
      Cm = -0.0651     CD =  0.18616   =>   CDf =  0.00712    CDp =  0.17904
 plradd ia,ip,cpol           43           0  0.14527155    

 Point added to stored polar  1
 Point written to save file  goe572_Re150k.base.pol                          
 Dump file unspecified or not available
 Calculating wake trajectory ...
 Calculating source influence matrix ...

 Solving BL system ...

 Side 1  free  transition at x/c =  0.3174   49
 Side 2 forced transition at x/c =  1.0000   70

   1   rms: 0.4385E-01   max: -.3582E+00   D at    4  1   RLX: 0.276
       a = 14.250      CL =  0.7441
      Cm = -0.0652     CD =  0.18686   =>   CDf =  0.00712    CDp =  0.17973

 Side 1  free  transition at x/c =  0.3172   49
 Side 2 forced transition at x/c =  1.0000   70

   2   rms: 0.3096E-01   max: -.2405E+00   D at    4  1
       a = 14.250      CL =  0.7560
      Cm = -0.0654     CD =  0.18861   =>   CDf =  0.00712    CDp =  0.18149

 Side 1  free  transition at x/c =  0.3169   49
 Side 2 forced transition at x/c =  1.0000   70

   3   rms: 0.1225E-02   max: 0.6917E-02   D at    6  1
       a = 14.250      CL =  0.7557
      Cm = -0.0653     CD =  0.18818   =>   CDf =  0.00711    CDp =  0.18108

 Side 1  free  transition at x/c =  0.3169   49
 Side 2 forced transition at x/c =  1.0000   70

   4   rms: 0.2333E-03   max: -.1193E-02   D at   90  2
       a = 14.250      CL =  0.7559
      Cm = -0.0654     CD =  0.18833   =>   CDf =  0.00711    CDp =  0.18122

 Side 1  free  transition at x/c =  0.3169   49
 Side 2 forced transition at x/c =  1.0000   70

   5   rms: 0.1414E-04   max: 0.1538E-03   D at   69  2
       a = 14.250      CL =  0.7559
      Cm = -0.0654     CD =  0.18835   =>   CDf =  0.00711    CDp =  0.18124
 plradd ia,ip,cpol           44           0  0.14527155    

 Point added to stored polar  1
 Point written to save file  goe572_Re150k.base.pol                          
 Dump file unspecified or not available
 Calculating wake trajectory ...
 Calculating source influence matrix ...

 Solving BL system ...

 Side 1  free  transition at x/c =  0.3169   49
 Side 2 forced transition at x/c =  1.0000   70

   1   rms: 0.3604E-01   max: -.8936E-01   D at   10  2   RLX: 0.274
       a = 14.500      CL =  0.7600
      Cm = -0.0655     CD =  0.18909   =>   CDf =  0.00711    CDp =  0.18198

 Side 1  free  transition at x/c =  0.3168   49
 Side 2 forced transition at x/c =  1.0000   70

   2   rms: 0.2621E-01   max: -.6594E-01   D at   10  2
       a = 14.500      CL =  0.7731
      Cm = -0.0657     CD =  0.19100   =>   CDf =  0.00710    CDp =  0.18390

 Side 1  free  transition at x/c =  0.3165   49
 Side 2 forced transition at x/c =  1.0000   70

   3   rms: 0.1215E-02   max: -.6703E-02   D at   49  1
       a = 14.500      CL =  0.7729
      Cm = -0.0656     CD =  0.19063   =>   CDf =  0.00708    CDp =  0.18354

 Side 1  free  transition at x/c =  0.3165   49
 Side 2 forced transition at x/c =  1.0000   70

   4   rms: 0.2731E-03   max: -.1462E-02   D at   90  2
       a = 14.500      CL =  0.7730
      Cm = -0.0657     CD =  0.19082   =>   CDf =  0.00709    CDp =  0.18374

 Side 1  free  transition at x/c =  0.3165   49
 Side 2 forced transition at x/c =  1.0000   70

   5   rms: 0.1675E-04   max: 0.1778E-03   D at   69  2
       a = 14.500      CL =  0.7730
      Cm = -0.0657     CD =  0.19084   =>   CDf =  0.00709    CDp =  0.18376
 plradd ia,ip,cpol           45           0  0.14527155    

 Point added to stored polar  1
 Point written to save file  goe572_Re150k.base.pol                          
 Dump file unspecified or not available
 Calculating wake trajectory ...
 Calculating source influence matrix ...

 Solving BL system ...

 Side 1  free  transition at x/c =  0.3165   49
 Side 2 forced transition at x/c =  1.0000   70

   1   rms: 0.3568E-01   max: 0.3171E-01   T at   71  2   RLX: 0.272
       a = 14.750      CL =  0.7773
      Cm = -0.0658     CD =  0.19165   =>   CDf =  0.00709    CDp =  0.18456

 Side 1  free  transition at x/c =  0.3164   49
 Side 2 forced transition at x/c =  1.0000   70

   2   rms: 0.2607E-01   max: 0.2389E-01   T at   71  2
       a = 14.750      CL =  0.7908
      Cm = -0.0660     CD =  0.19377   =>   CDf =  0.00693    CDp =  0.18683

 Side 1  free  transition at x/c =  0.3162   50
 Side 2 forced transition at x/c =  1.0000   69

   3   rms: 0.3052E-02   max: -.4445E-01   D at    2  1
       a = 14.750      CL =  0.7906
      Cm = -0.0660     CD =  0.19344   =>   CDf =  0.00705    CDp =  0.18639

 Side 1  free  transition at x/c =  0.3162   50
 Side 2 forced transition at x/c =  1.0000   69

   4   rms: 0.1734E-02   max: -.2244E-01   D at    4  1
       a = 14.750      CL =  0.7907
      Cm = -0.0660     CD =  0.19363   =>   CDf =  0.00705    CDp =  0.18658

 Side 1  free  transition at x/c =  0.3162   50
 Side 2 forced transition at x/c =  1.0000   69

   5   rms: 0.1281E-04   max: 0.1215E-03   D at   68  2
       a = 14.750      CL =  0.7908
      Cm = -0.0660     CD =  0.19364   =>   CDf =  0.00705    CDp =  0.18659
 plradd ia,ip,cpol           46           0  0.13547751    

 Point added to stored polar  1
 Point written to save file  goe572_Re150k.base.pol                          
 Dump file unspecified or not available
 Calculating wake trajectory ...
 Calculating source influence matrix ...

 Solving BL system ...

 Side 1  free  transition at x/c =  0.3162   50
 Side 2 forced transition at x/c =  1.0000   69

   1   rms: 0.4000E-01   max: -.1789E+00   D at    3  2   RLX: 0.270
       a = 15.000      CL =  0.7951
      Cm = -0.0661     CD =  0.19451   =>   CDf =  0.00705    CDp =  0.18745

 Side 1  free  transition at x/c =  0.3162   50
 Side 2 forced transition at x/c =  1.0000   69

   2   rms: 0.2936E-01   max: -.1334E+00   D at    3  2
       a = 15.000      CL =  0.8092
      Cm = -0.0665     CD =  0.19684   =>   CDf =  0.00704    CDp =  0.18980

 Side 1  free  transition at x/c =  0.3160   50
 Side 2 forced transition at x/c =  1.0000   69

   3   rms: 0.9332E-03   max: 0.4480E-02   D at   10  1
       a = 15.000      CL =  0.8091
      Cm = -0.0664     CD =  0.19661   =>   CDf =  0.00702    CDp =  0.18959

 Side 1  free  transition at x/c =  0.3160   50
 Side 2 forced transition at x/c =  1.0000   69

   4   rms: 0.1573E-03   max: -.9061E-03   D at   89  2
       a = 15.000      CL =  0.8092
      Cm = -0.0664     CD =  0.19674   =>   CDf =  0.00702    CDp =  0.18972

 Side 1  free  transition at x/c =  0.3160   50
 Side 2 forced transition at x/c =  1.0000   69

   5   rms: 0.7150E-05   max: 0.7346E-04   D at   68  2
       a = 15.000      CL =  0.8092
      Cm = -0.0665     CD =  0.19675   =>   CDf =  0.00702    CDp =  0.18973
 plradd ia,ip,cpol           47           0  0.13547751    

 Point added to stored polar  1
 Point written to save file  goe572_Re150k.base.pol                          
 Dump file unspecified or not available
 Calculating wake trajectory ...
 Calculating source influence matrix ...

 Solving BL system ...

 Side 1  free  transition at x/c =  0.3160   50
 Side 2 forced transition at x/c =  1.0000   69

   1   rms: 0.4165E-01   max: -.1742E+00   D at    4  2   RLX: 0.269
       a = 15.250      CL =  0.8138
      Cm = -0.0666     CD =  0.19773   =>   CDf =  0.00702    CDp =  0.19071

 Side 1  free  transition at x/c =  0.3160   50
 Side 2 forced transition at x/c =  1.0000   69

   2   rms: 0.3040E-01   max: -.1340E+00   D at    4  2
       a = 15.250      CL =  0.8285
      Cm = -0.0670     CD =  0.20043   =>   CDf =  0.00701    CDp =  0.19341

 Side 1  free  transition at x/c =  0.3158   50
 Side 2 forced transition at x/c =  1.0000   69

   3   rms: 0.6019E-03   max: -.4850E-02   D at    4  2
       a = 15.250      CL =  0.8285
      Cm = -0.0670     CD =  0.20030   =>   CDf =  0.00698    CDp =  0.19332

 Side 1  free  transition at x/c =  0.3158   50
 Side 2 forced transition at x/c =  1.0000   69

   4   rms: 0.2617E-04   max: -.1763E-03   D at   89  2
       a = 15.250      CL =  0.8285
      Cm = -0.0670     CD =  0.20033   =>   CDf =  0.00698    CDp =  0.19335
 plradd ia,ip,cpol           48           0  0.13547751    

 Point added to stored polar  1
 Point written to save file  goe572_Re150k.base.pol                          
 Dump file unspecified or not available
 Calculating wake trajectory ...
 Calculating source influence matrix ...

 Solving BL system ...

 Side 1  free  transition at x/c =  0.3158   50
 Side 2 forced transition at x/c =  1.0000   69

   1   rms: 0.4011E-01   max: 0.4207E-01   T at   70  2   RLX: 0.267
       a = 15.500      CL =  0.8331
      Cm = -0.0671     CD =  0.20138   =>   CDf =  0.00698    CDp =  0.19440

 Side 1  free  transition at x/c =  0.3158   50
 Side 2 forced transition at x/c =  1.0000   69

   2   rms: 0.2925E-01   max: 0.3164E-01   T at   70  2
       a = 15.500      CL =  0.8481
      Cm = -0.0676     CD =  0.20430   =>   CDf =  0.00680    CDp =  0.19751

 Side 1  free  transition at x/c =  0.3157   50
 Side 2 forced transition at x/c =  1.0000   68

   3   rms: 0.9665E-01   max: 0.2826E+00   T at   55  1
       a = 15.500      CL =  0.9093
      Cm = -0.0668     CD =  0.20549   =>   CDf =  0.00694    CDp =  0.19855

 Side 1  free  transition at x/c =  0.3156   50
 Side 2 forced transition at x/c =  1.0000   68

   4   rms: 0.1500E+00   max: 0.5748E+00   D at   51  1
       a = 15.500      CL =  0.8414
      Cm = -0.0707     CD =  0.22997   =>   CDf =  0.00692    CDp =  0.22305

 Side 1  free  transition at x/c =  0.3147   50
 Side 2 forced transition at x/c =  1.0000   68
 idif Ue xi dudx           2  0.26651931      6.33144379E-03   42.094555    
 Uenew xinew           3  0.14754106      3.50499153E-03

   5   rms: 0.2374E+00   max: 0.6885E+00   D at   51  1
       a = 15.500      CL =  0.6925
      Cm = -0.0730     CD =  0.23435   =>   CDf =  0.00725    CDp =  0.22710

 Side 1  free  transition at x/c =  0.2999   47
 Side 2 forced transition at x/c =  1.0000   70

   6   rms: 0.2022E+00   max: 0.1675E+01   T at   48  1   RLX: 0.730
       a = 15.500      CL =  0.7407
      Cm = -0.0604     CD =  0.18222   =>   CDf =  0.00677    CDp =  0.17546

 Side 1  free  transition at x/c =  0.2995   48
 Side 2 forced transition at x/c =  1.0000   69

   7   rms: 0.1380E+00   max: -.4419E+00   D at   48  1
       a = 15.500      CL =  0.8485
      Cm = -0.0655     CD =  0.20051   =>   CDf =  0.00690    CDp =  0.19360

 Side 1  free  transition at x/c =  0.3695   54
 Side 2 forced transition at x/c =  1.0000   68

   8   rms: 0.5306E+00   max: 0.5452E+01   T at   54  1   RLX: 0.275
       a = 15.500      CL =  0.8379
      Cm = -0.0413     CD =  0.17589   =>   CDf =  0.00690    CDp =  0.16899

 Side 1  free  transition at x/c =  0.3455   52
 Side 2 forced transition at x/c =  1.0000   68

   9   rms: 0.4783E+00   max: 0.3956E+01   T at   53  1   RLX: 0.379
       a = 15.500      CL =  1.0144
      Cm = -0.0724     CD =  0.17087   =>   CDf =  0.00671    CDp =  0.16416

 Side 1  free  transition at x/c =  0.3426   53
 Side 2 forced transition at x/c =  1.0000   67
 idif Ue xi dudx           1  0.16165432      4.45771217E-03   36.263966    
 Uenew xinew           2  4.76567708E-02  1.31416321E-03

  10   rms: 0.2291E+02   max: 0.7015E+02   D at   56  1   RLX: 0.005
       a = 15.500      CL =  0.9284
      Cm = -0.0734     CD =  0.15115   =>   CDf =  0.00706    CDp =  0.14409

 Side 1  free  transition at x/c =  0.3335   52
 Side 2 forced transition at x/c =  1.0000   68

  11   rms: 0.3678E+00   max: 0.4349E+01   T at   52  1   RLX: 0.345
       a = 15.500      CL =  0.8886
      Cm = -0.0751     CD =  0.18133   =>   CDf =  0.00685    CDp =  0.17447

 Side 1  free  transition at x/c =  0.3259   51
 Side 2 forced transition at x/c =  1.0000   68
 idif Ue xi dudx           1  0.20426221      5.12468815E-03   39.858467    
 Uenew xinew           2  9.16041583E-02  2.29823589E-03

  12   rms: 0.4361E+00   max: 0.2938E+01   T at   51  1   RLX: 0.510
       a = 15.500      CL =  0.7561
      Cm = -0.0742     CD =  0.21629   =>   CDf =  0.00705    CDp =  0.20924

 Side 1  free  transition at x/c =  0.3061   49
 Side 2 forced transition at x/c =  1.0000   69

  13   rms: 0.6327E-01   max: -.5423E+00   D at   49  1   RLX: 0.922
       a = 15.500      CL =  0.7527
      Cm = -0.0690     CD =  0.20285   =>   CDf =  0.00686    CDp =  0.19599

 Side 1  free  transition at x/c =  0.3069   49
 Side 2 forced transition at x/c =  1.0000   69

  14   rms: 0.2770E-01   max: -.1978E+00   T at   49  1
       a = 15.500      CL =  0.7721
      Cm = -0.0693     CD =  0.19671   =>   CDf =  0.00693    CDp =  0.18978

 Side 1  free  transition at x/c =  0.3096   49
 Side 2 forced transition at x/c =  1.0000   69

  15   rms: 0.6518E-02   max: -.3629E-01   T at   49  1
       a = 15.500      CL =  0.7751
      Cm = -0.0693     CD =  0.19745   =>   CDf =  0.00697    CDp =  0.19048

 Side 1  free  transition at x/c =  0.3102   49
 Side 2 forced transition at x/c =  1.0000   69

  16   rms: 0.1728E-02   max: -.8319E-02   D at   90  2
       a = 15.500      CL =  0.7763
      Cm = -0.0695     CD =  0.19848   =>   CDf =  0.00696    CDp =  0.19151

 Side 1  free  transition at x/c =  0.3102   49
 Side 2 forced transition at x/c =  1.0000   69

  17   rms: 0.1650E-03   max: 0.1321E-02   D at   68  2
       a = 15.500      CL =  0.7764
      Cm = -0.0695     CD =  0.19863   =>   CDf =  0.00696    CDp =  0.19167

 Side 1  free  transition at x/c =  0.3102   49
 Side 2 forced transition at x/c =  1.0000   69

  18   rms: 0.5798E-05   max: 0.5803E-04   D at   68  2
       a = 15.500      CL =  0.7764
      Cm = -0.0695     CD =  0.19863   =>   CDf =  0.00696    CDp =  0.19167
 plradd ia,ip,cpol           49           0  0.13547751    

 Point added to stored polar  1
 Point written to save file  goe572_Re150k.base.pol                          
 Dump file unspecified or not available
 Calculating wake trajectory ...
 Calculating source influence matrix ...

 Solving BL system ...

 Side 1  free  transition at x/c =  0.3102   49
 Side 2 forced transition at x/c =  1.0000   69

   1   rms: 0.3677E-01   max: 0.2852E+00   D at    3  1   RLX: 0.255
       a = 15.750      CL =  0.7783
      Cm = -0.0698     CD =  0.19935   =>   CDf =  0.00696    CDp =  0.19239

 Side 1  free  transition at x/c =  0.3098   49
 Side 2 forced transition at x/c =  1.0000   69

   2   rms: 0.2647E-01   max: 0.1951E+00   D at    3  1
       a = 15.750      CL =  0.7864
      Cm = -0.0703     CD =  0.20117   =>   CDf =  0.00695    CDp =  0.19422

 Side 1  free  transition at x/c =  0.3085   49
 Side 2 forced transition at x/c =  1.0000   69

   3   rms: 0.1296E-02   max: -.6114E-02   D at   50  1
       a = 15.750      CL =  0.7858
      Cm = -0.0701     CD =  0.20029   =>   CDf =  0.00693    CDp =  0.19337

 Side 1  free  transition at x/c =  0.3085   49
 Side 2 forced transition at x/c =  1.0000   69

   4   rms: 0.2300E-03   max: -.9829E-03   D at   89  2
       a = 15.750      CL =  0.7860
      Cm = -0.0702     CD =  0.20037   =>   CDf =  0.00693    CDp =  0.19344

 Side 1  free  transition at x/c =  0.3085   49
 Side 2 forced transition at x/c =  1.0000   69

   5   rms: 0.2008E-04   max: 0.1857E-03   D at   68  2
       a = 15.750      CL =  0.7860
      Cm = -0.0702     CD =  0.20039   =>   CDf =  0.00693    CDp =  0.19346
 plradd ia,ip,cpol           50           0  0.13547751    

 Point added to stored polar  1
 Point written to save file  goe572_Re150k.base.pol                          
 Dump file unspecified or not available
 Calculating wake trajectory ...
 Calculating source influence matrix ...

 Solving BL system ...

 Side 1  free  transition at x/c =  0.3085   49
 Side 2 forced transition at x/c =  1.0000   69

   1   rms: 0.4134E-01   max: -.3951E+00   D at    3  1   RLX: 0.252
       a = 16.000      CL =  0.7881
      Cm = -0.0703     CD =  0.20106   =>   CDf =  0.00693    CDp =  0.19413

 Side 1  free  transition at x/c =  0.3082   49
 Side 2 forced transition at x/c =  1.0000   69

   2   rms: 0.3123E-01   max: -.2852E+00   D at    3  1
       a = 16.000      CL =  0.7969
      Cm = -0.0709     CD =  0.20283   =>   CDf =  0.00692    CDp =  0.19591

 Side 1  free  transition at x/c =  0.3073   49
 Side 2 forced transition at x/c =  1.0000   69

   3   rms: 0.1335E-02   max: -.9321E-02   D at    3  2
       a = 16.000      CL =  0.7963
      Cm = -0.0708     CD =  0.20215   =>   CDf =  0.00689    CDp =  0.19526

 Side 1  free  transition at x/c =  0.3073   49
 Side 2 forced transition at x/c =  1.0000   69

   4   rms: 0.7926E-04   max: -.4296E-03   D at   68  2
       a = 16.000      CL =  0.7963
      Cm = -0.0708     CD =  0.20213   =>   CDf =  0.00689    CDp =  0.19524
 plradd ia,ip,cpol           51           0  0.13547751    

 Point added to stored polar  1
 Point written to save file  goe572_Re150k.base.pol                          
 Dump file unspecified or not available

.OPERva   c>  
 Polar accumulation disabled

.OPERv   c>  
 XFOIL   c>  
 XFOIL   c>  