
 ===================================================
  XFOIL Version 6.99
  Copyright (C) 2000   Mark Drela, Harold Youngren

  This software comes with ABSOLUTELY NO WARRANTY,
    subject to the GNU General Public License.

  Caveat computor
 ===================================================

 File  xfoil.def  not found

   QUIT    Exit program

  .OPER    Direct operating point(s)
  .MDES    Complex mapping design routine
  .QDES    Surface speed design routine
  .GDES    Geometry design routine

   SAVE f  Write airfoil to labeled coordinate file
   PSAV f  Write airfoil to plain coordinate file
   ISAV f  Write airfoil to ISES coordinate file
   MSAV f  Write airfoil to MSES coordinate file
   REVE    Reverse written-airfoil node ordering

   LOAD f  Read buffer airfoil from coordinate file
   NACA i  Set NACA 4,5-digit airfoil and buffer airfoil
   INTE    Set buffer airfoil by interpolating two airfoils
   NORM    Buffer airfoil normalization toggle
   XYCM rr Change CM reference location, currently  0.25000 0.00000

   BEND    Display structural properties of current airfoil

   PCOP    Set current-airfoil panel nodes directly from buffer airfoil points
   PANE    Set current-airfoil panel nodes ( 160 ) based on curvature
  .PPAR    Show/change paneling

  .PLOP    Plotting options

   WDEF f  Write  current-settings file
   RDEF f  Reread current-settings file
   NAME s  Specify new airfoil name
   NINC    Increment name version number

   Z       Zoom    | (available in all menus)
   U       Unzoom  | 

 XFOIL   c>  
 Labeled airfoil file.  Name:  GOE 507 AIRFOIL                                 

 Number of input coordinate points:  25
 Counterclockwise ordering
 Max thickness =     0.086503  at x =   0.300
 Max camber    =     0.028624  at x =   0.400

  LE  x,y  =  -0.00006   0.00096  |   Chord =   1.00006
  TE  x,y  =   1.00000   0.00000  |

 Current airfoil nodes set from buffer airfoil nodes (  25 )

 WARNING: Poor input coordinate distribution
          Excessive panel angle   79.5  at i =  13
          Repaneling with PANE and/or PPAR suggested
           (doing GDES,CADD before repaneling _may_
            improve excessively coarse LE spacing

 XFOIL   c>  
 XFOIL   c>  
 Sharp trailing edge

 Paneling parameters used...
   Number of panel nodes       160
   Panel bunching parameter    1.000
   TE/LE panel density ratio   0.150
   Refined-area/LE panel density ratio    0.200
   Top    side refined area x/c limits  1.000 1.000
   Bottom side refined area x/c limits  1.000 1.000

 XFOIL   c>  
.OPERi   c>  
 Xtr/c     =  1.0000    top    side
 Xtr/c     =  1.0000    bottom side
 Ncrit     =    9.00   ( 0.070 % turb. level )
 Vacc      =  0.0100

 Klag  =  5.6000     Uxwt  =    1.00
 A     =  6.7000     B     =  0.7500       KCt = 0.01485
 CtiniK=  1.8000     CtiniX=  3.3000

..VPAR   c>  
..VPAR   c>  
.OPERi   c>  
 M  =    0.0000
 Re =    600000

.OPERv   c>  
.OPERv   c>  
.OPERv   c>  
 Polar  1 newly created for accumulation
 Airfoil archived with polar: GOE 507 AIRFOIL                                 

Enter  polar save filename  OR  <return> for no file   s>  
 New polar save file available

Enter  polar dump filename  OR  <return> for no file   s>  
 Polar dump file will NOT be written

 Polar accumulation enabled

.OPERva   c>   Calculating unit vorticity distributions ...
 Calculating wake trajectory ...
 Calculating source influence matrix ...

 Solving BL system ...

 Initializing BL ...
    side            1  ...
 MRCHUE: Inverse mode at  55     Hk =   4.152
 MRCHUE: Inverse mode at  56     Hk =   4.792
 MRCHUE: Inverse mode at  57     Hk =   5.420
 MRCHUE: Inverse mode at  58     Hk =   6.039
 MRCHUE: Inverse mode at  59     Hk =   6.655
 MRCHUE: Inverse mode at  60     Hk =   7.272
 MRCHUE: Inverse mode at  61     Hk =   7.889
 MRCHUE: Inverse mode at  62     Hk =   8.493
 MRCHUE: Inverse mode at  63     Hk =   8.843
 MRCHUE: Inverse mode at  64     Hk =   6.028
 MRCHUE: Inverse mode at  65     Hk =   4.459
 MRCHUE: Inverse mode at  66     Hk =   3.335
    side            2  ...
 MRCHUE: Inverse mode at  23     Hk =   5.138
 MRCHUE: Convergence failed at  24  side 2    Res =  0.4836E+01
 MRCHUE: Inverse mode at  25     Hk =   7.270
 MRCHUE: Inverse mode at  26     Hk =   4.779
 MRCHUE: Inverse mode at  27     Hk =   2.500
 MRCHUE: Inverse mode at  87     Hk =   2.500

 MRCHDU: Convergence failed at  26  side 2    Res =  0.3664E+01
 MRCHDU: Convergence failed at  27  side 2    Res =  0.1384E+02
 MRCHDU: Convergence failed at  28  side 2    Res =  0.5258E+01
 MRCHDU: Convergence failed at  29  side 2    Res =  0.1003E+02
 MRCHDU: Convergence failed at  30  side 2    Res =  0.9364E+01
 MRCHDU: Convergence failed at  31  side 2    Res =  0.5978E+01
 MRCHDU: Convergence failed at  32  side 2    Res =  0.2243E+02
 MRCHDU: Convergence failed at  33  side 2    Res =  0.3115E+03
 MRCHDU: Convergence failed at  34  side 2    Res =  0.4112E+02
 MRCHDU: Convergence failed at  35  side 2    Res =  0.1473E+02
 MRCHDU: Convergence failed at  36  side 2    Res =  0.1589E+02
 MRCHDU: Convergence failed at  37  side 2    Res =  0.1633E+02
 MRCHDU: Convergence failed at  38  side 2    Res =  0.1647E+02
 MRCHDU: Convergence failed at  39  side 2    Res =  0.2269E+02
 MRCHDU: Convergence failed at  40  side 2    Res =  0.2411E+02
 MRCHDU: Convergence failed at  41  side 2    Res =  0.2552E+02
 MRCHDU: Convergence failed at  42  side 2    Res =  0.2695E+02
 MRCHDU: Convergence failed at  43  side 2    Res =  0.2514E+02
 MRCHDU: Convergence failed at  44  side 2    Res =  0.2701E+02
 MRCHDU: Convergence failed at  45  side 2    Res =  0.2849E+02
 MRCHDU: Convergence failed at  46  side 2    Res =  0.9148E+02
 MRCHDU: Convergence failed at  47  side 2    Res =  0.2135E+02
 MRCHDU: Convergence failed at  48  side 2    Res =  0.2226E+02
 MRCHDU: Convergence failed at  49  side 2    Res =  0.2300E+02
 MRCHDU: Convergence failed at  50  side 2    Res =  0.2417E+02
 MRCHDU: Convergence failed at  51  side 2    Res =  0.1667E+02
 MRCHDU: Convergence failed at  52  side 2    Res =  0.4266E+02
 MRCHDU: Convergence failed at  53  side 2    Res =  0.4421E+02
 MRCHDU: Convergence failed at  54  side 2    Res =  0.4569E+02
 MRCHDU: Convergence failed at  55  side 2    Res =  0.4458E+02
 MRCHDU: Convergence failed at  56  side 2    Res =  0.4528E+02
 MRCHDU: Convergence failed at  57  side 2    Res =  0.2043E+02
 MRCHDU: Convergence failed at  58  side 2    Res =  0.2026E+02
 MRCHDU: Convergence failed at  59  side 2    Res =  0.2022E+02
 MRCHDU: Convergence failed at  60  side 2    Res =  0.2036E+02
 MRCHDU: Convergence failed at  61  side 2    Res =  0.2069E+02
 MRCHDU: Convergence failed at  62  side 2    Res =  0.2109E+02
 MRCHDU: Convergence failed at  63  side 2    Res =  0.2148E+02
 MRCHDU: Convergence failed at  64  side 2    Res =  0.2195E+02
 MRCHDU: Convergence failed at  65  side 2    Res =  0.2233E+02
 MRCHDU: Convergence failed at  66  side 2    Res =  0.2250E+02
 MRCHDU: Convergence failed at  67  side 2    Res =  0.2220E+02
 MRCHDU: Convergence failed at  68  side 2    Res =  0.2221E+02
 MRCHDU: Convergence failed at  69  side 2    Res =  0.2234E+02
 MRCHDU: Convergence failed at  70  side 2    Res =  0.2247E+02
 MRCHDU: Convergence failed at  71  side 2    Res =  0.2288E+02
 MRCHDU: Convergence failed at  72  side 2    Res =  0.2263E+02
 MRCHDU: Convergence failed at  73  side 2    Res =  0.2209E+02
 MRCHDU: Convergence failed at  74  side 2    Res =  0.2107E+02
 MRCHDU: Convergence failed at  75  side 2    Res =  0.2212E+02
 MRCHDU: Convergence failed at  76  side 2    Res =  0.2205E+02
 MRCHDU: Convergence failed at  77  side 2    Res =  0.2360E+02
 MRCHDU: Convergence failed at  78  side 2    Res =  0.2858E+02
 MRCHDU: Convergence failed at  79  side 2    Res =  0.8459E+02
 MRCHDU: Convergence failed at  80  side 2    Res =  0.1922E+02
 MRCHDU: Convergence failed at  81  side 2    Res =  0.5499E+02
 MRCHDU: Convergence failed at  82  side 2    Res =  0.4708E+02
 MRCHDU: Convergence failed at  83  side 2    Res =  0.6624E+02
 MRCHDU: Convergence failed at  84  side 2    Res =  0.1296E+03
 MRCHDU: Convergence failed at  85  side 2    Res =  0.5647E+03
 MRCHDU: Convergence failed at  86  side 2    Res =  0.3218E+02
 MRCHDU: Convergence failed at  87  side 2    Res =  0.1250E+03
 Side 1  free  transition at x/c =  0.8535   63
 Side 2  free  transition at x/c =  0.0759   26

   1   rms: 0.1039E+01   max: 0.1366E+01   D at   89  2   RLX: 0.272
       a = -4.000      CL = -1.0129
      Cm =  0.2114     CD =  0.00481   =>   CDf =  0.00235    CDp =  0.00245

 MRCHDU: Convergence failed at  65  side 1    Res =  0.3143E+01
 MRCHDU: Convergence failed at  66  side 1    Res =  0.4382E+02
 Side 1  free  transition at x/c =  0.8723   65
 Side 2  free  transition at x/c =  0.0683   26

   2   rms: 0.4978E+00   max: 0.6434E+00   D at   91  2   RLX: 0.482
       a = -4.000      CL = -0.3858
      Cm =  0.0088     CD =  0.01162   =>   CDf =  0.00612    CDp =  0.00550

 MRCHDU: Convergence failed at  25  side 2    Res =  0.1670E+01
 MRCHDU: Convergence failed at  26  side 2    Res =  0.9669E+01
 MRCHDU: Convergence failed at  27  side 2    Res =  0.2905E+03
 MRCHDU: Convergence failed at  28  side 2    Res =  0.2987E+02
 MRCHDU: Convergence failed at  29  side 2    Res =  0.3221E+02
 MRCHDU: Convergence failed at  30  side 2    Res =  0.5908E+02
 MRCHDU: Convergence failed at  31  side 2    Res =  0.4056E+02
 MRCHDU: Convergence failed at  32  side 2    Res =  0.1699E+02
 MRCHDU: Convergence failed at  33  side 2    Res =  0.3077E+02
 MRCHDU: Convergence failed at  34  side 2    Res =  0.1606E+02
 MRCHDU: Convergence failed at  35  side 2    Res =  0.6821E+01
 MRCHDU: Convergence failed at  36  side 2    Res =  0.9964E+01
 MRCHDU: Convergence failed at  37  side 2    Res =  0.9877E+02
 MRCHDU: Convergence failed at  38  side 2    Res =  0.3318E+02
 MRCHDU: Convergence failed at  39  side 2    Res =  0.4996E+03
 MRCHDU: Convergence failed at  40  side 2    Res =  0.8123E+01
 MRCHDU: Convergence failed at  41  side 2    Res =  0.1149E+02
 MRCHDU: Convergence failed at  42  side 2    Res =  0.1471E+02
 MRCHDU: Convergence failed at  43  side 2    Res =  0.1817E+02
 MRCHDU: Convergence failed at  44  side 2    Res =  0.1386E+02
 MRCHDU: Convergence failed at  45  side 2    Res =  0.3981E+02
 MRCHDU: Convergence failed at  46  side 2    Res =  0.3534E+02
 MRCHDU: Convergence failed at  47  side 2    Res =  0.2409E+02
 MRCHDU: Convergence failed at  48  side 2    Res =  0.1050E+02
 MRCHDU: Convergence failed at  49  side 2    Res =  0.1264E+02
 MRCHDU: Convergence failed at  50  side 2    Res =  0.1565E+02
 MRCHDU: Convergence failed at  51  side 2    Res =  0.1669E+02
 MRCHDU: Convergence failed at  52  side 2    Res =  0.1693E+02
 MRCHDU: Convergence failed at  53  side 2    Res =  0.1594E+02
 MRCHDU: Convergence failed at  54  side 2    Res =  0.1470E+02
 MRCHDU: Convergence failed at  55  side 2    Res =  0.1775E+02
 MRCHDU: Convergence failed at  56  side 2    Res =  0.1051E+02
 MRCHDU: Convergence failed at  57  side 2    Res =  0.1304E+02
 MRCHDU: Convergence failed at  58  side 2    Res =  0.1640E+02
 MRCHDU: Convergence failed at  59  side 2    Res =  0.1879E+02
 MRCHDU: Convergence failed at  60  side 2    Res =  0.3440E+02
 MRCHDU: Convergence failed at  61  side 2    Res =  0.2467E+02
 MRCHDU: Convergence failed at  62  side 2    Res =  0.2429E+02
 MRCHDU: Convergence failed at  63  side 2    Res =  0.2500E+02
 MRCHDU: Convergence failed at  64  side 2    Res =  0.2705E+02
 MRCHDU: Convergence failed at  65  side 2    Res =  0.3374E+02
 MRCHDU: Convergence failed at  66  side 2    Res =  0.1370E+02
 MRCHDU: Convergence failed at  67  side 2    Res =  0.1541E+02
 MRCHDU: Convergence failed at  68  side 2    Res =  0.1108E+05
 MRCHDU: Convergence failed at  69  side 2    Res =  0.3712E+02
 MRCHDU: Convergence failed at  70  side 2    Res =  0.3757E+02
 MRCHDU: Convergence failed at  71  side 2    Res =  0.3739E+02
 MRCHDU: Convergence failed at  72  side 2    Res =  0.4168E+02
 MRCHDU: Convergence failed at  73  side 2    Res =  0.4552E+02
 MRCHDU: Convergence failed at  74  side 2    Res =  0.5201E+02
 MRCHDU: Convergence failed at  75  side 2    Res =  0.6409E+02
 MRCHDU: Convergence failed at  76  side 2    Res =  0.1341E+03
 MRCHDU: Convergence failed at  77  side 2    Res =  0.5347E+03
 MRCHDU: Convergence failed at  78  side 2    Res =  0.7413E+02
 MRCHDU: Convergence failed at  79  side 2    Res =  0.9301E+02
 MRCHDU: Convergence failed at  80  side 2    Res =  0.4291E+02
 MRCHDU: Convergence failed at  81  side 2    Res =  0.2417E+02
 MRCHDU: Convergence failed at  82  side 2    Res =  0.3345E+02
 MRCHDU: Convergence failed at  83  side 2    Res =  0.2900E+02
 MRCHDU: Convergence failed at  84  side 2    Res =  0.2545E+02
 MRCHDU: Convergence failed at  85  side 2    Res =  0.2196E+02
 MRCHDU: Convergence failed at  86  side 2    Res =  0.1569E+02
 Side 1  free  transition at x/c =  0.8966   67
 Side 2  free  transition at x/c =  0.0657   25

   3   rms: 0.1256E+01   max: -.3202E+01   D at    2  1   RLX: 0.156
       a = -4.000      CL = -1.0063
      Cm =  0.2222     CD =  0.00390   =>   CDf =  0.00240    CDp =  0.00150

 MRCHDU: Convergence failed at  26  side 2    Res =  0.1909E+00
 MRCHDU: Convergence failed at  27  side 2    Res =  0.1977E+00
 MRCHDU: Convergence failed at  28  side 2    Res =  0.1885E+00
 MRCHDU: Convergence failed at  29  side 2    Res =  0.1709E+00
 MRCHDU: Convergence failed at  30  side 2    Res =  0.1461E+00
 Side 1  free  transition at x/c =  0.9038   68
 Side 2  free  transition at x/c =  0.0656   24

   4   rms: 0.4539E+00   max: -.7591E+00   D at   87  2   RLX: 0.388
       a = -4.000      CL = -0.4270
      Cm =  0.0476     CD =  0.02823   =>   CDf =  0.00308    CDp =  0.02515

 Side 1  free  transition at x/c =  0.9193   69
 Side 2  free  transition at x/c =  0.0654   24

   5   rms: 0.4193E+00   max: -.1779E+01   D at   55  2   RLX: 0.281
       a = -4.000      CL = -0.2807
      Cm = -0.0007     CD =  0.02700   =>   CDf =  0.00344    CDp =  0.02356

 MRCHDU: Convergence failed at  55  side 2    Res =  0.1759E+00
 MRCHDU: Convergence failed at  56  side 2    Res =  0.6118E+00
 MRCHDU: Convergence failed at  57  side 2    Res =  0.2060E+00
 MRCHDU: Convergence failed at  58  side 2    Res =  0.1867E+00
 MRCHDU: Convergence failed at  59  side 2    Res =  0.1655E+00
 MRCHDU: Convergence failed at  60  side 2    Res =  0.1440E+00
 MRCHDU: Convergence failed at  61  side 2    Res =  0.1221E+00
 MRCHDU: Convergence failed at  62  side 2    Res =  0.1001E+00
 MRCHDU: Convergence failed at  63  side 2    Res =  0.7778E-01
 MRCHDU: Convergence failed at  64  side 2    Res =  0.8035E+01
 MRCHDU: Convergence failed at  65  side 2    Res =  0.7922E+01
 MRCHDU: Convergence failed at  66  side 2    Res =  0.7300E+01
 MRCHDU: Convergence failed at  67  side 2    Res =  0.6691E+01
 MRCHDU: Convergence failed at  68  side 2    Res =  0.7120E+01
 Side 1  free  transition at x/c =  0.9232   69
 Side 2  free  transition at x/c =  0.0658   25

   6   rms: 0.7568E+00   max: -.4929E+01   D at   63  2   RLX: 0.101
       a = -4.000      CL = -0.1466
      Cm = -0.0583     CD =  0.02298   =>   CDf =  0.00388    CDp =  0.01910

 MRCHDU: Convergence failed at  63  side 2    Res =  0.4133E+00
 MRCHDU: Convergence failed at  64  side 2    Res =  0.3628E+00
 MRCHDU: Convergence failed at  65  side 2    Res =  0.3415E+00
 MRCHDU: Convergence failed at  66  side 2    Res =  0.3319E+00
 MRCHDU: Convergence failed at  67  side 2    Res =  0.3289E+00
 MRCHDU: Convergence failed at  68  side 2    Res =  0.3337E+00
 Side 1  free  transition at x/c =  0.9236   69
 Side 2  free  transition at x/c =  0.0659   25
 idif Ue xi dudx           1  0.18070264      2.34282017E-03   77.130394    
 Uenew xinew           2  3.54362167E-02  4.59432602E-04

   7   rms: 0.2155E+01   max: -.7361E+01   D at   43  2   RLX: 0.068
       a = -4.000      CL = -0.0749
      Cm = -0.1208     CD =  0.02367   =>   CDf =  0.00317    CDp =  0.02050

 Side 1  free  transition at x/c =  0.9132   67
 Side 2  free  transition at x/c =  0.0655   25

   8   rms: 0.4190E+01   max: -.1631E+02   D at   51  2   RLX: 0.031
       a = -4.000      CL = -0.0893
      Cm = -0.1364     CD =  0.02049   =>   CDf =  0.00351    CDp =  0.01698

 Side 1  free  transition at x/c =  0.9018   67
 Side 2  free  transition at x/c =  0.0652   25

   9   rms: 0.3279E+02   max: 0.1054E+03   D at   51  2   RLX: 0.008
       a = -4.000      CL = -0.0332
      Cm = -0.1263     CD =  0.03161   =>   CDf =  0.00386    CDp =  0.02774

 Side 1  free  transition at x/c =  0.9151   68
 Side 2  free  transition at x/c =  0.0657   25
 idif Ue xi dudx           1  0.17162220      2.35164165E-03   72.979744    
 Uenew xinew           2  3.41730639E-02  4.68254089E-04

  10   rms: 0.1841E+01   max: -.6425E+01   D at   50  2   RLX: 0.078
       a = -4.000      CL = -0.0706
      Cm = -0.1294     CD =  0.02245   =>   CDf =  0.00346    CDp =  0.01899

 Side 1  free  transition at x/c =  0.9097   67
 Side 2  free  transition at x/c =  0.0652   25

  11   rms: 0.2331E+01   max: -.8892E+01   D at   61  2   RLX: 0.056
       a = -4.000      CL = -0.1180
      Cm = -0.1311     CD =  0.01971   =>   CDf =  0.00378    CDp =  0.01593

 Side 1  free  transition at x/c =  0.8969   66
 Side 2  free  transition at x/c =  0.0649   25

  12   rms: 0.7967E+04   max: 0.2982E+05   D at   37  2   RLX: 0.000
       a = -4.000      CL = -0.1259
      Cm = -0.1275     CD =  0.02114   =>   CDf =  0.00399    CDp =  0.01715

 Side 1  free  transition at x/c =  0.8970   66
 Side 2  free  transition at x/c =  0.0649   25

  13   rms: 0.2234E+02   max: -.8084E+02   D at   37  2   RLX: 0.006
       a = -4.000      CL = -0.1627
      Cm = -0.1285     CD =  0.01667   =>   CDf =  0.00399    CDp =  0.01268

 MRCHDU: Convergence failed at  35  side 2    Res =  0.3570E+00
 Side 1  free  transition at x/c =  0.8900   66
 Side 2  free  transition at x/c =  0.0646   25

  14   rms: 0.5859E+00   max: -.2767E+01   D at   89  2   RLX: 0.181
       a = -4.000      CL = -0.1866
      Cm = -0.1226     CD =  0.01528   =>   CDf =  0.00507    CDp =  0.01021

 Side 1  free  transition at x/c =  0.8863   66
 Side 2  free  transition at x/c =  0.0645   25

  15   rms: 0.5192E+00   max: -.2586E+01   D at   89  2   RLX: 0.193
       a = -4.000      CL = -0.1913
      Cm = -0.1123     CD =  0.01328   =>   CDf =  0.00493    CDp =  0.00834

 MRCHDU: Convergence failed at  89  side 2    Res =  0.9380E-02
 Side 1  free  transition at x/c =  0.8849   66
 Side 2  free  transition at x/c =  0.0644   25

  16   rms: 0.4497E+00   max: -.2360E+01   D at   89  2   RLX: 0.212
       a = -4.000      CL = -0.1889
      Cm = -0.1057     CD =  0.01192   =>   CDf =  0.00511    CDp =  0.00681

 MRCHDU: Convergence failed at  89  side 2    Res =  0.1186E+00
 Side 1  free  transition at x/c =  0.8842   65
 Side 2  free  transition at x/c =  0.0642   25
 idif Ue xi dudx           1  0.14778978      2.14278698E-03   68.970818    
 Uenew xinew           2  2.63924990E-03  3.82661819E-05

  17   rms: 0.4461E+00   max: -.2129E+01   D at   90  2   RLX: 0.235
       a = -4.000      CL = -0.2015
      Cm = -0.0983     CD =  0.01298   =>   CDf =  0.00515    CDp =  0.00783

 Side 1  free  transition at x/c =  0.8780   64
 Side 2  free  transition at x/c =  0.0639   26

  18   rms: 0.6816E+00   max: 0.9819E+01   T at    2  2   RLX: 0.113
       a = -4.000      CL = -0.2176
      Cm = -0.0912     CD =  0.01346   =>   CDf =  0.00539    CDp =  0.00807

 Side 1  free  transition at x/c =  0.8753   64
 Side 2  free  transition at x/c =  0.0636   26

  19   rms: 0.3447E+00   max: -.1800E+01   D at   81  2   RLX: 0.278
       a = -4.000      CL = -0.2603
      Cm = -0.0738     CD =  0.01399   =>   CDf =  0.00545    CDp =  0.00854

 Side 1  free  transition at x/c =  0.8697   64
 Side 2  free  transition at x/c =  0.0627   26

  20   rms: 0.2263E+00   max: -.1197E+01   D at   82  2   RLX: 0.418
       a = -4.000      CL = -0.2475
      Cm = -0.0643     CD =  0.01273   =>   CDf =  0.00558    CDp =  0.00715

 Side 1  free  transition at x/c =  0.8715   64
 Side 2  free  transition at x/c =  0.0629   26

  21   rms: 0.1750E+00   max: -.7986E+00   D at   86  2   RLX: 0.626
       a = -4.000      CL = -0.1940
      Cm = -0.0636     CD =  0.01231   =>   CDf =  0.00582    CDp =  0.00649

 Side 1  free  transition at x/c =  0.8785   65
 Side 2  free  transition at x/c =  0.0637   25

  22   rms: 0.1123E+00   max: -.4310E+00   D at   86  2
       a = -4.000      CL = -0.1154
      Cm = -0.0722     CD =  0.01146   =>   CDf =  0.00590    CDp =  0.00557

 Side 1  free  transition at x/c =  0.8990   66
 Side 2  free  transition at x/c =  0.0647   25

  23   rms: 0.2708E-01   max: 0.3227E+00   C at   66  1
       a = -4.000      CL = -0.1021
      Cm = -0.0750     CD =  0.01124   =>   CDf =  0.00595    CDp =  0.00529

 Side 1  free  transition at x/c =  0.8985   66
 Side 2  free  transition at x/c =  0.0648   25

  24   rms: 0.3626E-02   max: -.3472E-01   D at   69  1
       a = -4.000      CL = -0.1030
      Cm = -0.0749     CD =  0.01128   =>   CDf =  0.00599    CDp =  0.00530

 Side 1  free  transition at x/c =  0.8967   66
 Side 2  free  transition at x/c =  0.0647   25

  25   rms: 0.1729E-03   max: -.1812E-02   D at   66  1
       a = -4.000      CL = -0.1030
      Cm = -0.0749     CD =  0.01128   =>   CDf =  0.00599    CDp =  0.00529

 Side 1  free  transition at x/c =  0.8967   66
 Side 2  free  transition at x/c =  0.0647   25

  26   rms: 0.1028E-05   max: 0.1129E-04   T at   66  1
       a = -4.000      CL = -0.1030
      Cm = -0.0749     CD =  0.01128   =>   CDf =  0.00599    CDp =  0.00529
 plradd ia,ip,cpol            1           0  6.79604476E-03

 Point added to stored polar  1
 Point written to save file  goe507_Re600k.base.pol                          
 Dump file unspecified or not available
 Calculating wake trajectory ...
 Calculating source influence matrix ...

 Solving BL system ...

 Side 1  free  transition at x/c =  0.8967   66
 Side 2  free  transition at x/c =  0.0647   25

   1   rms: 0.9184E-01   max: -.1415E+00   D at   28  2
       a = -3.500      CL = -0.0518
      Cm = -0.0738     CD =  0.01056   =>   CDf =  0.00607    CDp =  0.00449

 Side 1  free  transition at x/c =  0.8824   66
 Side 2  free  transition at x/c =  0.0652   24

   2   rms: 0.1279E-01   max: -.1203E+00   D at   67  1
       a = -3.500      CL = -0.0503
      Cm = -0.0740     CD =  0.01059   =>   CDf =  0.00612    CDp =  0.00447

 Side 1  free  transition at x/c =  0.8846   66
 Side 2  free  transition at x/c =  0.0652   24

   3   rms: 0.5518E-03   max: 0.5485E-02   D at   67  1
       a = -3.500      CL = -0.0504
      Cm = -0.0740     CD =  0.01059   =>   CDf =  0.00612    CDp =  0.00447

 Side 1  free  transition at x/c =  0.8844   66
 Side 2  free  transition at x/c =  0.0652   24

   4   rms: 0.1927E-05   max: 0.1702E-04   D at   68  1
       a = -3.500      CL = -0.0504
      Cm = -0.0740     CD =  0.01059   =>   CDf =  0.00612    CDp =  0.00447
 plradd ia,ip,cpol            2           0  1.42732877E-02

 Point added to stored polar  1
 Point written to save file  goe507_Re600k.base.pol                          
 Dump file unspecified or not available
 Calculating wake trajectory ...
 Calculating source influence matrix ...

 Solving BL system ...

 Side 1  free  transition at x/c =  0.8844   66
 Side 2  free  transition at x/c =  0.0652   24

   1   rms: 0.9308E-01   max: -.1594E+00   D at   26  2
       a = -3.000      CL =  0.0011
      Cm = -0.0730     CD =  0.00991   =>   CDf =  0.00619    CDp =  0.00372

 Side 1  free  transition at x/c =  0.8692   66
 Side 2  free  transition at x/c =  0.0655   23

   2   rms: 0.1366E-01   max: -.2536E+00   D at   67  1
       a = -3.000      CL =  0.0024
      Cm = -0.0731     CD =  0.01001   =>   CDf =  0.00623    CDp =  0.00378

 Side 1  free  transition at x/c =  0.8742   67
 Side 2  free  transition at x/c =  0.0655   23

   3   rms: 0.7255E-02   max: 0.1337E+00   D at   67  1
       a = -3.000      CL =  0.0021
      Cm = -0.0731     CD =  0.00997   =>   CDf =  0.00618    CDp =  0.00379

 Side 1  free  transition at x/c =  0.8725   67
 Side 2  free  transition at x/c =  0.0655   23

   4   rms: 0.6722E-03   max: 0.7867E-02   C at   67  1
       a = -3.000      CL =  0.0020
      Cm = -0.0731     CD =  0.00997   =>   CDf =  0.00619    CDp =  0.00378

 Side 1  free  transition at x/c =  0.8723   67
 Side 2  free  transition at x/c =  0.0655   23

   5   rms: 0.6866E-05   max: -.1037E-03   D at   69  1
       a = -3.000      CL =  0.0020
      Cm = -0.0731     CD =  0.00997   =>   CDf =  0.00619    CDp =  0.00378
 plradd ia,ip,cpol            3           0  2.29244549E-02

 Point added to stored polar  1
 Point written to save file  goe507_Re600k.base.pol                          
 Dump file unspecified or not available
 Calculating wake trajectory ...
 Calculating source influence matrix ...

 Solving BL system ...

 Side 1  free  transition at x/c =  0.8723   67
 Side 2  free  transition at x/c =  0.0655   23

   1   rms: 0.9461E-01   max: -.1692E+00   D at   25  2
       a = -2.500      CL =  0.0554
      Cm = -0.0723     CD =  0.00943   =>   CDf =  0.00626    CDp =  0.00317

 Side 1  free  transition at x/c =  0.8623   67
 Side 2  free  transition at x/c =  0.0670   23

   2   rms: 0.9882E-02   max: -.1210E+00   D at   67  1
       a = -2.500      CL =  0.0534
      Cm = -0.0720     CD =  0.00919   =>   CDf =  0.00626    CDp =  0.00293

 Side 1  free  transition at x/c =  0.8600   67
 Side 2  free  transition at x/c =  0.0675   23

   3   rms: 0.1156E-02   max: -.1335E-01   D at   67  1
       a = -2.500      CL =  0.0535
      Cm = -0.0720     CD =  0.00919   =>   CDf =  0.00626    CDp =  0.00293

 Side 1  free  transition at x/c =  0.8602   67
 Side 2  free  transition at x/c =  0.0675   23

   4   rms: 0.9245E-05   max: -.1070E-03   D at   69  1
       a = -2.500      CL =  0.0535
      Cm = -0.0720     CD =  0.00919   =>   CDf =  0.00626    CDp =  0.00293
 plradd ia,ip,cpol            4           0  2.29244549E-02

 Point added to stored polar  1
 Point written to save file  goe507_Re600k.base.pol                          
 Dump file unspecified or not available
 Calculating wake trajectory ...
 Calculating source influence matrix ...

 Solving BL system ...

 Side 1  free  transition at x/c =  0.8602   67
 Side 2  free  transition at x/c =  0.0675   23

   1   rms: 0.1035E+00   max: -.2658E+00   D at   24  2
       a = -2.000      CL =  0.1055
      Cm = -0.0710     CD =  0.00855   =>   CDf =  0.00626    CDp =  0.00229

 Side 1  free  transition at x/c =  0.8487   66
 Side 2  free  transition at x/c =  0.0710   23

   2   rms: 0.1283E-01   max: 0.1951E+00   D at   23  2
       a = -2.000      CL =  0.1060
      Cm = -0.0711     CD =  0.00867   =>   CDf =  0.00632    CDp =  0.00235

 Side 1  free  transition at x/c =  0.8485   66
 Side 2  free  transition at x/c =  0.0708   23

   3   rms: 0.1123E-02   max: 0.1479E-01   D at   23  2
       a = -2.000      CL =  0.1060
      Cm = -0.0711     CD =  0.00867   =>   CDf =  0.00629    CDp =  0.00238

 Side 1  free  transition at x/c =  0.8484   66
 Side 2  free  transition at x/c =  0.0708   23

   4   rms: 0.6058E-05   max: 0.7057E-04   D at   23  2
       a = -2.000      CL =  0.1060
      Cm = -0.0711     CD =  0.00867   =>   CDf =  0.00629    CDp =  0.00238
 plradd ia,ip,cpol            5           0  2.29244549E-02

 Point added to stored polar  1
 Point written to save file  goe507_Re600k.base.pol                          
 Dump file unspecified or not available
 Calculating wake trajectory ...
 Calculating source influence matrix ...

 Solving BL system ...

 Side 1  free  transition at x/c =  0.8484   66
 Side 2  free  transition at x/c =  0.0708   23

   1   rms: 0.9635E-01   max: -.3073E+00   T at   23  2
       a = -1.500      CL =  0.1588
      Cm = -0.0703     CD =  0.00827   =>   CDf =  0.00635    CDp =  0.00192

 Side 1  free  transition at x/c =  0.8347   66
 Side 2  free  transition at x/c =  0.0759   22

   2   rms: 0.1141E-01   max: -.1020E+00   D at   66  1
       a = -1.500      CL =  0.1596
      Cm = -0.0704     CD =  0.00836   =>   CDf =  0.00636    CDp =  0.00201

 Side 1  free  transition at x/c =  0.8365   66
 Side 2  free  transition at x/c =  0.0752   22

   3   rms: 0.7374E-03   max: 0.6286E-02   D at   67  1
       a = -1.500      CL =  0.1596
      Cm = -0.0704     CD =  0.00837   =>   CDf =  0.00634    CDp =  0.00203

 Side 1  free  transition at x/c =  0.8362   66
 Side 2  free  transition at x/c =  0.0751   22

   4   rms: 0.4390E-05   max: -.4429E-04   C at   66  1
       a = -1.500      CL =  0.1596
      Cm = -0.0704     CD =  0.00837   =>   CDf =  0.00634    CDp =  0.00203
 plradd ia,ip,cpol            6           0  2.98913326E-02

 Point added to stored polar  1
 Point written to save file  goe507_Re600k.base.pol                          
 Dump file unspecified or not available
 Calculating wake trajectory ...
 Calculating source influence matrix ...

 Solving BL system ...

 Side 1  free  transition at x/c =  0.8362   66
 Side 2  free  transition at x/c =  0.0751   22

   1   rms: 0.9180E-01   max: -.2579E+00   T at   22  2
       a = -1.000      CL =  0.2128
      Cm = -0.0697     CD =  0.00810   =>   CDf =  0.00639    CDp =  0.00171

 Side 1  free  transition at x/c =  0.8203   66
 Side 2  free  transition at x/c =  0.0785   22

   2   rms: 0.1944E-01   max: -.2043E+00   D at   67  1
       a = -1.000      CL =  0.2136
      Cm = -0.0697     CD =  0.00818   =>   CDf =  0.00641    CDp =  0.00177

 Side 1  free  transition at x/c =  0.8233   66
 Side 2  free  transition at x/c =  0.0783   21

   3   rms: 0.4497E-02   max: -.7404E-01   C at   66  1
       a = -1.000      CL =  0.2136
      Cm = -0.0697     CD =  0.00817   =>   CDf =  0.00642    CDp =  0.00176

 Side 1  free  transition at x/c =  0.8235   66
 Side 2  free  transition at x/c =  0.0783   21

   4   rms: 0.2623E-03   max: 0.3689E-02   D at   67  1
       a = -1.000      CL =  0.2136
      Cm = -0.0697     CD =  0.00818   =>   CDf =  0.00640    CDp =  0.00178

 Side 1  free  transition at x/c =  0.8234   66
 Side 2  free  transition at x/c =  0.0783   21

   5   rms: 0.1424E-05   max: 0.7607E-05   D at   79  1
       a = -1.000      CL =  0.2136
      Cm = -0.0697     CD =  0.00818   =>   CDf =  0.00640    CDp =  0.00178
 plradd ia,ip,cpol            7           0  2.98913326E-02

 Point added to stored polar  1
 Point written to save file  goe507_Re600k.base.pol                          
 Dump file unspecified or not available
 Calculating wake trajectory ...
 Calculating source influence matrix ...

 Solving BL system ...

 Side 1  free  transition at x/c =  0.8234   66
 Side 2  free  transition at x/c =  0.0783   21

   1   rms: 0.9050E-01   max: -.2089E+00   T at   21  2
       a = -0.500      CL =  0.2668
      Cm = -0.0690     CD =  0.00797   =>   CDf =  0.00644    CDp =  0.00153

 Side 1  free  transition at x/c =  0.8045   66
 Side 2  free  transition at x/c =  0.0823   21

   2   rms: 0.2754E-01   max: -.3017E+00   D at   20  2
       a = -0.500      CL =  0.2672
      Cm = -0.0689     CD =  0.00797   =>   CDf =  0.00645    CDp =  0.00153

 Side 1  free  transition at x/c =  0.8094   67
 Side 2  free  transition at x/c =  0.0885   21

   3   rms: 0.9408E-02   max: 0.2130E+00   C at   21  2
       a = -0.500      CL =  0.2672
      Cm = -0.0690     CD =  0.00795   =>   CDf =  0.00638    CDp =  0.00157

 Side 1  free  transition at x/c =  0.8088   67
 Side 2  free  transition at x/c =  0.0871   21

   4   rms: 0.2556E-03   max: 0.2828E-02   D at   67  1
       a = -0.500      CL =  0.2672
      Cm = -0.0690     CD =  0.00795   =>   CDf =  0.00638    CDp =  0.00157

 Side 1  free  transition at x/c =  0.8087   67
 Side 2  free  transition at x/c =  0.0871   21

   5   rms: 0.1723E-05   max: 0.1297E-04   D at    4  1
       a = -0.500      CL =  0.2672
      Cm = -0.0690     CD =  0.00795   =>   CDf =  0.00638    CDp =  0.00157
 plradd ia,ip,cpol            8           0  2.98913326E-02

 Point added to stored polar  1
 Point written to save file  goe507_Re600k.base.pol                          
 Dump file unspecified or not available
 Calculating wake trajectory ...
 Calculating source influence matrix ...

 Solving BL system ...

 Side 1  free  transition at x/c =  0.8087   67
 Side 2  free  transition at x/c =  0.0871   21

   1   rms: 0.1073E+00   max: -.1049E+01   C at   21  2   RLX: 0.476
       a =  0.000      CL =  0.2931
      Cm = -0.0686     CD =  0.00788   =>   CDf =  0.00638    CDp =  0.00150

 Side 1  free  transition at x/c =  0.8006   66
 Side 2  free  transition at x/c =  0.0917   21

   2   rms: 0.5559E-01   max: -.3222E+00   C at   21  2
       a =  0.000      CL =  0.3202
      Cm = -0.0681     CD =  0.00776   =>   CDf =  0.00640    CDp =  0.00136

 Side 1  free  transition at x/c =  0.7859   66
 Side 2  free  transition at x/c =  0.1822   26
 idif Ue xi dudx           1  0.17459080      1.27649307E-03   136.77379    
 Uenew xinew           2  1.09241530E-03  7.98702240E-06

   3   rms: 0.1669E-01   max: 0.1550E+00   D at   27  2
       a =  0.000      CL =  0.3189
      Cm = -0.0679     CD =  0.00755   =>   CDf =  0.00615    CDp =  0.00140

 Side 1  free  transition at x/c =  0.7892   65
 Side 2  free  transition at x/c =  0.1965   28

   4   rms: 0.8543E-02   max: -.1342E+00   C at   28  2
       a =  0.000      CL =  0.3187
      Cm = -0.0679     CD =  0.00752   =>   CDf =  0.00603    CDp =  0.00148

 Side 1  free  transition at x/c =  0.7887   65
 Side 2  free  transition at x/c =  0.1919   28

   5   rms: 0.6461E-03   max: 0.1130E-01   D at   29  2
       a =  0.000      CL =  0.3188
      Cm = -0.0679     CD =  0.00753   =>   CDf =  0.00604    CDp =  0.00149

 Side 1  free  transition at x/c =  0.7887   65
 Side 2  free  transition at x/c =  0.1921   28

   6   rms: 0.1121E-04   max: 0.1149E-03   D at    4  2
       a =  0.000      CL =  0.3188
      Cm = -0.0679     CD =  0.00753   =>   CDf =  0.00604    CDp =  0.00149
 plradd ia,ip,cpol            9           0  0.15644951    

 Point added to stored polar  1
 Point written to save file  goe507_Re600k.base.pol                          
 Dump file unspecified or not available
 Calculating wake trajectory ...
 Calculating source influence matrix ...

 Solving BL system ...

 Side 1  free  transition at x/c =  0.7887   65
 Side 2  free  transition at x/c =  0.1921   28

   1   rms: 0.1625E+00   max: -.2428E+01   C at   28  2   RLX: 0.206
       a =  0.500      CL =  0.3294
      Cm = -0.0677     CD =  0.00746   =>   CDf =  0.00605    CDp =  0.00141

 Side 1  free  transition at x/c =  0.7824   66
 Side 2  free  transition at x/c =  0.2002   27

   2   rms: 0.8775E-01   max: 0.7264E+00   C at   27  2
       a =  0.500      CL =  0.3722
      Cm = -0.0670     CD =  0.00755   =>   CDf =  0.00606    CDp =  0.00149

 MRCHDU: Convergence failed at  28  side 2    Res =  0.2331E+03
 MRCHDU: Convergence failed at  29  side 2    Res =  0.1152E+01
 MRCHDU: Convergence failed at  30  side 2    Res =  0.1896E+01
 MRCHDU: Convergence failed at  31  side 2    Res =  0.1666E+01
 MRCHDU: Convergence failed at  32  side 2    Res =  0.1254E+01
 MRCHDU: Convergence failed at  33  side 2    Res =  0.1018E+01
 Side 1  free  transition at x/c =  0.7616   65
 Side 2  free  transition at x/c =  0.3706   38

   3   rms: 0.8789E-01   max: -.6671E+00   T at   38  2   RLX: 0.750
       a =  0.500      CL =  0.3628
      Cm = -0.0664     CD =  0.00694   =>   CDf =  0.00590    CDp =  0.00105

 Side 1  free  transition at x/c =  0.7637   65
 Side 2  free  transition at x/c =  0.3740   38

   4   rms: 0.7124E-01   max: -.7876E+00   D at   38  2   RLX: 0.635
       a =  0.500      CL =  0.3658
      Cm = -0.0666     CD =  0.00706   =>   CDf =  0.00580    CDp =  0.00126

 Side 1  free  transition at x/c =  0.7632   65
 Side 2  free  transition at x/c =  0.3687   38

   5   rms: 0.6395E-01   max: -.1221E+01   C at   38  2   RLX: 0.410
       a =  0.500      CL =  0.3661
      Cm = -0.0666     CD =  0.00697   =>   CDf =  0.00561    CDp =  0.00136

 Side 1  free  transition at x/c =  0.7631   65
 Side 2  free  transition at x/c =  0.3172   35

   6   rms: 0.1056E+00   max: 0.2296E+01   C at   35  2   RLX: 0.653
       a =  0.500      CL =  0.3692
      Cm = -0.0668     CD =  0.00723   =>   CDf =  0.00571    CDp =  0.00152

 Side 1  free  transition at x/c =  0.7628   65
 Side 2  free  transition at x/c =  0.2744   32

   7   rms: 0.2203E-01   max: 0.4681E+00   C at   32  2
       a =  0.500      CL =  0.3704
      Cm = -0.0668     CD =  0.00728   =>   CDf =  0.00585    CDp =  0.00143

 Side 1  free  transition at x/c =  0.7626   65
 Side 2  free  transition at x/c =  0.2608   31

   8   rms: 0.2330E-02   max: -.5147E-01   C at   31  2
       a =  0.500      CL =  0.3705
      Cm = -0.0668     CD =  0.00729   =>   CDf =  0.00589    CDp =  0.00139

 Side 1  free  transition at x/c =  0.7626   65
 Side 2  free  transition at x/c =  0.2616   31

   9   rms: 0.3494E-04   max: 0.7705E-03   C at   31  2
       a =  0.500      CL =  0.3705
      Cm = -0.0668     CD =  0.00729   =>   CDf =  0.00589    CDp =  0.00140
 plradd ia,ip,cpol           10           0  0.15644951    

 Point added to stored polar  1
 Point written to save file  goe507_Re600k.base.pol                          
 Dump file unspecified or not available
 Calculating wake trajectory ...
 Calculating source influence matrix ...

 Solving BL system ...

 Side 1  free  transition at x/c =  0.7626   65
 Side 2  free  transition at x/c =  0.2616   31

   1   rms: 0.2091E+00   max: -.4122E+01   C at   31  2   RLX: 0.121
       a =  1.000      CL =  0.3767
      Cm = -0.0667     CD =  0.00726   =>   CDf =  0.00589    CDp =  0.00137

 Side 1  free  transition at x/c =  0.7599   64
 Side 2  free  transition at x/c =  0.2728   32

   2   rms: 0.2305E+00   max: -.4789E+01   C at   32  2   RLX: 0.104
       a =  1.000      CL =  0.3816
      Cm = -0.0666     CD =  0.00721   =>   CDf =  0.00586    CDp =  0.00135

 Side 1  free  transition at x/c =  0.7571   64
 Side 2  free  transition at x/c =  0.2829   33

   3   rms: 0.2568E+00   max: -.5312E+01   C at   33  2   RLX: 0.094
       a =  1.000      CL =  0.3854
      Cm = -0.0665     CD =  0.00717   =>   CDf =  0.00582    CDp =  0.00135

 Side 1  free  transition at x/c =  0.7549   65
 Side 2  free  transition at x/c =  0.2957   33

   4   rms: 0.3386E+00   max: -.7144E+01   C at   33  2   RLX: 0.070
       a =  1.000      CL =  0.3877
      Cm = -0.0664     CD =  0.00712   =>   CDf =  0.00578    CDp =  0.00134

 Side 1  free  transition at x/c =  0.7534   65
 Side 2  free  transition at x/c =  0.3093   33

   5   rms: 0.4947E+00   max: -.1040E+02   C at   33  2   RLX: 0.048
       a =  1.000      CL =  0.3893
      Cm = -0.0664     CD =  0.00710   =>   CDf =  0.00574    CDp =  0.00136

 Side 1  free  transition at x/c =  0.7526   65
 Side 2  free  transition at x/c =  0.3202   34

   6   rms: 0.4648E+00   max: -.9940E+01   C at   34  2   RLX: 0.050
       a =  1.000      CL =  0.3908
      Cm = -0.0663     CD =  0.00707   =>   CDf =  0.00571    CDp =  0.00136

 Side 1  free  transition at x/c =  0.7517   65
 Side 2  free  transition at x/c =  0.3331   35

   7   rms: 0.4971E+00   max: -.1066E+02   C at   35  2   RLX: 0.047
       a =  1.000      CL =  0.3920
      Cm = -0.0663     CD =  0.00703   =>   CDf =  0.00567    CDp =  0.00136

 Side 1  free  transition at x/c =  0.7510   65
 Side 2  free  transition at x/c =  0.3448   36

   8   rms: 0.5090E+00   max: -.1089E+02   C at   36  2   RLX: 0.046
       a =  1.000      CL =  0.3932
      Cm = -0.0662     CD =  0.00699   =>   CDf =  0.00564    CDp =  0.00135

 Side 1  free  transition at x/c =  0.7503   65
 Side 2  free  transition at x/c =  0.3578   36

   9   rms: 0.6387E+00   max: -.1302E+02   C at   36  2   RLX: 0.038
       a =  1.000      CL =  0.3941
      Cm = -0.0662     CD =  0.00697   =>   CDf =  0.00560    CDp =  0.00136

 Side 1  free  transition at x/c =  0.7498   65
 Side 2  free  transition at x/c =  0.3673   37

  10   rms: 0.5471E+00   max: -.1150E+02   C at   37  2   RLX: 0.043
       a =  1.000      CL =  0.3951
      Cm = -0.0661     CD =  0.00694   =>   CDf =  0.00558    CDp =  0.00136

 Side 1  free  transition at x/c =  0.7492   65
 Side 2  free  transition at x/c =  0.3808   38

  11   rms: 0.4489E+00   max: -.9444E+01   C at   38  2   RLX: 0.053
       a =  1.000      CL =  0.3962
      Cm = -0.0661     CD =  0.00690   =>   CDf =  0.00554    CDp =  0.00136

 Side 1  free  transition at x/c =  0.7486   65
 Side 2  free  transition at x/c =  0.3926   39

  12   rms: 0.3930E+00   max: -.8267E+01   C at   39  2   RLX: 0.060
       a =  1.000      CL =  0.3975
      Cm = -0.0660     CD =  0.00687   =>   CDf =  0.00551    CDp =  0.00136

 Side 1  free  transition at x/c =  0.7479   65
 Side 2  free  transition at x/c =  0.4075   40

  13   rms: 0.3722E+00   max: -.7790E+01   C at   40  2   RLX: 0.064
       a =  1.000      CL =  0.3987
      Cm = -0.0660     CD =  0.00683   =>   CDf =  0.00547    CDp =  0.00135

 Side 1  free  transition at x/c =  0.7473   65
 Side 2  free  transition at x/c =  0.4230   41

  14   rms: 0.3652E+00   max: -.7608E+01   C at   41  2   RLX: 0.066
       a =  1.000      CL =  0.3998
      Cm = -0.0659     CD =  0.00679   =>   CDf =  0.00543    CDp =  0.00135

 Side 1  free  transition at x/c =  0.7467   65
 Side 2  free  transition at x/c =  0.4373   41

  15   rms: 0.4108E+00   max: -.8159E+01   C at   41  2   RLX: 0.061
       a =  1.000      CL =  0.4009
      Cm = -0.0659     CD =  0.00676   =>   CDf =  0.00539    CDp =  0.00137

 Side 1  free  transition at x/c =  0.7462   65
 Side 2  free  transition at x/c =  0.4500   42

  16   rms: 0.2878E+00   max: -.5794E+01   C at   42  2   RLX: 0.086
       a =  1.000      CL =  0.4022
      Cm = -0.0658     CD =  0.00673   =>   CDf =  0.00536    CDp =  0.00137

 Side 1  free  transition at x/c =  0.7455   64
 Side 2  free  transition at x/c =  0.4698   43

  17   rms: 0.3046E+00   max: -.6009E+01   C at   43  2   RLX: 0.083
       a =  1.000      CL =  0.4033
      Cm = -0.0657     CD =  0.00667   =>   CDf =  0.00531    CDp =  0.00136

 Side 1  free  transition at x/c =  0.7448   64
 Side 2  free  transition at x/c =  0.4876   45

  18   rms: 0.2731E+00   max: -.5619E+01   C at   45  2   RLX: 0.089
       a =  1.000      CL =  0.4042
      Cm = -0.0656     CD =  0.00661   =>   CDf =  0.00525    CDp =  0.00135

 Side 1  free  transition at x/c =  0.7441   64
 Side 2  free  transition at x/c =  0.5016   45

  19   rms: 0.2739E+00   max: -.5345E+01   C at   45  2   RLX: 0.094
       a =  1.000      CL =  0.4053
      Cm = -0.0655     CD =  0.00658   =>   CDf =  0.00521    CDp =  0.00136

 Side 1  free  transition at x/c =  0.7434   64
 Side 2  free  transition at x/c =  0.5182   47

  20   rms: 0.2227E+00   max: -.4553E+01   C at   47  2   RLX: 0.110
       a =  1.000      CL =  0.4062
      Cm = -0.0654     CD =  0.00651   =>   CDf =  0.00516    CDp =  0.00135

 Side 1  free  transition at x/c =  0.7427   64
 Side 2  free  transition at x/c =  0.5440   48

  21   rms: 0.5369E+00   max: -.1048E+02   C at   48  2   RLX: 0.048
       a =  1.000      CL =  0.4062
      Cm = -0.0653     CD =  0.00644   =>   CDf =  0.00508    CDp =  0.00136

 Side 1  free  transition at x/c =  0.7425   64
 Side 2  free  transition at x/c =  0.5497   48

  22   rms: 0.3448E+00   max: -.6535E+01   C at   48  2   RLX: 0.077
       a =  1.000      CL =  0.4067
      Cm = -0.0653     CD =  0.00643   =>   CDf =  0.00506    CDp =  0.00137

 Side 1  free  transition at x/c =  0.7420   64
 Side 2  free  transition at x/c =  0.5672   50

  23   rms: 0.3713E+00   max: -.7484E+01   C at   50  2   RLX: 0.067
       a =  1.000      CL =  0.4068
      Cm = -0.0652     CD =  0.00636   =>   CDf =  0.00500    CDp =  0.00136

 Side 1  free  transition at x/c =  0.7417   64
 Side 2  free  transition at x/c =  0.5788   50

  24   rms: 0.4489E+00   max: -.8502E+01   C at   50  2   RLX: 0.059
       a =  1.000      CL =  0.4070
      Cm = -0.0651     CD =  0.00633   =>   CDf =  0.00496    CDp =  0.00137

 Side 1  free  transition at x/c =  0.7415   64
 Side 2  free  transition at x/c =  0.5920   51

  25   rms: 0.4305E+00   max: -.8228E+01   C at   51  2   RLX: 0.061
       a =  1.000      CL =  0.4071
      Cm = -0.0650     CD =  0.00629   =>   CDf =  0.00492    CDp =  0.00137

 Side 1  free  transition at x/c =  0.7412   64
 Side 2  free  transition at x/c =  0.6032   52

  26   rms: 0.3783E+00   max: -.7378E+01   C at   52  2   RLX: 0.068
       a =  1.000      CL =  0.4072
      Cm = -0.0649     CD =  0.00625   =>   CDf =  0.00489    CDp =  0.00137

 Side 1  free  transition at x/c =  0.7410   64
 Side 2  free  transition at x/c =  0.6183   53

  27   rms: 0.3856E+00   max: -.7523E+01   C at   53  2   RLX: 0.066
       a =  1.000      CL =  0.4071
      Cm = -0.0648     CD =  0.00621   =>   CDf =  0.00484    CDp =  0.00137

 Side 1  free  transition at x/c =  0.7407   64
 Side 2  free  transition at x/c =  0.6361   54

  28   rms: 0.4126E+00   max: -.7962E+01   C at   54  2   RLX: 0.063
       a =  1.000      CL =  0.4069
      Cm = -0.0647     CD =  0.00615   =>   CDf =  0.00478    CDp =  0.00137

 Side 1  free  transition at x/c =  0.7405   64
 Side 2  free  transition at x/c =  0.6553   55

  29   rms: 0.4391E+00   max: -.8345E+01   C at   55  2   RLX: 0.060
       a =  1.000      CL =  0.4067
      Cm = -0.0645     CD =  0.00610   =>   CDf =  0.00473    CDp =  0.00137

 Side 1  free  transition at x/c =  0.7403   64
 Side 2  free  transition at x/c =  0.6751   56

  30   rms: 0.4537E+00   max: -.8470E+01   C at   56  2   RLX: 0.059
       a =  1.000      CL =  0.4063
      Cm = -0.0644     CD =  0.00604   =>   CDf =  0.00467    CDp =  0.00137

 Side 1  free  transition at x/c =  0.7402   64
 Side 2  free  transition at x/c =  0.6949   58

  31   rms: 0.3666E+00   max: -.7236E+01   C at   58  2   RLX: 0.069
       a =  1.000      CL =  0.4058
      Cm = -0.0641     CD =  0.00597   =>   CDf =  0.00460    CDp =  0.00137

 Side 1  free  transition at x/c =  0.7400   64
 Side 2  free  transition at x/c =  0.7075   58

  32   rms: 0.3478E+00   max: -.6445E+01   C at   58  2   RLX: 0.078
       a =  1.000      CL =  0.4056
      Cm = -0.0640     CD =  0.00594   =>   CDf =  0.00456    CDp =  0.00138

 Side 1  free  transition at x/c =  0.7399   64
 Side 2  free  transition at x/c =  0.7095   58

  33   rms: 0.2486E+00   max: -.4571E+01   C at   58  2   RLX: 0.109
       a =  1.000      CL =  0.4056
      Cm = -0.0640     CD =  0.00593   =>   CDf =  0.00456    CDp =  0.00138

 Side 1  free  transition at x/c =  0.7396   64
 Side 2  free  transition at x/c =  0.7352   60

  34   rms: 0.2821E+00   max: -.5245E+01   C at   60  2   RLX: 0.095
       a =  1.000      CL =  0.4050
      Cm = -0.0636     CD =  0.00584   =>   CDf =  0.00446    CDp =  0.00138

 Side 1  free  transition at x/c =  0.7394   64
 Side 2  free  transition at x/c =  0.7469   61

  35   rms: 0.2405E+00   max: -.4554E+01   C at   61  2   RLX: 0.110
       a =  1.000      CL =  0.4046
      Cm = -0.0635     CD =  0.00580   =>   CDf =  0.00442    CDp =  0.00138

 Side 1  free  transition at x/c =  0.7393   64
 Side 2  free  transition at x/c =  0.7610   62

  36   rms: 0.2139E+00   max: -.4076E+01   C at   62  2   RLX: 0.123
       a =  1.000      CL =  0.4042
      Cm = -0.0633     CD =  0.00575   =>   CDf =  0.00437    CDp =  0.00138

 Side 1  free  transition at x/c =  0.7391   64
 Side 2  free  transition at x/c =  0.7773   63

  37   rms: 0.1992E+00   max: -.3783E+01   C at   63  2   RLX: 0.132
       a =  1.000      CL =  0.4037
      Cm = -0.0630     CD =  0.00571   =>   CDf =  0.00431    CDp =  0.00139

 Side 1  free  transition at x/c =  0.7389   64
 Side 2  free  transition at x/c =  0.7952   64

  38   rms: 0.1930E+00   max: -.3624E+01   C at   64  2   RLX: 0.138
       a =  1.000      CL =  0.4032
      Cm = -0.0628     CD =  0.00566   =>   CDf =  0.00425    CDp =  0.00140

 Side 1  free  transition at x/c =  0.7388   64
 Side 2  free  transition at x/c =  0.8154   65

  39   rms: 0.1931E+00   max: -.3544E+01   C at   65  2   RLX: 0.141
       a =  1.000      CL =  0.4028
      Cm = -0.0626     CD =  0.00561   =>   CDf =  0.00419    CDp =  0.00142

 Side 1  free  transition at x/c =  0.7387   64
 Side 2  free  transition at x/c =  0.8363   66

  40   rms: 0.1414E+00   max: -.2543E+01   C at   66  2   RLX: 0.197
       a =  1.000      CL =  0.4026
      Cm = -0.0624     CD =  0.00556   =>   CDf =  0.00413    CDp =  0.00143

 Side 1  free  transition at x/c =  0.7385   64
 Side 2  free  transition at x/c =  0.8522   68

  41   rms: 0.6869E-01   max: -.1328E+01   C at   68  2   RLX: 0.377
       a =  1.000      CL =  0.4030
      Cm = -0.0622     CD =  0.00551   =>   CDf =  0.00408    CDp =  0.00143

 Side 1  free  transition at x/c =  0.7382   64
 Side 2  free  transition at x/c =  0.8585   68

  42   rms: 0.4762E-01   max: -.9028E+00   C at   68  2   RLX: 0.554
       a =  1.000      CL =  0.4038
      Cm = -0.0623     CD =  0.00551   =>   CDf =  0.00406    CDp =  0.00144

 Side 1  free  transition at x/c =  0.7379   64
 Side 2  free  transition at x/c =  0.8760   69

  43   rms: 0.2194E-01   max: -.4085E+00   C at   69  2
       a =  1.000      CL =  0.4052
      Cm = -0.0623     CD =  0.00549   =>   CDf =  0.00401    CDp =  0.00147

 Side 1  free  transition at x/c =  0.7376   64
 Side 2  free  transition at x/c =  0.8937   70

  44   rms: 0.1713E-02   max: -.2365E-01   C at   70  2
       a =  1.000      CL =  0.4059
      Cm = -0.0624     CD =  0.00549   =>   CDf =  0.00397    CDp =  0.00152

 Side 1  free  transition at x/c =  0.7376   64
 Side 2  free  transition at x/c =  0.8954   70

  45   rms: 0.7583E-04   max: -.1324E-02   C at   70  2
       a =  1.000      CL =  0.4059
      Cm = -0.0624     CD =  0.00549   =>   CDf =  0.00397    CDp =  0.00152
 plradd ia,ip,cpol           11           0  0.14104332    

 Point added to stored polar  1
 Point written to save file  goe507_Re600k.base.pol                          
 Dump file unspecified or not available
 Calculating wake trajectory ...
 Calculating source influence matrix ...

 Solving BL system ...

 Side 1  free  transition at x/c =  0.7376   64
 Side 2  free  transition at x/c =  0.8954   70

   1   rms: 0.7817E+00   max: -.1376E+02   C at   70  2   RLX: 0.036
       a =  1.500      CL =  0.4101
      Cm = -0.0628     CD =  0.00546   =>   CDf =  0.00397    CDp =  0.00149

 Side 1  free  transition at x/c =  0.7365   64
 Side 2  free  transition at x/c =  0.9206   72

   2   rms: 0.8852E+00   max: -.1269E+02   C at   72  2   RLX: 0.039
       a =  1.500      CL =  0.4217
      Cm = -0.0647     CD =  0.00542   =>   CDf =  0.00392    CDp =  0.00149

 Side 1  free  transition at x/c =  0.7348   64
 Side 2  free  transition at x/c =  0.9417   73

   3   rms: 0.1076E+00   max: 0.7781E+00   C at   74  2
       a =  1.500      CL =  0.4469
      Cm = -0.0582     CD =  0.00563   =>   CDf =  0.00393    CDp =  0.00170

 MRCHDU: Convergence failed at  77  side 2    Res =  0.5013E+01
 MRCHDU: Convergence failed at  78  side 2    Res =  0.3447E+01
 Side 1  free  transition at x/c =  0.7039   63
 Side 2 forced transition at x/c =  1.0000   78

   4   rms: 0.1079E+00   max: 0.1127E+01   C at   78  2
       a =  1.500      CL =  0.5142
      Cm = -0.0738     CD =  0.00543   =>   CDf =  0.00408    CDp =  0.00135

 Side 1  free  transition at x/c =  0.7022   63
 Side 2 forced transition at x/c =  1.0000   78

   5   rms: 0.5222E-01   max: 0.5286E+00   C at   78  2
       a =  1.500      CL =  0.5339
      Cm = -0.0780     CD =  0.00555   =>   CDf =  0.00404    CDp =  0.00151

 Side 1  free  transition at x/c =  0.6985   62
 Side 2 forced transition at x/c =  1.0000   78

   6   rms: 0.1268E-01   max: 0.1223E+00   D at   74  2
       a =  1.500      CL =  0.5373
      Cm = -0.0786     CD =  0.00561   =>   CDf =  0.00406    CDp =  0.00155

 Side 1  free  transition at x/c =  0.6981   62
 Side 2  free  transition at x/c =  0.9919   77

   7   rms: 0.2402E-01   max: -.2318E+00   D at   78  2
       a =  1.500      CL =  0.5229
      Cm = -0.0754     CD =  0.00561   =>   CDf =  0.00405    CDp =  0.00156

 Side 1  free  transition at x/c =  0.6991   62
 Side 2  free  transition at x/c =  0.9966   78

   8   rms: 0.6366E-02   max: 0.9906E-01   D at   77  2
       a =  1.500      CL =  0.5243
      Cm = -0.0757     CD =  0.00563   =>   CDf =  0.00406    CDp =  0.00157

 Side 1  free  transition at x/c =  0.6991   62
 Side 2  free  transition at x/c =  0.9958   78

   9   rms: 0.2092E-02   max: -.3814E-01   C at   62  1
       a =  1.500      CL =  0.5242
      Cm = -0.0757     CD =  0.00563   =>   CDf =  0.00406    CDp =  0.00158

 Side 1  free  transition at x/c =  0.6991   62
 Side 2  free  transition at x/c =  0.9959   78

  10   rms: 0.2071E-02   max: -.3799E-01   C at   62  1
       a =  1.500      CL =  0.5242
      Cm = -0.0757     CD =  0.00563   =>   CDf =  0.00406    CDp =  0.00158

 Side 1  free  transition at x/c =  0.6991   62
 Side 2  free  transition at x/c =  0.9959   78

  11   rms: 0.2072E-02   max: -.3800E-01   C at   62  1
       a =  1.500      CL =  0.5242
      Cm = -0.0757     CD =  0.00563   =>   CDf =  0.00406    CDp =  0.00158

 Side 1  free  transition at x/c =  0.6991   62
 Side 2  free  transition at x/c =  0.9959   78

  12   rms: 0.2072E-02   max: -.3800E-01   C at   62  1
       a =  1.500      CL =  0.5242
      Cm = -0.0757     CD =  0.00563   =>   CDf =  0.00406    CDp =  0.00158

 Side 1  free  transition at x/c =  0.6991   62
 Side 2  free  transition at x/c =  0.9959   78

  13   rms: 0.2072E-02   max: -.3800E-01   C at   62  1
       a =  1.500      CL =  0.5242
      Cm = -0.0757     CD =  0.00563   =>   CDf =  0.00406    CDp =  0.00158

 Side 1  free  transition at x/c =  0.6991   62
 Side 2  free  transition at x/c =  0.9959   78

  14   rms: 0.2072E-02   max: -.3801E-01   C at   62  1
       a =  1.500      CL =  0.5242
      Cm = -0.0757     CD =  0.00563   =>   CDf =  0.00406    CDp =  0.00158

 Side 1  free  transition at x/c =  0.6991   62
 Side 2  free  transition at x/c =  0.9959   78

  15   rms: 0.2072E-02   max: -.3800E-01   C at   62  1
       a =  1.500      CL =  0.5242
      Cm = -0.0757     CD =  0.00563   =>   CDf =  0.00406    CDp =  0.00158

 Side 1  free  transition at x/c =  0.6991   62
 Side 2  free  transition at x/c =  0.9959   78

  16   rms: 0.2072E-02   max: -.3800E-01   C at   62  1
       a =  1.500      CL =  0.5242
      Cm = -0.0757     CD =  0.00563   =>   CDf =  0.00406    CDp =  0.00158

 Side 1  free  transition at x/c =  0.6991   62
 Side 2  free  transition at x/c =  0.9959   78

  17   rms: 0.2071E-02   max: -.3799E-01   C at   62  1
       a =  1.500      CL =  0.5242
      Cm = -0.0757     CD =  0.00563   =>   CDf =  0.00406    CDp =  0.00158

 Side 1  free  transition at x/c =  0.6991   62
 Side 2  free  transition at x/c =  0.9959   78

  18   rms: 0.2072E-02   max: -.3800E-01   C at   62  1
       a =  1.500      CL =  0.5242
      Cm = -0.0757     CD =  0.00563   =>   CDf =  0.00406    CDp =  0.00158

 Side 1  free  transition at x/c =  0.6991   62
 Side 2  free  transition at x/c =  0.9959   78

  19   rms: 0.2071E-02   max: -.3800E-01   C at   62  1
       a =  1.500      CL =  0.5242
      Cm = -0.0757     CD =  0.00563   =>   CDf =  0.00406    CDp =  0.00158

 Side 1  free  transition at x/c =  0.6991   62
 Side 2  free  transition at x/c =  0.9959   78

  20   rms: 0.2072E-02   max: -.3800E-01   C at   62  1
       a =  1.500      CL =  0.5242
      Cm = -0.0757     CD =  0.00563   =>   CDf =  0.00406    CDp =  0.00158

 Side 1  free  transition at x/c =  0.6991   62
 Side 2  free  transition at x/c =  0.9959   78

  21   rms: 0.2072E-02   max: -.3800E-01   C at   62  1
       a =  1.500      CL =  0.5242
      Cm = -0.0757     CD =  0.00563   =>   CDf =  0.00406    CDp =  0.00158

 Side 1  free  transition at x/c =  0.6991   62
 Side 2  free  transition at x/c =  0.9959   78

  22   rms: 0.2072E-02   max: -.3800E-01   C at   62  1
       a =  1.500      CL =  0.5242
      Cm = -0.0757     CD =  0.00563   =>   CDf =  0.00406    CDp =  0.00158

 Side 1  free  transition at x/c =  0.6991   62
 Side 2  free  transition at x/c =  0.9959   78

  23   rms: 0.2072E-02   max: -.3800E-01   C at   62  1
       a =  1.500      CL =  0.5242
      Cm = -0.0757     CD =  0.00563   =>   CDf =  0.00406    CDp =  0.00158

 Side 1  free  transition at x/c =  0.6991   62
 Side 2  free  transition at x/c =  0.9959   78

  24   rms: 0.2072E-02   max: -.3800E-01   C at   62  1
       a =  1.500      CL =  0.5242
      Cm = -0.0757     CD =  0.00563   =>   CDf =  0.00406    CDp =  0.00158

 Side 1  free  transition at x/c =  0.6991   62
 Side 2  free  transition at x/c =  0.9959   78

  25   rms: 0.2072E-02   max: -.3800E-01   C at   62  1
       a =  1.500      CL =  0.5242
      Cm = -0.0757     CD =  0.00563   =>   CDf =  0.00406    CDp =  0.00158

 Side 1  free  transition at x/c =  0.6991   62
 Side 2  free  transition at x/c =  0.9959   78

  26   rms: 0.2072E-02   max: -.3800E-01   C at   62  1
       a =  1.500      CL =  0.5242
      Cm = -0.0757     CD =  0.00563   =>   CDf =  0.00406    CDp =  0.00158

 Side 1  free  transition at x/c =  0.6991   62
 Side 2  free  transition at x/c =  0.9959   78

  27   rms: 0.2072E-02   max: -.3800E-01   C at   62  1
       a =  1.500      CL =  0.5242
      Cm = -0.0757     CD =  0.00563   =>   CDf =  0.00406    CDp =  0.00158

 Side 1  free  transition at x/c =  0.6991   62
 Side 2  free  transition at x/c =  0.9959   78

  28   rms: 0.2072E-02   max: -.3800E-01   C at   62  1
       a =  1.500      CL =  0.5242
      Cm = -0.0757     CD =  0.00563   =>   CDf =  0.00406    CDp =  0.00158

 Side 1  free  transition at x/c =  0.6991   62
 Side 2  free  transition at x/c =  0.9959   78

  29   rms: 0.2072E-02   max: -.3800E-01   C at   62  1
       a =  1.500      CL =  0.5242
      Cm = -0.0757     CD =  0.00563   =>   CDf =  0.00406    CDp =  0.00158

 Side 1  free  transition at x/c =  0.6991   62
 Side 2  free  transition at x/c =  0.9959   78

  30   rms: 0.2072E-02   max: -.3800E-01   C at   62  1
       a =  1.500      CL =  0.5242
      Cm = -0.0757     CD =  0.00563   =>   CDf =  0.00406    CDp =  0.00158

 Side 1  free  transition at x/c =  0.6991   62
 Side 2  free  transition at x/c =  0.9959   78

  31   rms: 0.2072E-02   max: -.3800E-01   C at   62  1
       a =  1.500      CL =  0.5242
      Cm = -0.0757     CD =  0.00563   =>   CDf =  0.00406    CDp =  0.00158

 Side 1  free  transition at x/c =  0.6991   62
 Side 2  free  transition at x/c =  0.9959   78

  32   rms: 0.2071E-02   max: -.3800E-01   C at   62  1
       a =  1.500      CL =  0.5242
      Cm = -0.0757     CD =  0.00563   =>   CDf =  0.00406    CDp =  0.00158

 Side 1  free  transition at x/c =  0.6991   62
 Side 2  free  transition at x/c =  0.9959   78

  33   rms: 0.2072E-02   max: -.3800E-01   C at   62  1
       a =  1.500      CL =  0.5242
      Cm = -0.0757     CD =  0.00563   =>   CDf =  0.00406    CDp =  0.00158

 Side 1  free  transition at x/c =  0.6991   62
 Side 2  free  transition at x/c =  0.9959   78

  34   rms: 0.2072E-02   max: -.3800E-01   C at   62  1
       a =  1.500      CL =  0.5242
      Cm = -0.0757     CD =  0.00563   =>   CDf =  0.00406    CDp =  0.00158

 Side 1  free  transition at x/c =  0.6991   62
 Side 2  free  transition at x/c =  0.9959   78

  35   rms: 0.2072E-02   max: -.3800E-01   C at   62  1
       a =  1.500      CL =  0.5242
      Cm = -0.0757     CD =  0.00563   =>   CDf =  0.00406    CDp =  0.00158

 Side 1  free  transition at x/c =  0.6991   62
 Side 2  free  transition at x/c =  0.9959   78

  36   rms: 0.2071E-02   max: -.3800E-01   C at   62  1
       a =  1.500      CL =  0.5242
      Cm = -0.0757     CD =  0.00563   =>   CDf =  0.00406    CDp =  0.00158

 Side 1  free  transition at x/c =  0.6991   62
 Side 2  free  transition at x/c =  0.9959   78

  37   rms: 0.2072E-02   max: -.3800E-01   C at   62  1
       a =  1.500      CL =  0.5242
      Cm = -0.0757     CD =  0.00563   =>   CDf =  0.00406    CDp =  0.00158

 Side 1  free  transition at x/c =  0.6991   62
 Side 2  free  transition at x/c =  0.9959   78

  38   rms: 0.2072E-02   max: -.3800E-01   C at   62  1
       a =  1.500      CL =  0.5242
      Cm = -0.0757     CD =  0.00563   =>   CDf =  0.00406    CDp =  0.00158

 Side 1  free  transition at x/c =  0.6991   62
 Side 2  free  transition at x/c =  0.9959   78

  39   rms: 0.2071E-02   max: -.3800E-01   C at   62  1
       a =  1.500      CL =  0.5242
      Cm = -0.0757     CD =  0.00563   =>   CDf =  0.00406    CDp =  0.00158

 Side 1  free  transition at x/c =  0.6991   62
 Side 2  free  transition at x/c =  0.9959   78

  40   rms: 0.2071E-02   max: -.3800E-01   C at   62  1
       a =  1.500      CL =  0.5242
      Cm = -0.0757     CD =  0.00563   =>   CDf =  0.00406    CDp =  0.00158

 Side 1  free  transition at x/c =  0.6991   62
 Side 2  free  transition at x/c =  0.9959   78

  41   rms: 0.2072E-02   max: -.3801E-01   C at   62  1
       a =  1.500      CL =  0.5242
      Cm = -0.0757     CD =  0.00563   =>   CDf =  0.00406    CDp =  0.00158

 Side 1  free  transition at x/c =  0.6991   62
 Side 2  free  transition at x/c =  0.9959   78

  42   rms: 0.2071E-02   max: -.3799E-01   C at   62  1
       a =  1.500      CL =  0.5242
      Cm = -0.0757     CD =  0.00563   =>   CDf =  0.00406    CDp =  0.00158

 Side 1  free  transition at x/c =  0.6991   62
 Side 2  free  transition at x/c =  0.9959   78

  43   rms: 0.2072E-02   max: -.3800E-01   C at   62  1
       a =  1.500      CL =  0.5242
      Cm = -0.0757     CD =  0.00563   =>   CDf =  0.00406    CDp =  0.00158

 Side 1  free  transition at x/c =  0.6991   62
 Side 2  free  transition at x/c =  0.9959   78

  44   rms: 0.2072E-02   max: -.3800E-01   C at   62  1
       a =  1.500      CL =  0.5242
      Cm = -0.0757     CD =  0.00563   =>   CDf =  0.00406    CDp =  0.00158

 Side 1  free  transition at x/c =  0.6991   62
 Side 2  free  transition at x/c =  0.9959   78

  45   rms: 0.2072E-02   max: -.3800E-01   C at   62  1
       a =  1.500      CL =  0.5242
      Cm = -0.0757     CD =  0.00563   =>   CDf =  0.00406    CDp =  0.00158

 Side 1  free  transition at x/c =  0.6991   62
 Side 2  free  transition at x/c =  0.9959   78

  46   rms: 0.2072E-02   max: -.3800E-01   C at   62  1
       a =  1.500      CL =  0.5242
      Cm = -0.0757     CD =  0.00563   =>   CDf =  0.00406    CDp =  0.00158

 Side 1  free  transition at x/c =  0.6991   62
 Side 2  free  transition at x/c =  0.9959   78

  47   rms: 0.2072E-02   max: -.3800E-01   C at   62  1
       a =  1.500      CL =  0.5242
      Cm = -0.0757     CD =  0.00563   =>   CDf =  0.00406    CDp =  0.00158

 Side 1  free  transition at x/c =  0.6991   62
 Side 2  free  transition at x/c =  0.9959   78

  48   rms: 0.2072E-02   max: -.3800E-01   C at   62  1
       a =  1.500      CL =  0.5242
      Cm = -0.0757     CD =  0.00563   =>   CDf =  0.00406    CDp =  0.00158

 Side 1  free  transition at x/c =  0.6991   62
 Side 2  free  transition at x/c =  0.9959   78

  49   rms: 0.2072E-02   max: -.3800E-01   C at   62  1
       a =  1.500      CL =  0.5242
      Cm = -0.0757     CD =  0.00563   =>   CDf =  0.00406    CDp =  0.00158

 Side 1  free  transition at x/c =  0.6991   62
 Side 2  free  transition at x/c =  0.9959   78

  50   rms: 0.2071E-02   max: -.3800E-01   C at   62  1
       a =  1.500      CL =  0.5242
      Cm = -0.0757     CD =  0.00563   =>   CDf =  0.00406    CDp =  0.00158

 Side 1  free  transition at x/c =  0.6991   62
 Side 2  free  transition at x/c =  0.9959   78

  51   rms: 0.2072E-02   max: -.3800E-01   C at   62  1
       a =  1.500      CL =  0.5242
      Cm = -0.0757     CD =  0.00563   =>   CDf =  0.00406    CDp =  0.00158

 Side 1  free  transition at x/c =  0.6991   62
 Side 2  free  transition at x/c =  0.9959   78

  52   rms: 0.2072E-02   max: -.3800E-01   C at   62  1
       a =  1.500      CL =  0.5242
      Cm = -0.0757     CD =  0.00563   =>   CDf =  0.00406    CDp =  0.00158

 Side 1  free  transition at x/c =  0.6991   62
 Side 2  free  transition at x/c =  0.9959   78

  53   rms: 0.2072E-02   max: -.3800E-01   C at   62  1
       a =  1.500      CL =  0.5242
      Cm = -0.0757     CD =  0.00563   =>   CDf =  0.00406    CDp =  0.00158

 Side 1  free  transition at x/c =  0.6991   62
 Side 2  free  transition at x/c =  0.9959   78

  54   rms: 0.2072E-02   max: -.3800E-01   C at   62  1
       a =  1.500      CL =  0.5242
      Cm = -0.0757     CD =  0.00563   =>   CDf =  0.00406    CDp =  0.00158

 Side 1  free  transition at x/c =  0.6991   62
 Side 2  free  transition at x/c =  0.9959   78

  55   rms: 0.2072E-02   max: -.3800E-01   C at   62  1
       a =  1.500      CL =  0.5242
      Cm = -0.0757     CD =  0.00563   =>   CDf =  0.00406    CDp =  0.00158

 Side 1  free  transition at x/c =  0.6991   62
 Side 2  free  transition at x/c =  0.9959   78

  56   rms: 0.2071E-02   max: -.3800E-01   C at   62  1
       a =  1.500      CL =  0.5242
      Cm = -0.0757     CD =  0.00563   =>   CDf =  0.00406    CDp =  0.00158

 Side 1  free  transition at x/c =  0.6991   62
 Side 2  free  transition at x/c =  0.9959   78

  57   rms: 0.2072E-02   max: -.3800E-01   C at   62  1
       a =  1.500      CL =  0.5242
      Cm = -0.0757     CD =  0.00563   =>   CDf =  0.00406    CDp =  0.00158

 Side 1  free  transition at x/c =  0.6991   62
 Side 2  free  transition at x/c =  0.9959   78

  58   rms: 0.2071E-02   max: -.3799E-01   C at   62  1
       a =  1.500      CL =  0.5242
      Cm = -0.0757     CD =  0.00563   =>   CDf =  0.00406    CDp =  0.00158

 Side 1  free  transition at x/c =  0.6991   62
 Side 2  free  transition at x/c =  0.9959   78

  59   rms: 0.2071E-02   max: -.3799E-01   C at   62  1
       a =  1.500      CL =  0.5242
      Cm = -0.0757     CD =  0.00563   =>   CDf =  0.00406    CDp =  0.00158

 Side 1  free  transition at x/c =  0.6991   62
 Side 2  free  transition at x/c =  0.9959   78

  60   rms: 0.2072E-02   max: -.3800E-01   C at   62  1
       a =  1.500      CL =  0.5242
      Cm = -0.0757     CD =  0.00563   =>   CDf =  0.00406    CDp =  0.00158

 Side 1  free  transition at x/c =  0.6991   62
 Side 2  free  transition at x/c =  0.9959   78

  61   rms: 0.2072E-02   max: -.3800E-01   C at   62  1
       a =  1.500      CL =  0.5242
      Cm = -0.0757     CD =  0.00563   =>   CDf =  0.00406    CDp =  0.00158

 Side 1  free  transition at x/c =  0.6991   62
 Side 2  free  transition at x/c =  0.9959   78

  62   rms: 0.2072E-02   max: -.3800E-01   C at   62  1
       a =  1.500      CL =  0.5242
      Cm = -0.0757     CD =  0.00563   =>   CDf =  0.00406    CDp =  0.00158

 Side 1  free  transition at x/c =  0.6991   62
 Side 2  free  transition at x/c =  0.9959   78

  63   rms: 0.2071E-02   max: -.3800E-01   C at   62  1
       a =  1.500      CL =  0.5242
      Cm = -0.0757     CD =  0.00563   =>   CDf =  0.00406    CDp =  0.00158

 Side 1  free  transition at x/c =  0.6991   62
 Side 2  free  transition at x/c =  0.9959   78

  64   rms: 0.2071E-02   max: -.3799E-01   C at   62  1
       a =  1.500      CL =  0.5242
      Cm = -0.0757     CD =  0.00563   =>   CDf =  0.00406    CDp =  0.00158

 Side 1  free  transition at x/c =  0.6991   62
 Side 2  free  transition at x/c =  0.9959   78

  65   rms: 0.2072E-02   max: -.3800E-01   C at   62  1
       a =  1.500      CL =  0.5242
      Cm = -0.0757     CD =  0.00563   =>   CDf =  0.00406    CDp =  0.00158

 Side 1  free  transition at x/c =  0.6991   62
 Side 2  free  transition at x/c =  0.9959   78

  66   rms: 0.2072E-02   max: -.3800E-01   C at   62  1
       a =  1.500      CL =  0.5242
      Cm = -0.0757     CD =  0.00563   =>   CDf =  0.00406    CDp =  0.00158

 Side 1  free  transition at x/c =  0.6991   62
 Side 2  free  transition at x/c =  0.9959   78

  67   rms: 0.2071E-02   max: -.3800E-01   C at   62  1
       a =  1.500      CL =  0.5242
      Cm = -0.0757     CD =  0.00563   =>   CDf =  0.00406    CDp =  0.00158

 Side 1  free  transition at x/c =  0.6991   62
 Side 2  free  transition at x/c =  0.9959   78

  68   rms: 0.2072E-02   max: -.3800E-01   C at   62  1
       a =  1.500      CL =  0.5242
      Cm = -0.0757     CD =  0.00563   =>   CDf =  0.00406    CDp =  0.00158

 Side 1  free  transition at x/c =  0.6991   62
 Side 2  free  transition at x/c =  0.9959   78

  69   rms: 0.2072E-02   max: -.3800E-01   C at   62  1
       a =  1.500      CL =  0.5242
      Cm = -0.0757     CD =  0.00563   =>   CDf =  0.00406    CDp =  0.00158

 Side 1  free  transition at x/c =  0.6991   62
 Side 2  free  transition at x/c =  0.9959   78

  70   rms: 0.2072E-02   max: -.3800E-01   C at   62  1
       a =  1.500      CL =  0.5242
      Cm = -0.0757     CD =  0.00563   =>   CDf =  0.00406    CDp =  0.00158

 Side 1  free  transition at x/c =  0.6991   62
 Side 2  free  transition at x/c =  0.9959   78

  71   rms: 0.2072E-02   max: -.3800E-01   C at   62  1
       a =  1.500      CL =  0.5242
      Cm = -0.0757     CD =  0.00563   =>   CDf =  0.00406    CDp =  0.00158

 Side 1  free  transition at x/c =  0.6991   62
 Side 2  free  transition at x/c =  0.9959   78

  72   rms: 0.2071E-02   max: -.3800E-01   C at   62  1
       a =  1.500      CL =  0.5242
      Cm = -0.0757     CD =  0.00563   =>   CDf =  0.00406    CDp =  0.00158

 Side 1  free  transition at x/c =  0.6991   62
 Side 2  free  transition at x/c =  0.9959   78

  73   rms: 0.2071E-02   max: -.3800E-01   C at   62  1
       a =  1.500      CL =  0.5242
      Cm = -0.0757     CD =  0.00563   =>   CDf =  0.00406    CDp =  0.00158

 Side 1  free  transition at x/c =  0.6991   62
 Side 2  free  transition at x/c =  0.9959   78

  74   rms: 0.2072E-02   max: -.3800E-01   C at   62  1
       a =  1.500      CL =  0.5242
      Cm = -0.0757     CD =  0.00563   =>   CDf =  0.00406    CDp =  0.00158

 Side 1  free  transition at x/c =  0.6991   62
 Side 2  free  transition at x/c =  0.9959   78

  75   rms: 0.2072E-02   max: -.3800E-01   C at   62  1
       a =  1.500      CL =  0.5242
      Cm = -0.0757     CD =  0.00563   =>   CDf =  0.00406    CDp =  0.00158

 Side 1  free  transition at x/c =  0.6991   62
 Side 2  free  transition at x/c =  0.9959   78

  76   rms: 0.2071E-02   max: -.3799E-01   C at   62  1
       a =  1.500      CL =  0.5242
      Cm = -0.0757     CD =  0.00563   =>   CDf =  0.00406    CDp =  0.00158

 Side 1  free  transition at x/c =  0.6991   62
 Side 2  free  transition at x/c =  0.9959   78

  77   rms: 0.2072E-02   max: -.3800E-01   C at   62  1
       a =  1.500      CL =  0.5242
      Cm = -0.0757     CD =  0.00563   =>   CDf =  0.00406    CDp =  0.00158

 Side 1  free  transition at x/c =  0.6991   62
 Side 2  free  transition at x/c =  0.9959   78

  78   rms: 0.2072E-02   max: -.3800E-01   C at   62  1
       a =  1.500      CL =  0.5242
      Cm = -0.0757     CD =  0.00563   =>   CDf =  0.00406    CDp =  0.00158

 Side 1  free  transition at x/c =  0.6991   62
 Side 2  free  transition at x/c =  0.9959   78

  79   rms: 0.2072E-02   max: -.3800E-01   C at   62  1
       a =  1.500      CL =  0.5242
      Cm = -0.0757     CD =  0.00563   =>   CDf =  0.00406    CDp =  0.00158

 Side 1  free  transition at x/c =  0.6991   62
 Side 2  free  transition at x/c =  0.9959   78

  80   rms: 0.2072E-02   max: -.3800E-01   C at   62  1
       a =  1.500      CL =  0.5242
      Cm = -0.0757     CD =  0.00563   =>   CDf =  0.00406    CDp =  0.00158

 Side 1  free  transition at x/c =  0.6991   62
 Side 2  free  transition at x/c =  0.9959   78

  81   rms: 0.2071E-02   max: -.3799E-01   C at   62  1
       a =  1.500      CL =  0.5242
      Cm = -0.0757     CD =  0.00563   =>   CDf =  0.00406    CDp =  0.00158

 Side 1  free  transition at x/c =  0.6991   62
 Side 2  free  transition at x/c =  0.9959   78

  82   rms: 0.2071E-02   max: -.3799E-01   C at   62  1
       a =  1.500      CL =  0.5242
      Cm = -0.0757     CD =  0.00563   =>   CDf =  0.00406    CDp =  0.00158

 Side 1  free  transition at x/c =  0.6991   62
 Side 2  free  transition at x/c =  0.9959   78

  83   rms: 0.2072E-02   max: -.3801E-01   C at   62  1
       a =  1.500      CL =  0.5242
      Cm = -0.0757     CD =  0.00563   =>   CDf =  0.00406    CDp =  0.00158

 Side 1  free  transition at x/c =  0.6991   62
 Side 2  free  transition at x/c =  0.9959   78

  84   rms: 0.2072E-02   max: -.3800E-01   C at   62  1
       a =  1.500      CL =  0.5242
      Cm = -0.0757     CD =  0.00563   =>   CDf =  0.00406    CDp =  0.00158

 Side 1  free  transition at x/c =  0.6991   62
 Side 2  free  transition at x/c =  0.9959   78

  85   rms: 0.2071E-02   max: -.3800E-01   C at   62  1
       a =  1.500      CL =  0.5242
      Cm = -0.0757     CD =  0.00563   =>   CDf =  0.00406    CDp =  0.00158

 Side 1  free  transition at x/c =  0.6991   62
 Side 2  free  transition at x/c =  0.9959   78

  86   rms: 0.2072E-02   max: -.3800E-01   C at   62  1
       a =  1.500      CL =  0.5242
      Cm = -0.0757     CD =  0.00563   =>   CDf =  0.00406    CDp =  0.00158

 Side 1  free  transition at x/c =  0.6991   62
 Side 2  free  transition at x/c =  0.9959   78

  87   rms: 0.2072E-02   max: -.3801E-01   C at   62  1
       a =  1.500      CL =  0.5242
      Cm = -0.0757     CD =  0.00563   =>   CDf =  0.00406    CDp =  0.00158

 Side 1  free  transition at x/c =  0.6991   62
 Side 2  free  transition at x/c =  0.9959   78

  88   rms: 0.2072E-02   max: -.3800E-01   C at   62  1
       a =  1.500      CL =  0.5242
      Cm = -0.0757     CD =  0.00563   =>   CDf =  0.00406    CDp =  0.00158

 Side 1  free  transition at x/c =  0.6991   62
 Side 2  free  transition at x/c =  0.9959   78

  89   rms: 0.2071E-02   max: -.3800E-01   C at   62  1
       a =  1.500      CL =  0.5242
      Cm = -0.0757     CD =  0.00563   =>   CDf =  0.00406    CDp =  0.00158

 Side 1  free  transition at x/c =  0.6991   62
 Side 2  free  transition at x/c =  0.9959   78

  90   rms: 0.2071E-02   max: -.3799E-01   C at   62  1
       a =  1.500      CL =  0.5242
      Cm = -0.0757     CD =  0.00563   =>   CDf =  0.00406    CDp =  0.00158

 Side 1  free  transition at x/c =  0.6991   62
 Side 2  free  transition at x/c =  0.9959   78

  91   rms: 0.2072E-02   max: -.3800E-01   C at   62  1
       a =  1.500      CL =  0.5242
      Cm = -0.0757     CD =  0.00563   =>   CDf =  0.00406    CDp =  0.00158

 Side 1  free  transition at x/c =  0.6991   62
 Side 2  free  transition at x/c =  0.9959   78

  92   rms: 0.2071E-02   max: -.3800E-01   C at   62  1
       a =  1.500      CL =  0.5242
      Cm = -0.0757     CD =  0.00563   =>   CDf =  0.00406    CDp =  0.00158

 Side 1  free  transition at x/c =  0.6991   62
 Side 2  free  transition at x/c =  0.9959   78

  93   rms: 0.2071E-02   max: -.3799E-01   C at   62  1
       a =  1.500      CL =  0.5242
      Cm = -0.0757     CD =  0.00563   =>   CDf =  0.00406    CDp =  0.00158

 Side 1  free  transition at x/c =  0.6991   62
 Side 2  free  transition at x/c =  0.9959   78

  94   rms: 0.2072E-02   max: -.3800E-01   C at   62  1
       a =  1.500      CL =  0.5242
      Cm = -0.0757     CD =  0.00563   =>   CDf =  0.00406    CDp =  0.00158

 Side 1  free  transition at x/c =  0.6991   62
 Side 2  free  transition at x/c =  0.9959   78

  95   rms: 0.2071E-02   max: -.3800E-01   C at   62  1
       a =  1.500      CL =  0.5242
      Cm = -0.0757     CD =  0.00563   =>   CDf =  0.00406    CDp =  0.00158

 Side 1  free  transition at x/c =  0.6991   62
 Side 2  free  transition at x/c =  0.9959   78

  96   rms: 0.2072E-02   max: -.3800E-01   C at   62  1
       a =  1.500      CL =  0.5242
      Cm = -0.0757     CD =  0.00563   =>   CDf =  0.00406    CDp =  0.00158

 Side 1  free  transition at x/c =  0.6991   62
 Side 2  free  transition at x/c =  0.9959   78

  97   rms: 0.2071E-02   max: -.3800E-01   C at   62  1
       a =  1.500      CL =  0.5242
      Cm = -0.0757     CD =  0.00563   =>   CDf =  0.00406    CDp =  0.00158

 Side 1  free  transition at x/c =  0.6991   62
 Side 2  free  transition at x/c =  0.9959   78

  98   rms: 0.2072E-02   max: -.3800E-01   C at   62  1
       a =  1.500      CL =  0.5242
      Cm = -0.0757     CD =  0.00563   =>   CDf =  0.00406    CDp =  0.00158

 Side 1  free  transition at x/c =  0.6991   62
 Side 2  free  transition at x/c =  0.9959   78

  99   rms: 0.2072E-02   max: -.3800E-01   C at   62  1
       a =  1.500      CL =  0.5242
      Cm = -0.0757     CD =  0.00563   =>   CDf =  0.00406    CDp =  0.00158

 Side 1  free  transition at x/c =  0.6991   62
 Side 2  free  transition at x/c =  0.9959   78

 100   rms: 0.2071E-02   max: -.3799E-01   C at   62  1
       a =  1.500      CL =  0.5242
      Cm = -0.0757     CD =  0.00563   =>   CDf =  0.00406    CDp =  0.00158

 Side 1  free  transition at x/c =  0.6991   62
 Side 2  free  transition at x/c =  0.9959   78

 101   rms: 0.2071E-02   max: -.3799E-01   C at   62  1
       a =  1.500      CL =  0.5242
      Cm = -0.0757     CD =  0.00563   =>   CDf =  0.00406    CDp =  0.00158

 Side 1  free  transition at x/c =  0.6991   62
 Side 2  free  transition at x/c =  0.9959   78

 102   rms: 0.2072E-02   max: -.3800E-01   C at   62  1
       a =  1.500      CL =  0.5242
      Cm = -0.0757     CD =  0.00563   =>   CDf =  0.00406    CDp =  0.00158

 Side 1  free  transition at x/c =  0.6991   62
 Side 2  free  transition at x/c =  0.9959   78

 103   rms: 0.2072E-02   max: -.3800E-01   C at   62  1
       a =  1.500      CL =  0.5242
      Cm = -0.0757     CD =  0.00563   =>   CDf =  0.00406    CDp =  0.00158

 Side 1  free  transition at x/c =  0.6991   62
 Side 2  free  transition at x/c =  0.9959   78

 104   rms: 0.2072E-02   max: -.3800E-01   C at   62  1
       a =  1.500      CL =  0.5242
      Cm = -0.0757     CD =  0.00563   =>   CDf =  0.00406    CDp =  0.00158

 Side 1  free  transition at x/c =  0.6991   62
 Side 2  free  transition at x/c =  0.9959   78

 105   rms: 0.2072E-02   max: -.3801E-01   C at   62  1
       a =  1.500      CL =  0.5242
      Cm = -0.0757     CD =  0.00563   =>   CDf =  0.00406    CDp =  0.00158

 Side 1  free  transition at x/c =  0.6991   62
 Side 2  free  transition at x/c =  0.9959   78

 106   rms: 0.2072E-02   max: -.3800E-01   C at   62  1
       a =  1.500      CL =  0.5242
      Cm = -0.0757     CD =  0.00563   =>   CDf =  0.00406    CDp =  0.00158

 Side 1  free  transition at x/c =  0.6991   62
 Side 2  free  transition at x/c =  0.9959   78

 107   rms: 0.2071E-02   max: -.3800E-01   C at   62  1
       a =  1.500      CL =  0.5242
      Cm = -0.0757     CD =  0.00563   =>   CDf =  0.00406    CDp =  0.00158

 Side 1  free  transition at x/c =  0.6991   62
 Side 2  free  transition at x/c =  0.9959   78

 108   rms: 0.2072E-02   max: -.3800E-01   C at   62  1
       a =  1.500      CL =  0.5242
      Cm = -0.0757     CD =  0.00563   =>   CDf =  0.00406    CDp =  0.00158

 Side 1  free  transition at x/c =  0.6991   62
 Side 2  free  transition at x/c =  0.9959   78

 109   rms: 0.2072E-02   max: -.3800E-01   C at   62  1
       a =  1.500      CL =  0.5242
      Cm = -0.0757     CD =  0.00563   =>   CDf =  0.00406    CDp =  0.00158

 Side 1  free  transition at x/c =  0.6991   62
[...]

 Side 1  free  transition at x/c =  0.0107   25
 Side 2 forced transition at x/c =  1.0000   67

   3   rms: 0.1803E-03   max: -.8318E-03   D at   81  1
       a = 12.750      CL =  1.3061
      Cm = -0.0076     CD =  0.03388   =>   CDf =  0.00553    CDp =  0.02835

 Side 1  free  transition at x/c =  0.0107   25
 Side 2 forced transition at x/c =  1.0000   67

   4   rms: 0.3698E-05   max: 0.8150E-04   C at   67  2
       a = 12.750      CL =  1.3061
      Cm = -0.0076     CD =  0.03388   =>   CDf =  0.00553    CDp =  0.02835
 plradd ia,ip,cpol           40           0  6.86931453E-05

 Point added to stored polar  1
 Point written to save file  goe507_Re600k.base.pol                          
 Dump file unspecified or not available
 Calculating wake trajectory ...
 Calculating source influence matrix ...

 Solving BL system ...

 Side 1  free  transition at x/c =  0.0107   25
 Side 2 forced transition at x/c =  1.0000   67

   1   rms: 0.3618E-01   max: 0.9382E-01   T at   25  1   RLX: 0.973
       a = 13.000      CL =  1.3127
      Cm = -0.0063     CD =  0.03562   =>   CDf =  0.00553    CDp =  0.03009

 Side 1  free  transition at x/c =  0.0104   25
 Side 2 forced transition at x/c =  1.0000   67

   2   rms: 0.3184E-02   max: 0.2124E-01   D at   79  1
       a = 13.000      CL =  1.3107
      Cm = -0.0062     CD =  0.03563   =>   CDf =  0.00541    CDp =  0.03022

 Side 1  free  transition at x/c =  0.0104   25
 Side 2 forced transition at x/c =  1.0000   67

   3   rms: 0.1133E-03   max: -.6261E-03   D at   80  1
       a = 13.000      CL =  1.3108
      Cm = -0.0062     CD =  0.03562   =>   CDf =  0.00542    CDp =  0.03020

 Side 1  free  transition at x/c =  0.0104   25
 Side 2 forced transition at x/c =  1.0000   67

   4   rms: 0.3402E-05   max: 0.5891E-04   C at   67  2
       a = 13.000      CL =  1.3108
      Cm = -0.0062     CD =  0.03562   =>   CDf =  0.00542    CDp =  0.03020
 plradd ia,ip,cpol           41           0  6.86931453E-05

 Point added to stored polar  1
 Point written to save file  goe507_Re600k.base.pol                          
 Dump file unspecified or not available
 Calculating wake trajectory ...
 Calculating source influence matrix ...

 Solving BL system ...

 Side 1  free  transition at x/c =  0.0104   25
 Side 2 forced transition at x/c =  1.0000   67

   1   rms: 0.3664E-01   max: 0.9941E-01   D at   74  1   RLX: 0.927
       a = 13.250      CL =  1.3155
      Cm = -0.0050     CD =  0.03755   =>   CDf =  0.00542    CDp =  0.03213

 Side 1  free  transition at x/c =  0.0103   25
 Side 2 forced transition at x/c =  1.0000   67

   2   rms: 0.4260E-02   max: 0.2948E-01   D at   78  1
       a = 13.250      CL =  1.3135
      Cm = -0.0047     CD =  0.03768   =>   CDf =  0.00530    CDp =  0.03238

 Side 1  free  transition at x/c =  0.0103   25
 Side 2 forced transition at x/c =  1.0000   67

   3   rms: 0.1870E-03   max: 0.2422E-02   D at   78  2
       a = 13.250      CL =  1.3133
      Cm = -0.0047     CD =  0.03766   =>   CDf =  0.00529    CDp =  0.03237

 Side 1  free  transition at x/c =  0.0103   25
 Side 2 forced transition at x/c =  1.0000   67

   4   rms: 0.2421E-05   max: -.3853E-04   C at   67  2
       a = 13.250      CL =  1.3133
      Cm = -0.0047     CD =  0.03766   =>   CDf =  0.00529    CDp =  0.03237
 plradd ia,ip,cpol           42           0  6.86931453E-05

 Point added to stored polar  1
 Point written to save file  goe507_Re600k.base.pol                          
 Dump file unspecified or not available
 Calculating wake trajectory ...
 Calculating source influence matrix ...

 Solving BL system ...

 Side 1  free  transition at x/c =  0.0103   25
 Side 2 forced transition at x/c =  1.0000   67

   1   rms: 0.3561E-01   max: 0.9914E-01   D at   73  1   RLX: 0.884
       a = 13.500      CL =  1.3174
      Cm = -0.0038     CD =  0.03957   =>   CDf =  0.00529    CDp =  0.03427

 Side 1  free  transition at x/c =  0.0101   25
 Side 2 forced transition at x/c =  1.0000   67

   2   rms: 0.5008E-02   max: 0.3006E-01   D at   77  1
       a = 13.500      CL =  1.3158
      Cm = -0.0036     CD =  0.03979   =>   CDf =  0.00519    CDp =  0.03460

 Side 1  free  transition at x/c =  0.0101   25
 Side 2 forced transition at x/c =  1.0000   67

   3   rms: 0.3223E-03   max: 0.3257E-02   D at   76  1
       a = 13.500      CL =  1.3155
      Cm = -0.0035     CD =  0.03976   =>   CDf =  0.00517    CDp =  0.03458

 Side 1  free  transition at x/c =  0.0101   25
 Side 2 forced transition at x/c =  1.0000   67

   4   rms: 0.7008E-05   max: -.8450E-04   C at   67  2
       a = 13.500      CL =  1.3155
      Cm = -0.0035     CD =  0.03975   =>   CDf =  0.00517    CDp =  0.03458
 plradd ia,ip,cpol           43           0  6.86931453E-05

 Point added to stored polar  1
 Point written to save file  goe507_Re600k.base.pol                          
 Dump file unspecified or not available
 Calculating wake trajectory ...
 Calculating source influence matrix ...

 Solving BL system ...

 Side 1  free  transition at x/c =  0.0101   25
 Side 2 forced transition at x/c =  1.0000   67

   1   rms: 0.3626E-01   max: -.1518E+00   D at    3  2   RLX: 0.844
       a = 13.750      CL =  1.3188
      Cm = -0.0028     CD =  0.04170   =>   CDf =  0.00476    CDp =  0.03694

 Side 1  free  transition at x/c =  0.0099   26
 Side 2 forced transition at x/c =  1.0000   66

   2   rms: 0.6403E-02   max: -.4916E-01   D at    2  1
       a = 13.750      CL =  1.3174
      Cm = -0.0026     CD =  0.04199   =>   CDf =  0.00506    CDp =  0.03693

 Side 1  free  transition at x/c =  0.0098   26
 Side 2 forced transition at x/c =  1.0000   66

   3   rms: 0.9468E-03   max: -.1044E-01   D at    4  1
       a = 13.750      CL =  1.3172
      Cm = -0.0026     CD =  0.04194   =>   CDf =  0.00505    CDp =  0.03689

 Side 1  free  transition at x/c =  0.0098   26
 Side 2 forced transition at x/c =  1.0000   66

   4   rms: 0.7195E-05   max: 0.1077E-03   D at   78  2
       a = 13.750      CL =  1.3172
      Cm = -0.0026     CD =  0.04194   =>   CDf =  0.00505    CDp =  0.03689
 plradd ia,ip,cpol           44           0  6.86931453E-05

 Point added to stored polar  1
 Point written to save file  goe507_Re600k.base.pol                          
 Dump file unspecified or not available
 Calculating wake trajectory ...
 Calculating source influence matrix ...

 Solving BL system ...

 Side 1  free  transition at x/c =  0.0098   26
 Side 2 forced transition at x/c =  1.0000   66

   1   rms: 0.3542E-01   max: 0.1233E+00   T at   26  1   RLX: 0.807
       a = 14.000      CL =  1.3201
      Cm = -0.0021     CD =  0.04388   =>   CDf =  0.00505    CDp =  0.03882

 Side 1  free  transition at x/c =  0.0096   26
 Side 2 forced transition at x/c =  1.0000   66

   2   rms: 0.6977E-02   max: 0.3590E-01   D at   75  1
       a = 14.000      CL =  1.3184
      Cm = -0.0019     CD =  0.04431   =>   CDf =  0.00498    CDp =  0.03932

 Side 1  free  transition at x/c =  0.0096   26
 Side 2 forced transition at x/c =  1.0000   66

   3   rms: 0.2851E-03   max: 0.2295E-02   D at   79  2
       a = 14.000      CL =  1.3182
      Cm = -0.0019     CD =  0.04425   =>   CDf =  0.00498    CDp =  0.03927

 Side 1  free  transition at x/c =  0.0096   26
 Side 2 forced transition at x/c =  1.0000   66

   4   rms: 0.4331E-05   max: -.2600E-04   C at   66  2
       a = 14.000      CL =  1.3182
      Cm = -0.0019     CD =  0.04425   =>   CDf =  0.00498    CDp =  0.03927
 plradd ia,ip,cpol           45           0  6.86931453E-05

 Point added to stored polar  1
 Point written to save file  goe507_Re600k.base.pol                          
 Dump file unspecified or not available
 Calculating wake trajectory ...
 Calculating source influence matrix ...

 Solving BL system ...

 Side 1  free  transition at x/c =  0.0096   26
 Side 2 forced transition at x/c =  1.0000   66

   1   rms: 0.3558E-01   max: 0.1065E+00   D at   71  1   RLX: 0.772
       a = 14.250      CL =  1.3200
      Cm = -0.0015     CD =  0.04633   =>   CDf =  0.00498    CDp =  0.04135

 Side 1  free  transition at x/c =  0.0094   26
 Side 2 forced transition at x/c =  1.0000   66

   2   rms: 0.8954E-02   max: 0.4312E-01   D at   74  1
       a = 14.250      CL =  1.3177
      Cm = -0.0014     CD =  0.04699   =>   CDf =  0.00491    CDp =  0.04208

 Side 1  free  transition at x/c =  0.0094   26
 Side 2 forced transition at x/c =  1.0000   66

   3   rms: 0.9688E-03   max: 0.6836E-02   D at   73  1
       a = 14.250      CL =  1.3171
      Cm = -0.0013     CD =  0.04693   =>   CDf =  0.00489    CDp =  0.04204

 Side 1  free  transition at x/c =  0.0094   26
 Side 2 forced transition at x/c =  1.0000   66

   4   rms: 0.2359E-04   max: 0.2492E-03   D at   79  2
       a = 14.250      CL =  1.3171
      Cm = -0.0013     CD =  0.04692   =>   CDf =  0.00489    CDp =  0.04203
 plradd ia,ip,cpol           46           0  6.86931453E-05

 Point added to stored polar  1
 Point written to save file  goe507_Re600k.base.pol                          
 Dump file unspecified or not available
 Calculating wake trajectory ...
 Calculating source influence matrix ...

 Solving BL system ...

 Side 1  free  transition at x/c =  0.0094   26
 Side 2 forced transition at x/c =  1.0000   66

   1   rms: 0.3727E-01   max: 0.1201E+00   D at   69  1   RLX: 0.736
       a = 14.500      CL =  1.3170
      Cm = -0.0011     CD =  0.04932   =>   CDf =  0.00489    CDp =  0.04443

 Side 1  free  transition at x/c =  0.0093   26
 Side 2 forced transition at x/c =  1.0000   66

   2   rms: 0.1138E-01   max: 0.4850E-01   D at   72  1
       a = 14.500      CL =  1.3140
      Cm = -0.0010     CD =  0.05019   =>   CDf =  0.00480    CDp =  0.04539

 Side 1  free  transition at x/c =  0.0093   26
 Side 2 forced transition at x/c =  1.0000   66

   3   rms: 0.1402E-02   max: 0.8564E-02   D at   79  2
       a = 14.500      CL =  1.3131
      Cm = -0.0009     CD =  0.05008   =>   CDf =  0.00477    CDp =  0.04532

 Side 1  free  transition at x/c =  0.0093   26
 Side 2 forced transition at x/c =  1.0000   66

   4   rms: 0.4633E-04   max: -.2779E-03   C at   66  2
       a = 14.500      CL =  1.3131
      Cm = -0.0009     CD =  0.05007   =>   CDf =  0.00476    CDp =  0.04531
 plradd ia,ip,cpol           47           0  6.86931453E-05

 Point added to stored polar  1
 Point written to save file  goe507_Re600k.base.pol                          
 Dump file unspecified or not available
 Calculating wake trajectory ...
 Calculating source influence matrix ...

 Solving BL system ...

 Side 1  free  transition at x/c =  0.0093   26
 Side 2 forced transition at x/c =  1.0000   66

   1   rms: 0.3923E-01   max: 0.1287E+00   D at   68  1   RLX: 0.701
       a = 14.750      CL =  1.3117
      Cm = -0.0009     CD =  0.05272   =>   CDf =  0.00477    CDp =  0.04795

 Side 1  free  transition at x/c =  0.0092   26
 Side 2 forced transition at x/c =  1.0000   66

   2   rms: 0.1440E-01   max: 0.6463E-01   D at   71  1
       a = 14.750      CL =  1.3070
      Cm = -0.0008     CD =  0.05400   =>   CDf =  0.00467    CDp =  0.04933

 Side 1  free  transition at x/c =  0.0092   26
 Side 2 forced transition at x/c =  1.0000   66

   3   rms: 0.1914E-02   max: 0.9314E-02   D at   70  1
       a = 14.750      CL =  1.3058
      Cm = -0.0008     CD =  0.05382   =>   CDf =  0.00462    CDp =  0.04920

 Side 1  free  transition at x/c =  0.0092   26
 Side 2 forced transition at x/c =  1.0000   66

   4   rms: 0.9301E-04   max: -.4793E-03   D at   71  1
       a = 14.750      CL =  1.3059
      Cm = -0.0008     CD =  0.05380   =>   CDf =  0.00462    CDp =  0.04918
 plradd ia,ip,cpol           48           0  6.86931453E-05

 Point added to stored polar  1
 Point written to save file  goe507_Re600k.base.pol                          
 Dump file unspecified or not available
 Calculating wake trajectory ...
 Calculating source influence matrix ...

 Solving BL system ...

 Side 1  free  transition at x/c =  0.0092   26
 Side 2 forced transition at x/c =  1.0000   66

   1   rms: 0.3879E-01   max: 0.1323E+00   D at   66  1   RLX: 0.667
       a = 15.000      CL =  1.3040
      Cm = -0.0010     CD =  0.05654   =>   CDf =  0.00463    CDp =  0.05191

 Side 1  free  transition at x/c =  0.0092   26
 Side 2 forced transition at x/c =  1.0000   66

   2   rms: 0.1335E-01   max: 0.5960E-01   D at   69  1
       a = 15.000      CL =  1.2998
      Cm = -0.0011     CD =  0.05784   =>   CDf =  0.00451    CDp =  0.05333

 Side 1  free  transition at x/c =  0.0092   26
 Side 2 forced transition at x/c =  1.0000   66

   3   rms: 0.1848E-02   max: 0.1467E-01   D at   80  2
       a = 15.000      CL =  1.2989
      Cm = -0.0011     CD =  0.05763   =>   CDf =  0.00446    CDp =  0.05317

 Side 1  free  transition at x/c =  0.0092   26
 Side 2 forced transition at x/c =  1.0000   66

   4   rms: 0.1539E-03   max: -.6650E-03   D at   69  1
       a = 15.000      CL =  1.2989
      Cm = -0.0011     CD =  0.05762   =>   CDf =  0.00447    CDp =  0.05315

 Side 1  free  transition at x/c =  0.0092   26
 Side 2 forced transition at x/c =  1.0000   66

   5   rms: 0.9260E-05   max: 0.1188E-03   C at   66  2
       a = 15.000      CL =  1.2989
      Cm = -0.0011     CD =  0.05762   =>   CDf =  0.00447    CDp =  0.05315
 plradd ia,ip,cpol           49           0  6.86931453E-05

 Point added to stored polar  1
 Point written to save file  goe507_Re600k.base.pol                          
 Dump file unspecified or not available
 Calculating wake trajectory ...
 Calculating source influence matrix ...

 Solving BL system ...

 Side 1  free  transition at x/c =  0.0092   26
 Side 2 forced transition at x/c =  1.0000   66

   1   rms: 0.4733E-01   max: 0.1605E+00   D at   65  1   RLX: 0.632
       a = 15.250      CL =  1.2934
      Cm = -0.0015     CD =  0.06100   =>   CDf =  0.00447    CDp =  0.05653

 Side 1  free  transition at x/c =  0.0091   26
 Side 2 forced transition at x/c =  1.0000   66

   2   rms: 0.2486E-01   max: 0.9351E-01   D at   68  1
       a = 15.250      CL =  1.2827
      Cm = -0.0019     CD =  0.06360   =>   CDf =  0.00433    CDp =  0.05927

 Side 1  free  transition at x/c =  0.0090   25
 Side 2 forced transition at x/c =  1.0000   66

   3   rms: 0.3987E-02   max: -.2425E-01   D at   25  1
       a = 15.250      CL =  1.2835
      Cm = -0.0019     CD =  0.06293   =>   CDf =  0.00427    CDp =  0.05867

 Side 1  free  transition at x/c =  0.0090   25
 Side 2 forced transition at x/c =  1.0000   66

   4   rms: 0.3302E-03   max: 0.2394E-02   D at   81  2
       a = 15.250      CL =  1.2834
      Cm = -0.0019     CD =  0.06286   =>   CDf =  0.00427    CDp =  0.05859

 Side 1  free  transition at x/c =  0.0090   25
 Side 2 forced transition at x/c =  1.0000   66

   5   rms: 0.1694E-04   max: -.1277E-03   C at   66  2
       a = 15.250      CL =  1.2833
      Cm = -0.0019     CD =  0.06285   =>   CDf =  0.00427    CDp =  0.05858
 plradd ia,ip,cpol           50           0  6.86931453E-05

 Point added to stored polar  1
 Point written to save file  goe507_Re600k.base.pol                          
 Dump file unspecified or not available
 Calculating wake trajectory ...
 Calculating source influence matrix ...

 Solving BL system ...

 Side 1  free  transition at x/c =  0.0090   25
 Side 2 forced transition at x/c =  1.0000   66

   1   rms: 0.3959E-01   max: 0.1476E+00   D at   63  1   RLX: 0.601
       a = 15.500      CL =  1.2799
      Cm = -0.0028     CD =  0.06597   =>   CDf =  0.00427    CDp =  0.06170

 Side 1  free  transition at x/c =  0.0090   25
 Side 2 forced transition at x/c =  1.0000   66

   2   rms: 0.1841E-01   max: 0.7847E-01   D at   65  1
       a = 15.500      CL =  1.2748
      Cm = -0.0034     CD =  0.06796   =>   CDf =  0.00416    CDp =  0.06380

 Side 1  free  transition at x/c =  0.0090   25
 Side 2 forced transition at x/c =  1.0000   66

   3   rms: 0.2847E-02   max: 0.1528E-01   D at   81  2
       a = 15.500      CL =  1.2729
      Cm = -0.0033     CD =  0.06768   =>   CDf =  0.00409    CDp =  0.06360

 Side 1  free  transition at x/c =  0.0090   25
 Side 2 forced transition at x/c =  1.0000   66

   4   rms: 0.1433E-03   max: 0.2098E-02   D at   81  2
       a = 15.500      CL =  1.2728
      Cm = -0.0033     CD =  0.06764   =>   CDf =  0.00409    CDp =  0.06355

 Side 1  free  transition at x/c =  0.0090   25
 Side 2 forced transition at x/c =  1.0000   66

   5   rms: 0.3739E-05   max: 0.3330E-04   D at   81  2
       a = 15.500      CL =  1.2728
      Cm = -0.0033     CD =  0.06764   =>   CDf =  0.00409    CDp =  0.06355
 plradd ia,ip,cpol           51           0  6.86931453E-05

 Point added to stored polar  1
 Point written to save file  goe507_Re600k.base.pol                          
 Dump file unspecified or not available
 Calculating wake trajectory ...
 Calculating source influence matrix ...

 Solving BL system ...

 Side 1  free  transition at x/c =  0.0090   25
 Side 2 forced transition at x/c =  1.0000   66

   1   rms: 0.4061E-01   max: 0.1542E+00   D at   62  1   RLX: 0.575
       a = 15.750      CL =  1.2697
      Cm = -0.0047     CD =  0.07086   =>   CDf =  0.00409    CDp =  0.06677

 Side 1  free  transition at x/c =  0.0090   25
 Side 2 forced transition at x/c =  1.0000   66

   2   rms: 0.1838E-01   max: 0.8571E-01   D at   63  1
       a = 15.750      CL =  1.2652
      Cm = -0.0057     CD =  0.07298   =>   CDf =  0.00397    CDp =  0.06901

 Side 1  free  transition at x/c =  0.0089   25
 Side 2 forced transition at x/c =  1.0000   66

   3   rms: 0.2717E-02   max: 0.1897E-01   D at   62  1
       a = 15.750      CL =  1.2634
      Cm = -0.0056     CD =  0.07259   =>   CDf =  0.00389    CDp =  0.06870

 Side 1  free  transition at x/c =  0.0089   25
 Side 2 forced transition at x/c =  1.0000   66

   4   rms: 0.8913E-04   max: -.5586E-03   C at   66  2
       a = 15.750      CL =  1.2635
      Cm = -0.0056     CD =  0.07255   =>   CDf =  0.00390    CDp =  0.06866
 plradd ia,ip,cpol           52           0  6.86931453E-05

 Point added to stored polar  1
 Point written to save file  goe507_Re600k.base.pol                          
 Dump file unspecified or not available
 Calculating wake trajectory ...
 Calculating source influence matrix ...

 Solving BL system ...

 Side 1  free  transition at x/c =  0.0089   25
 Side 2 forced transition at x/c =  1.0000   66

   1   rms: 0.4145E-01   max: 0.1592E+00   D at   59  1   RLX: 0.550
       a = 16.000      CL =  1.2596
      Cm = -0.0070     CD =  0.07606   =>   CDf =  0.00390    CDp =  0.07216

 Side 1  free  transition at x/c =  0.0089   25
 Side 2 forced transition at x/c =  1.0000   66

   2   rms: 0.2152E-01   max: 0.9678E-01   D at   61  1
       a = 16.000      CL =  1.2534
      Cm = -0.0081     CD =  0.07875   =>   CDf =  0.00380    CDp =  0.07496

 Side 1  free  transition at x/c =  0.0089   25
 Side 2 forced transition at x/c =  1.0000   66

   3   rms: 0.3808E-02   max: 0.2355E-01   D at   60  1
       a = 16.000      CL =  1.2509
      Cm = -0.0080     CD =  0.07830   =>   CDf =  0.00372    CDp =  0.07457

 Side 1  free  transition at x/c =  0.0089   25
 Side 2 forced transition at x/c =  1.0000   66

   4   rms: 0.1475E-03   max: 0.1412E-02   D at   82  2
       a = 16.000      CL =  1.2508
      Cm = -0.0080     CD =  0.07821   =>   CDf =  0.00373    CDp =  0.07448

 Side 1  free  transition at x/c =  0.0089   25
 Side 2 forced transition at x/c =  1.0000   66

   5   rms: 0.1527E-04   max: 0.1068E-03   C at   66  2
       a = 16.000      CL =  1.2509
      Cm = -0.0080     CD =  0.07821   =>   CDf =  0.00373    CDp =  0.07448
 plradd ia,ip,cpol           53           0  6.86931453E-05

 Point added to stored polar  1
 Point written to save file  goe507_Re600k.base.pol                          
 Dump file unspecified or not available

.OPERva   c>  
 Polar accumulation disabled

.OPERv   c>  
 XFOIL   c>  
 XFOIL   c>  