
 ===================================================
  XFOIL Version 6.99
  Copyright (C) 2000   Mark Drela, Harold Youngren

  This software comes with ABSOLUTELY NO WARRANTY,
    subject to the GNU General Public License.

  Caveat computor
 ===================================================

 File  xfoil.def  not found

   QUIT    Exit program

  .OPER    Direct operating point(s)
  .MDES    Complex mapping design routine
  .QDES    Surface speed design routine
  .GDES    Geometry design routine

   SAVE f  Write airfoil to labeled coordinate file
   PSAV f  Write airfoil to plain coordinate file
   ISAV f  Write airfoil to ISES coordinate file
   MSAV f  Write airfoil to MSES coordinate file
   REVE    Reverse written-airfoil node ordering

   LOAD f  Read buffer airfoil from coordinate file
   NACA i  Set NACA 4,5-digit airfoil and buffer airfoil
   INTE    Set buffer airfoil by interpolating two airfoils
   NORM    Buffer airfoil normalization toggle
   XYCM rr Change CM reference location, currently  0.25000 0.00000

   BEND    Display structural properties of current airfoil

   PCOP    Set current-airfoil panel nodes directly from buffer airfoil points
   PANE    Set current-airfoil panel nodes ( 160 ) based on curvature
  .PPAR    Show/change paneling

  .PLOP    Plotting options

   WDEF f  Write  current-settings file
   RDEF f  Reread current-settings file
   NAME s  Specify new airfoil name
   NINC    Increment name version number

   Z       Zoom    | (available in all menus)
   U       Unzoom  | 

 XFOIL   c>  
 Labeled airfoil file.  Name:  GOE 501 AIRFOIL                                 

 Number of input coordinate points:  33
 Counterclockwise ordering
 Max thickness =     0.128055  at x =   0.300
 Max camber    =     0.061284  at x =   0.500

  LE  x,y  =  -0.00040   0.00341  |   Chord =   1.00040
  TE  x,y  =   1.00000   0.00000  |

 Current airfoil nodes set from buffer airfoil nodes (  33 )

 WARNING: Poor input coordinate distribution
          Excessive panel angle   65.1  at i =  17
          Repaneling with PANE and/or PPAR suggested
           (doing GDES,CADD before repaneling _may_
            improve excessively coarse LE spacing

 XFOIL   c>  
 XFOIL   c>  
 Sharp trailing edge

 Paneling parameters used...
   Number of panel nodes       160
   Panel bunching parameter    1.000
   TE/LE panel density ratio   0.150
   Refined-area/LE panel density ratio    0.200
   Top    side refined area x/c limits  1.000 1.000
   Bottom side refined area x/c limits  1.000 1.000

 XFOIL   c>  
.OPERi   c>  
 Xtr/c     =  1.0000    top    side
 Xtr/c     =  1.0000    bottom side
 Ncrit     =    9.00   ( 0.070 % turb. level )
 Vacc      =  0.0100

 Klag  =  5.6000     Uxwt  =    1.00
 A     =  6.7000     B     =  0.7500       KCt = 0.01485
 CtiniK=  1.8000     CtiniX=  3.3000

..VPAR   c>  
..VPAR   c>  
.OPERi   c>  
 M  =    0.0000
 Re =    150000

.OPERv   c>  
.OPERv   c>  
.OPERv   c>  
 Polar  1 newly created for accumulation
 Airfoil archived with polar: GOE 501 AIRFOIL                                 

Enter  polar save filename  OR  <return> for no file   s>  
 New polar save file available

Enter  polar dump filename  OR  <return> for no file   s>  
 Polar dump file will NOT be written

 Polar accumulation enabled

.OPERva   c>   Calculating unit vorticity distributions ...
 Calculating wake trajectory ...
 Calculating source influence matrix ...

 Solving BL system ...

 Initializing BL ...
    side            1  ...
 MRCHUE: Inverse mode at  54     Hk =   3.800
 MRCHUE: Inverse mode at  55     Hk =   4.195
 MRCHUE: Inverse mode at  56     Hk =   4.589
 MRCHUE: Inverse mode at  57     Hk =   4.980
 MRCHUE: Inverse mode at  58     Hk =   5.369
 MRCHUE: Inverse mode at  59     Hk =   5.754
 MRCHUE: Inverse mode at  60     Hk =   6.134
 MRCHUE: Inverse mode at  61     Hk =   6.506
 MRCHUE: Inverse mode at  62     Hk =   6.871
 MRCHUE: Inverse mode at  63     Hk =   7.228
 MRCHUE: Inverse mode at  64     Hk =   7.578
 MRCHUE: Inverse mode at  65     Hk =   7.920
 MRCHUE: Inverse mode at  66     Hk =   8.255
 MRCHUE: Inverse mode at  67     Hk =   8.585
 MRCHUE: Inverse mode at  68     Hk =   8.910
 MRCHUE: Inverse mode at  69     Hk =   9.232
 MRCHUE: Inverse mode at  70     Hk =   9.553
 MRCHUE: Inverse mode at  71     Hk =   8.259
 MRCHUE: Inverse mode at  72     Hk =   7.130
 MRCHUE: Inverse mode at  73     Hk =   6.316
 MRCHUE: Inverse mode at  74     Hk =   5.707
 MRCHUE: Inverse mode at  75     Hk =   5.235
 MRCHUE: Inverse mode at  76     Hk =   4.860
 MRCHUE: Inverse mode at  77     Hk =   4.652
    side            2  ...
 MRCHUE: Inverse mode at  24     Hk =   3.800
 MRCHUE: Inverse mode at  25     Hk =   4.378
 MRCHUE: Inverse mode at  26     Hk =   4.982
 MRCHUE: Inverse mode at  27     Hk =   5.622
 MRCHUE: Convergence failed at  28  side 2    Res =  0.3637E+01
 MRCHUE: Inverse mode at  29     Hk =   6.346
 MRCHUE: Inverse mode at  30     Hk =   7.068
 MRCHUE: Inverse mode at  31     Hk =   7.775
 MRCHUE: Inverse mode at  32     Hk =   8.483
 MRCHUE: Inverse mode at  33     Hk =   9.219
 MRCHUE: Inverse mode at  34     Hk =   7.982
 MRCHUE: Inverse mode at  35     Hk =   4.905
 MRCHUE: Inverse mode at  36     Hk =   3.164

 Side 1  free  transition at x/c =  0.9151   71
 Side 2  free  transition at x/c =  0.1433   34

   1   rms: 0.2493E+00   max: 0.2497E+01   T at   34  2   RLX: 0.367
       a = -4.000      CL =  0.3408
      Cm = -0.2112     CD =  0.01649   =>   CDf =  0.00751    CDp =  0.00898

 Side 1  free  transition at x/c =  0.9000   70
 Side 2  free  transition at x/c =  0.1264   33
 idif Ue xi dudx           1  0.16562557      3.72958183E-03   44.408619    
 Uenew xinew           2  5.62796630E-02  1.26731396E-03

   2   rms: 0.1641E+00   max: 0.1220E+01   T at   70  1
       a = -4.000      CL =  0.2128
      Cm = -0.1645     CD =  0.02216   =>   CDf =  0.00759    CDp =  0.01457

 MRCHDU: Convergence failed at  69  side 1    Res =  0.6007E+01
 MRCHDU: Convergence failed at  70  side 1    Res =  0.2604E+02
 MRCHDU: Convergence failed at  71  side 1    Res =  0.3939E+02
 MRCHDU: Convergence failed at  72  side 1    Res =  0.2193E+02
 MRCHDU: Convergence failed at  73  side 1    Res =  0.1843E+02
 MRCHDU: Convergence failed at  74  side 1    Res =  0.1754E+02
 MRCHDU: Convergence failed at  75  side 1    Res =  0.1806E+02
 MRCHDU: Convergence failed at  76  side 1    Res =  0.2272E+02
 Side 1  free  transition at x/c =  0.8725   67
 Side 2  free  transition at x/c =  0.1130   33
 idif Ue xi dudx           1  0.18379559      4.84931469E-03   37.901352    
 Uenew xinew           2  8.18154439E-02  2.15864182E-03

   3   rms: 0.2475E+00   max: 0.1395E+01   T at   67  1
       a = -4.000      CL =  0.0084
      Cm = -0.1281     CD =  0.02445   =>   CDf =  0.00762    CDp =  0.01683

 Side 1  free  transition at x/c =  0.8383   64
 Side 2  free  transition at x/c =  0.1032   33

   4   rms: 0.2130E+00   max: -.6736E+00   D at   39  2   RLX: 0.742
       a = -4.000      CL =  0.1004
      Cm = -0.1455     CD =  0.02879   =>   CDf =  0.00706    CDp =  0.02173

 Side 1  free  transition at x/c =  0.8467   64
 Side 2  free  transition at x/c =  0.1079   34

   5   rms: 0.5111E+00   max: 0.3998E+01   T at   64  1   RLX: 0.218
       a = -4.000      CL =  0.0024
      Cm = -0.1298     CD =  0.03189   =>   CDf =  0.00775    CDp =  0.02414

 Side 1  free  transition at x/c =  0.8260   63
 Side 2  free  transition at x/c =  0.1033   33

   6   rms: 0.2282E+00   max: -.1295E+01   T at   63  1   RLX: 0.386
       a = -4.000      CL =  0.0699
      Cm = -0.1393     CD =  0.03284   =>   CDf =  0.00734    CDp =  0.02550

 Side 1  free  transition at x/c =  0.8422   64
 Side 2  free  transition at x/c =  0.1064   34

   7   rms: 0.7702E-01   max: -.3253E+00   D at   97  2
       a = -4.000      CL =  0.1390
      Cm = -0.1513     CD =  0.02558   =>   CDf =  0.00770    CDp =  0.01788

 Side 1  free  transition at x/c =  0.8497   66
 Side 2  free  transition at x/c =  0.1088   33

   8   rms: 0.4412E-01   max: -.3793E+00   D at    2  1
       a = -4.000      CL =  0.1569
      Cm = -0.1543     CD =  0.02566   =>   CDf =  0.00771    CDp =  0.01795

 Side 1  free  transition at x/c =  0.8527   66
 Side 2  free  transition at x/c =  0.1092   33

   9   rms: 0.6827E-02   max: -.3262E-01   D at    4  1
       a = -4.000      CL =  0.1609
      Cm = -0.1550     CD =  0.02565   =>   CDf =  0.00766    CDp =  0.01799

 Side 1  free  transition at x/c =  0.8536   66
 Side 2  free  transition at x/c =  0.1094   33

  10   rms: 0.3361E-03   max: -.1519E-02   D at   75  1
       a = -4.000      CL =  0.1611
      Cm = -0.1550     CD =  0.02565   =>   CDf =  0.00766    CDp =  0.01799

 Side 1  free  transition at x/c =  0.8536   66
 Side 2  free  transition at x/c =  0.1094   33

  11   rms: 0.5246E-05   max: 0.4306E-04   D at   34  2
       a = -4.000      CL =  0.1611
      Cm = -0.1550     CD =  0.02565   =>   CDf =  0.00766    CDp =  0.01799
 plradd ia,ip,cpol            1           0  1.74018256E-02

 Point added to stored polar  1
 Point written to save file  goe501_Re150k.base.pol                          
 Dump file unspecified or not available
 Calculating wake trajectory ...
 Calculating source influence matrix ...

 Solving BL system ...

 Side 1  free  transition at x/c =  0.8536   66
 Side 2  free  transition at x/c =  0.1094   33

   1   rms: 0.1100E+00   max: -.4904E+00   T at   33  2
       a = -3.500      CL =  0.2455
      Cm = -0.1599     CD =  0.02375   =>   CDf =  0.00762    CDp =  0.01613

 Side 1  free  transition at x/c =  0.8491   66
 Side 2  free  transition at x/c =  0.1189   33

   2   rms: 0.4807E-01   max: -.2521E+00   D at   33  2
       a = -3.500      CL =  0.2358
      Cm = -0.1580     CD =  0.02409   =>   CDf =  0.00794    CDp =  0.01615

 Side 1  free  transition at x/c =  0.8468   66
 Side 2  free  transition at x/c =  0.1185   33
 idif Ue xi dudx           1  0.12160318      2.71236897E-03   44.832832    
 Uenew xinew           2  1.12127401E-02  2.50101089E-04

   3   rms: 0.2361E-01   max: 0.1274E+00   T at   33  2
       a = -3.500      CL =  0.2195
      Cm = -0.1553     CD =  0.02469   =>   CDf =  0.00802    CDp =  0.01667

 Side 1  free  transition at x/c =  0.8431   65
 Side 2  free  transition at x/c =  0.1172   33

   4   rms: 0.1406E-01   max: -.7274E-01   T at   65  1
       a = -3.500      CL =  0.2305
      Cm = -0.1571     CD =  0.02430   =>   CDf =  0.00795    CDp =  0.01635

 Side 1  free  transition at x/c =  0.8457   65
 Side 2  free  transition at x/c =  0.1178   33

   5   rms: 0.9533E+00   max: -.5659E+01   T at   65  1   RLX: 0.088
       a = -3.500      CL =  0.3070
      Cm = -0.1696     CD =  0.02274   =>   CDf =  0.00794    CDp =  0.01480

 Side 1  free  transition at x/c =  0.8662   68
 Side 2  free  transition at x/c =  0.1266   33

   6   rms: 0.8874E-01   max: 0.7909E+00   D at   33  2
       a = -3.500      CL =  0.2954
      Cm = -0.1682     CD =  0.02227   =>   CDf =  0.00787    CDp =  0.01441

 Side 1  free  transition at x/c =  0.8615   67
 Side 2  free  transition at x/c =  0.1243   33

   7   rms: 0.3324E+01   max: -.1930E+02   T at   67  1   RLX: 0.026
       a = -3.500      CL =  0.3685
      Cm = -0.1822     CD =  0.01877   =>   CDf =  0.00789    CDp =  0.01088

 MRCHDU: Convergence failed at  77  side 1    Res =  0.3273E+01
 Side 1  free  transition at x/c =  0.8841   69
 Side 2  free  transition at x/c =  0.1306   33

   8   rms: 0.1068E+00   max: 0.8656E+00   D at   69  1
       a = -3.500      CL =  0.3489
      Cm = -0.1778     CD =  0.02021   =>   CDf =  0.00805    CDp =  0.01216

 MRCHDU: Convergence failed at  75  side 1    Res =  0.7759E+01
 MRCHDU: Convergence failed at  76  side 1    Res =  0.4316E+01
 MRCHDU: Convergence failed at  77  side 1    Res =  0.7252E+01
 Side 1  free  transition at x/c =  0.8738   68
 Side 2  free  transition at x/c =  0.1283   33
 idif Ue xi dudx           1  0.13159186      2.99155712E-03   43.987747    
 Uenew xinew           2  2.32822411E-02  5.29289246E-04

   9   rms: 0.2175E+00   max: 0.1061E+01   T at   68  1
       a = -3.500      CL =  0.2040
      Cm = -0.1538     CD =  0.02414   =>   CDf =  0.00801    CDp =  0.01613

 Side 1  free  transition at x/c =  0.8419   65
 Side 2  free  transition at x/c =  0.1159   33

  10   rms: 0.8970E-01   max: -.4823E+00   D at   66  1
       a = -3.500      CL =  0.2397
      Cm = -0.1588     CD =  0.02425   =>   CDf =  0.00772    CDp =  0.01653

 Side 1  free  transition at x/c =  0.8472   66
 Side 2  free  transition at x/c =  0.1193   33
 idif Ue xi dudx           1  0.11662246      2.58100033E-03   45.184982    
 Uenew xinew           2  5.36492374E-03  1.18732452E-04

  11   rms: 0.3065E-01   max: 0.2161E+00   D at   33  2
       a = -3.500      CL =  0.2261
      Cm = -0.1564     CD =  0.02444   =>   CDf =  0.00802    CDp =  0.01642

 Side 1  free  transition at x/c =  0.8446   65
 Side 2  free  transition at x/c =  0.1176   33

  12   rms: 0.2489E-01   max: -.2738E+00   T at    2  2
       a = -3.500      CL =  0.2427
      Cm = -0.1591     CD =  0.02400   =>   CDf =  0.00792    CDp =  0.01608

 Side 1  free  transition at x/c =  0.8483   66
 Side 2  free  transition at x/c =  0.1190   33
 idif Ue xi dudx           1  0.11278367      2.48694420E-03   45.350304    
 Uenew xinew           2  1.11907872E-03  2.46763229E-05

  13   rms: 0.1955E-01   max: 0.1174E+00   T at    2  1
       a = -3.500      CL =  0.2313
      Cm = -0.1573     CD =  0.02426   =>   CDf =  0.00803    CDp =  0.01623

 Side 1  free  transition at x/c =  0.8459   65
 Side 2  free  transition at x/c =  0.1179   34

  14   rms: 0.3191E+00   max: 0.5435E+01   D at    2  2   RLX: 0.216
       a = -3.500      CL =  0.2179
      Cm = -0.1549     CD =  0.02493   =>   CDf =  0.00798    CDp =  0.01695

 Side 1  free  transition at x/c =  0.8427   65
 Side 2  free  transition at x/c =  0.1171   33

  15   rms: 0.1580E-01   max: 0.1077E+00   D at    4  2
       a = -3.500      CL =  0.2289
      Cm = -0.1569     CD =  0.02434   =>   CDf =  0.00795    CDp =  0.01639

 Side 1  free  transition at x/c =  0.8453   65
 Side 2  free  transition at x/c =  0.1178   33

  16   rms: 0.4765E-01   max: -.2788E+00   T at   65  1
       a = -3.500      CL =  0.2719
      Cm = -0.1639     CD =  0.02331   =>   CDf =  0.00793    CDp =  0.01538

 Side 1  free  transition at x/c =  0.8561   67
 Side 2  free  transition at x/c =  0.1223   33

  17   rms: 0.7117E-01   max: 0.4584E+00   D at   33  2
       a = -3.500      CL =  0.2504
      Cm = -0.1606     CD =  0.02365   =>   CDf =  0.00792    CDp =  0.01573

 Side 1  free  transition at x/c =  0.8498   67
 Side 2  free  transition at x/c =  0.1196   33

  18   rms: 0.7181E-02   max: -.4830E-01   D at   67  1
       a = -3.500      CL =  0.2523
      Cm = -0.1609     CD =  0.02356   =>   CDf =  0.00794    CDp =  0.01562

 Side 1  free  transition at x/c =  0.8504   67
 Side 2  free  transition at x/c =  0.1197   33

  19   rms: 0.1590E-03   max: -.8850E-03   D at   67  1
       a = -3.500      CL =  0.2523
      Cm = -0.1609     CD =  0.02356   =>   CDf =  0.00794    CDp =  0.01562

 Side 1  free  transition at x/c =  0.8504   67
 Side 2  free  transition at x/c =  0.1197   33

  20   rms: 0.2459E-05   max: 0.1228E-04   D at   33  2
       a = -3.500      CL =  0.2523
      Cm = -0.1609     CD =  0.02356   =>   CDf =  0.00794    CDp =  0.01562
 plradd ia,ip,cpol            2           0  1.74018256E-02

 Point added to stored polar  1
 Point written to save file  goe501_Re150k.base.pol                          
 Dump file unspecified or not available
 Calculating wake trajectory ...
 Calculating source influence matrix ...

 Solving BL system ...

 Side 1  free  transition at x/c =  0.8504   67
 Side 2  free  transition at x/c =  0.1197   33

   1   rms: 0.1230E+00   max: -.8641E+00   T at   33  2   RLX: 0.579
       a = -3.000      CL =  0.3044
      Cm = -0.1643     CD =  0.02235   =>   CDf =  0.00794    CDp =  0.01441

 Side 1  free  transition at x/c =  0.8489   66
 Side 2  free  transition at x/c =  0.1267   33

   2   rms: 0.1242E+00   max: -.4884E+00   T at   33  2
       a = -3.000      CL =  0.3795
      Cm = -0.1722     CD =  0.02062   =>   CDf =  0.00784    CDp =  0.01278

 MRCHDU: Convergence failed at  34  side 2    Res =  0.3459E+01
 MRCHDU: Convergence failed at  35  side 2    Res =  0.3829E+01
 MRCHDU: Convergence failed at  36  side 2    Res =  0.3339E+01
 MRCHDU: Convergence failed at  37  side 2    Res =  0.5685E+01
 MRCHDU: Convergence failed at  38  side 2    Res =  0.8675E+01
 MRCHDU: Convergence failed at  39  side 2    Res =  0.1202E+02
 MRCHDU: Convergence failed at  40  side 2    Res =  0.1483E+02
 MRCHDU: Convergence failed at  41  side 2    Res =  0.1637E+02
 MRCHDU: Convergence failed at  42  side 2    Res =  0.1462E+02
 MRCHDU: Convergence failed at  43  side 2    Res =  0.1147E+02
 MRCHDU: Convergence failed at  44  side 2    Res =  0.8650E+01
 MRCHDU: Convergence failed at  45  side 2    Res =  0.4407E+03
 MRCHDU: Convergence failed at  46  side 2    Res =  0.1092E+03
 MRCHDU: Convergence failed at  47  side 2    Res =  0.5175E+02
 MRCHDU: Convergence failed at  48  side 2    Res =  0.1193E+02
 MRCHDU: Convergence failed at  49  side 2    Res =  0.1207E+02
 MRCHDU: Convergence failed at  50  side 2    Res =  0.1433E+02
 MRCHDU: Convergence failed at  51  side 2    Res =  0.1915E+02
 MRCHDU: Convergence failed at  52  side 2    Res =  0.2061E+02
 MRCHDU: Convergence failed at  53  side 2    Res =  0.2165E+02
 MRCHDU: Convergence failed at  54  side 2    Res =  0.4863E+02
 MRCHDU: Convergence failed at  55  side 2    Res =  0.3940E+02
 MRCHDU: Convergence failed at  56  side 2    Res =  0.3692E+02
 MRCHDU: Convergence failed at  57  side 2    Res =  0.7102E+02
 MRCHDU: Convergence failed at  58  side 2    Res =  0.6423E+02
 MRCHDU: Convergence failed at  59  side 2    Res =  0.4273E+02
 MRCHDU: Convergence failed at  60  side 2    Res =  0.4850E+02
 MRCHDU: Convergence failed at  61  side 2    Res =  0.4845E+02
 MRCHDU: Convergence failed at  62  side 2    Res =  0.6572E+02
 MRCHDU: Convergence failed at  63  side 2    Res =  0.1630E+03
 MRCHDU: Convergence failed at  64  side 2    Res =  0.5161E+03
 MRCHDU: Convergence failed at  65  side 2    Res =  0.2001E+02
 MRCHDU: Convergence failed at  66  side 2    Res =  0.2299E+02
 MRCHDU: Convergence failed at  67  side 2    Res =  0.3474E+02
 MRCHDU: Convergence failed at  68  side 2    Res =  0.1548E+02
 MRCHDU: Convergence failed at  69  side 2    Res =  0.1788E+02
 MRCHDU: Convergence failed at  70  side 2    Res =  0.2946E+02
 MRCHDU: Convergence failed at  71  side 2    Res =  0.3455E+02
 MRCHDU: Convergence failed at  72  side 2    Res =  0.1529E+02
 MRCHDU: Convergence failed at  73  side 2    Res =  0.2823E+02
 MRCHDU: Convergence failed at  74  side 2    Res =  0.3598E+02
 MRCHDU: Convergence failed at  75  side 2    Res =  0.3115E+02
 MRCHDU: Convergence failed at  76  side 2    Res =  0.4798E+02
 MRCHDU: Convergence failed at  77  side 2    Res =  0.2015E+03
 MRCHDU: Convergence failed at  78  side 2    Res =  0.9394E+02
 MRCHDU: Convergence failed at  79  side 2    Res =  0.3832E+02
 MRCHDU: Convergence failed at  80  side 2    Res =  0.3124E+02
 MRCHDU: Convergence failed at  81  side 2    Res =  0.3979E+02
 MRCHDU: Convergence failed at  82  side 2    Res =  0.1847E+03
 MRCHDU: Convergence failed at  83  side 2    Res =  0.5158E+02
 MRCHDU: Convergence failed at  84  side 2    Res =  0.4718E+02
 Side 1  free  transition at x/c =  0.8595   68
 Side 2  free  transition at x/c =  0.1444   33

   3   rms: 0.7184E+00   max: 0.2446E+01   D at   60  2   RLX: 0.613
       a = -3.000      CL =  0.1657
      Cm = -0.0770     CD =  0.01650   =>   CDf =  0.00456    CDp =  0.01194

 MRCHDU: Convergence failed at  72  side 2    Res =  0.7391E-01
 Side 1  free  transition at x/c =  0.8614   68
 Side 2  free  transition at x/c =  0.1318   32

   4   rms: 0.3438E+00   max: -.1067E+01   D at   38  2   RLX: 0.469
       a = -3.000      CL =  0.3247
      Cm = -0.1493     CD =  0.04227   =>   CDf =  0.00487    CDp =  0.03741

 MRCHDU: Convergence failed at  72  side 2    Res =  0.6571E-01
 Side 1  free  transition at x/c =  0.8495   68
 Side 2  free  transition at x/c =  0.1310   32
 idif Ue xi dudx           1  0.13984542      2.80082226E-03   49.930130    
 Uenew xinew           2  2.64334325E-02  5.29408455E-04

   5   rms: 0.3638E+00   max: 0.2961E+01   T at   32  2   RLX: 0.443
       a = -3.000      CL =  0.2413
      Cm = -0.1362     CD =  0.04590   =>   CDf =  0.00483    CDp =  0.04107

 Side 1  free  transition at x/c =  0.8452   66
 Side 2  free  transition at x/c =  0.1182   33

   6   rms: 0.5186E+00   max: -.3089E+01   T at   33  2   RLX: 0.162
       a = -3.000      CL =  0.3245
      Cm = -0.1553     CD =  0.04238   =>   CDf =  0.00455    CDp =  0.03783

 Side 1  free  transition at x/c =  0.8590   68
 Side 2  free  transition at x/c =  0.1217   32
 idif Ue xi dudx           1  0.13464481      2.72452831E-03   49.419491    
 Uenew xinew           2  2.23926883E-02  4.53114510E-04

   7   rms: 0.6704E+00   max: -.3367E+01   D at   72  2   RLX: 0.149
       a = -3.000      CL =  0.2946
      Cm = -0.1606     CD =  0.03828   =>   CDf =  0.00473    CDp =  0.03355

 Side 1  free  transition at x/c =  0.8554   67
 Side 2  free  transition at x/c =  0.1221   33

   8   rms: 0.8119E+00   max: -.3777E+01   D at   73  2   RLX: 0.132
       a = -3.000      CL =  0.3335
      Cm = -0.1735     CD =  0.03212   =>   CDf =  0.00483    CDp =  0.02730

 Side 1  free  transition at x/c =  0.8547   67
 Side 2  free  transition at x/c =  0.1266   33

   9   rms: 0.1284E+02   max: -.6324E+02   T at   33  2   RLX: 0.008
       a = -3.000      CL =  0.3999
      Cm = -0.1865     CD =  0.02886   =>   CDf =  0.00511    CDp =  0.02375

 Side 1  free  transition at x/c =  0.8584   68
 Side 2  free  transition at x/c =  0.1419   33

  10   rms: 0.1743E+01   max: -.8312E+01   T at   33  2   RLX: 0.060
       a = -3.000      CL =  0.4463
      Cm = -0.1935     CD =  0.02323   =>   CDf =  0.00571    CDp =  0.01752

 Side 1  free  transition at x/c =  0.8621   68
 Side 2  free  transition at x/c =  0.1652   35
 idif Ue xi dudx           1  0.11602882      2.29966640E-03   50.454628    
 Uenew xinew           2  1.42547453E-03  2.82526016E-05

  11   rms: 0.6474E+00   max: -.2664E+01   D at   39  2   RLX: 0.188
       a = -3.000      CL =  0.3843
      Cm = -0.1834     CD =  0.02026   =>   CDf =  0.00626    CDp =  0.01400

 Side 1  free  transition at x/c =  0.8551   67
 Side 2  free  transition at x/c =  0.1593   35

  12   rms: 0.9618E+00   max: 0.1406E+02   D at    2  2   RLX: 0.082
       a = -3.000      CL =  0.3377
      Cm = -0.1760     CD =  0.02147   =>   CDf =  0.00639    CDp =  0.01508

 Side 1  free  transition at x/c =  0.8517   67
 Side 2  free  transition at x/c =  0.1468   34

  13   rms: 0.4131E+00   max: -.2287E+01   D at   84  2   RLX: 0.219
       a = -3.000      CL =  0.2819
      Cm = -0.1658     CD =  0.02138   =>   CDf =  0.00669    CDp =  0.01469

 Side 1  free  transition at x/c =  0.8477   66
 Side 2  free  transition at x/c =  0.1326   34

  14   rms: 0.4421E+00   max: -.1915E+01   T at   66  1   RLX: 0.261
       a = -3.000      CL =  0.3432
      Cm = -0.1742     CD =  0.01851   =>   CDf =  0.00713    CDp =  0.01137

 MRCHDU: Convergence failed at  69  side 1    Res =  0.1033E+01
 MRCHDU: Convergence failed at  70  side 1    Res =  0.2862E+01
 MRCHDU: Convergence failed at  71  side 1    Res =  0.1353E+02
 MRCHDU: Convergence failed at  72  side 1    Res =  0.2454E+02
 MRCHDU: Convergence failed at  73  side 1    Res =  0.1326E+02
 MRCHDU: Convergence failed at  74  side 1    Res =  0.1505E+02
 MRCHDU: Convergence failed at  75  side 1    Res =  0.2495E+02
 MRCHDU: Convergence failed at  76  side 1    Res =  0.1234E+03
 MRCHDU: Convergence failed at  77  side 1    Res =  0.2234E+02
 Side 1  free  transition at x/c =  0.8693   68
 Side 2  free  transition at x/c =  0.1382   34

  15   rms: 0.3598E+00   max: 0.2352E+01   D at   77  1   RLX: 0.382
       a = -3.000      CL =  0.3127
      Cm = -0.1807     CD =  0.01274   =>   CDf =  0.00748    CDp =  0.00526

 Side 1  free  transition at x/c =  0.8582   67
 Side 2  free  transition at x/c =  0.1297   33

  16   rms: 0.2416E+00   max: 0.1021E+01   D at   77  1   RLX: 0.518
       a = -3.000      CL =  0.4070
      Cm = -0.1880     CD =  0.01541   =>   CDf =  0.00811    CDp =  0.00730

 MRCHDU: Convergence failed at  34  side 2    Res =  0.2336E+01
 MRCHDU: Convergence failed at  35  side 2    Res =  0.4698E+01
 MRCHDU: Convergence failed at  36  side 2    Res =  0.3557E+01
 MRCHDU: Convergence failed at  37  side 2    Res =  0.3773E+01
 MRCHDU: Convergence failed at  38  side 2    Res =  0.5853E+01
 MRCHDU: Convergence failed at  39  side 2    Res =  0.8388E+01
 MRCHDU: Convergence failed at  40  side 2    Res =  0.1161E+02
 MRCHDU: Convergence failed at  41  side 2    Res =  0.1338E+02
 MRCHDU: Convergence failed at  42  side 2    Res =  0.1432E+02
 MRCHDU: Convergence failed at  43  side 2    Res =  0.1281E+02
 MRCHDU: Convergence failed at  44  side 2    Res =  0.1015E+02
 MRCHDU: Convergence failed at  45  side 2    Res =  0.7797E+01
 MRCHDU: Convergence failed at  46  side 2    Res =  0.1170E+02
 MRCHDU: Convergence failed at  47  side 2    Res =  0.1251E+02
 MRCHDU: Convergence failed at  48  side 2    Res =  0.1827E+02
 MRCHDU: Convergence failed at  49  side 2    Res =  0.1954E+02
 MRCHDU: Convergence failed at  50  side 2    Res =  0.4312E+02
 MRCHDU: Convergence failed at  51  side 2    Res =  0.2335E+02
 MRCHDU: Convergence failed at  52  side 2    Res =  0.2484E+02
 MRCHDU: Convergence failed at  53  side 2    Res =  0.3297E+02
 MRCHDU: Convergence failed at  54  side 2    Res =  0.6579E+02
 MRCHDU: Convergence failed at  55  side 2    Res =  0.4567E+02
 MRCHDU: Convergence failed at  56  side 2    Res =  0.2883E+02
 MRCHDU: Convergence failed at  57  side 2    Res =  0.2769E+02
 MRCHDU: Convergence failed at  58  side 2    Res =  0.1239E+03
 MRCHDU: Convergence failed at  59  side 2    Res =  0.2250E+02
 MRCHDU: Convergence failed at  60  side 2    Res =  0.2163E+02
 MRCHDU: Convergence failed at  61  side 2    Res =  0.2624E+02
 MRCHDU: Convergence failed at  62  side 2    Res =  0.2845E+02
 MRCHDU: Convergence failed at  63  side 2    Res =  0.3250E+02
 MRCHDU: Convergence failed at  64  side 2    Res =  0.1646E+02
 MRCHDU: Convergence failed at  65  side 2    Res =  0.1563E+02
 MRCHDU: Convergence failed at  66  side 2    Res =  0.2487E+02
 MRCHDU: Convergence failed at  67  side 2    Res =  0.2685E+02
 MRCHDU: Convergence failed at  68  side 2    Res =  0.2002E+02
 MRCHDU: Convergence failed at  69  side 2    Res =  0.2198E+02
 MRCHDU: Convergence failed at  70  side 2    Res =  0.1059E+03
 MRCHDU: Convergence failed at  71  side 2    Res =  0.2780E+02
 MRCHDU: Convergence failed at  72  side 2    Res =  0.1266E+03
 MRCHDU: Convergence failed at  73  side 2    Res =  0.1291E+03
 MRCHDU: Convergence failed at  74  side 2    Res =  0.3893E+02
 MRCHDU: Convergence failed at  75  side 2    Res =  0.1388E+03
 MRCHDU: Convergence failed at  76  side 2    Res =  0.2174E+02
 MRCHDU: Convergence failed at  77  side 2    Res =  0.2212E+02
 MRCHDU: Convergence failed at  78  side 2    Res =  0.2126E+02
 MRCHDU: Convergence failed at  79  side 2    Res =  0.2447E+02
 MRCHDU: Convergence failed at  80  side 2    Res =  0.2565E+02
 MRCHDU: Convergence failed at  81  side 2    Res =  0.1999E+03
 MRCHDU: Convergence failed at  82  side 2    Res =  0.1900E+03
 MRCHDU: Convergence failed at  83  side 2    Res =  0.1881E+03
 MRCHDU: Convergence failed at  84  side 2    Res =  0.3049E+02
 Side 1  free  transition at x/c =  0.8674   69
 Side 2  free  transition at x/c =  0.1467   33

  17   rms: 0.7557E+00   max: 0.2494E+01   D at   60  2   RLX: 0.601
       a = -3.000      CL =  0.1845
      Cm = -0.0819     CD =  0.01321   =>   CDf =  0.00469    CDp =  0.00852

 MRCHDU: Convergence failed at  69  side 2    Res =  0.1792E+00
 MRCHDU: Convergence failed at  70  side 2    Res =  0.2245E+00
 MRCHDU: Convergence failed at  71  side 2    Res =  0.2660E+00
 MRCHDU: Convergence failed at  72  side 2    Res =  0.3052E+00
 MRCHDU: Convergence failed at  73  side 2    Res =  0.3413E+00
 MRCHDU: Convergence failed at  74  side 2    Res =  0.3759E+00
 MRCHDU: Convergence failed at  75  side 2    Res =  0.4084E+00
 MRCHDU: Convergence failed at  76  side 2    Res =  0.4408E+00
 MRCHDU: Convergence failed at  77  side 2    Res =  0.4725E+00
 MRCHDU: Convergence failed at  78  side 2    Res =  0.5042E+00
 MRCHDU: Convergence failed at  79  side 2    Res =  0.5357E+00
 MRCHDU: Convergence failed at  80  side 2    Res =  0.5659E+00
 MRCHDU: Convergence failed at  81  side 2    Res =  0.5945E+00
 MRCHDU: Convergence failed at  82  side 2    Res =  0.6196E+00
 MRCHDU: Convergence failed at  83  side 2    Res =  0.6400E+00
 MRCHDU: Convergence failed at  84  side 2    Res =  0.6306E+00
 MRCHDU: Convergence failed at  87  side 2    Res =  0.1241E+01
 MRCHDU: Convergence failed at  88  side 2    Res =  0.2871E+01
 Side 1  free  transition at x/c =  0.8694   69
 Side 2  free  transition at x/c =  0.1372   33

  18   rms: 0.5233E+00   max: -.1458E+01   D at   37  2   RLX: 0.343
       a = -3.000      CL =  0.3358
      Cm = -0.1674     CD =  0.03562   =>   CDf =  0.00484    CDp =  0.03078

 Side 1  free  transition at x/c =  0.8612   68
 Side 2  free  transition at x/c =  0.1362   33

  19   rms: 0.9919E+02   max: 0.1834E+04   T at    2  1   RLX: 0.001
       a = -3.000      CL =  0.4019
      Cm = -0.1941     CD =  0.04230   =>   CDf =  0.00477    CDp =  0.03753

 Side 1  free  transition at x/c =  0.8614   68
 Side 2  free  transition at x/c =  0.1362   33

  20   rms: 0.1194E+01   max: -.5269E+01   T at   68  1   RLX: 0.095
       a = -3.000      CL =  0.4944
      Cm = -0.2030     CD =  0.04120   =>   CDf =  0.00477    CDp =  0.03643

 MRCHDU: Convergence failed at  70  side 1    Res =  0.1169E+02
 MRCHDU: Convergence failed at  71  side 1    Res =  0.7911E+01
 MRCHDU: Convergence failed at  72  side 1    Res =  0.2661E+02
 MRCHDU: Convergence failed at  73  side 1    Res =  0.1153E+02
 MRCHDU: Convergence failed at  74  side 1    Res =  0.9405E+01
 MRCHDU: Convergence failed at  75  side 1    Res =  0.8642E+01
 MRCHDU: Convergence failed at  76  side 1    Res =  0.8363E+01
 MRCHDU: Convergence failed at  77  side 1    Res =  0.8937E+01
 MRCHDU: Convergence failed at  78  side 1    Res =  0.1335E+02
 Side 1  free  transition at x/c =  0.8869   70
 Side 2  free  transition at x/c =  0.1421   33
 idif Ue xi dudx           1  0.12916404      2.55370140E-03   50.579147    
 Uenew xinew           2  1.42778661E-02  2.82287598E-04

  21   rms: 0.1469E+01   max: -.3972E+01   D at   86  2   RLX: 0.126
       a = -3.000      CL =  0.4458
      Cm = -0.2309     CD =  0.02514   =>   CDf =  0.00487    CDp =  0.02026

 Side 1  free  transition at x/c =  0.8672   68
 Side 2  free  transition at x/c =  0.1388   34

  22   rms: 0.7805E+01   max: 0.2671E+02   D at   42  2   RLX: 0.027
       a = -3.000      CL =  0.5173
      Cm = -0.2196     CD =  0.04252   =>   CDf =  0.00479    CDp =  0.03773

 Side 1  free  transition at x/c =  0.8762   69
 Side 2  free  transition at x/c =  0.1388   33

  23   rms: 0.1769E+01   max: -.9573E+01   T at   69  1   RLX: 0.052
       a = -3.000      CL =  0.6170
      Cm = -0.2345     CD =  0.04227   =>   CDf =  0.00477    CDp =  0.03750

 Side 1  free  transition at x/c =  0.9027   72
 Side 2  free  transition at x/c =  0.1442   32
 idif Ue xi dudx           1  0.16430815      3.22031975E-03   51.022308    
 Uenew xinew           2  5.65170385E-02  1.10769272E-03

  24   rms: 0.2073E+01   max: -.6185E+01   D at   38  2   RLX: 0.081
       a = -3.000      CL =  0.5625
      Cm = -0.2428     CD =  0.02821   =>   CDf =  0.00496    CDp =  0.02325

 Side 1  free  transition at x/c =  0.8904   70
 Side 2  free  transition at x/c =  0.1530   34

  25   rms: 0.5462E+01   max: 0.2280E+02   D at   41  2   RLX: 0.036
       a = -3.000      CL =  0.7010
      Cm = -0.2601     CD =  0.03633   =>   CDf =  0.00496    CDp =  0.03137

 Side 1  free  transition at x/c =  0.9255   73
 Side 2  free  transition at x/c =  0.1613   33

  26   rms: 0.6502E+00   max: 0.4142E+01   T at   33  2   RLX: 0.352
       a = -3.000      CL =  0.6909
      Cm = -0.2307     CD =  0.04328   =>   CDf =  0.00501    CDp =  0.03827

 MRCHDU: Convergence failed at  32  side 2    Res =  0.1201E+02
 Side 1  free  transition at x/c =  0.9143   74
 Side 2  free  transition at x/c =  0.1442   31
 idif Ue xi dudx           1  0.16313171      2.71475315E-03   60.090809    
 Uenew xinew           2  4.39186990E-02  7.30872154E-04

  27   rms: 0.6830E+00   max: -.1869E+01   D at   84  2   RLX: 0.268
       a = -3.000      CL =  0.6466
      Cm = -0.2384     CD =  0.03068   =>   CDf =  0.00503    CDp =  0.02564

 MRCHDU: Convergence failed at  78  side 1    Res =  0.1119E+01
 MRCHDU: Convergence failed at  79  side 1    Res =  0.1435E+01
 Side 1  free  transition at x/c =  0.8992   72
 Side 2  free  transition at x/c =  0.1453   32

  28   rms: 0.1033E+01   max: 0.5323E+01   T at   32  2   RLX: 0.212
       a = -3.000      CL =  0.6087
      Cm = -0.2112     CD =  0.04255   =>   CDf =  0.00503    CDp =  0.03752

 Side 1  free  transition at x/c =  0.8952   72
 Side 2  free  transition at x/c =  0.1373   31
 idif Ue xi dudx           2  0.28680521      4.94825840E-03   57.960838    
 Uenew xinew           3  0.17181779      2.96437740E-03

  29   rms: 0.1289E+01   max: 0.5053E+01   T at   31  2   RLX: 0.181
       a = -3.000      CL =  0.4848
      Cm = -0.2017     CD =  0.03642   =>   CDf =  0.00506    CDp =  0.03136

 MRCHDU: Convergence failed at  33  side 2    Res =  0.1188E+02
 Side 1  free  transition at x/c =  0.8603   68
 Side 2  free  transition at x/c =  0.1286   32

  30   rms: 0.5333E+00   max: 0.3135E+01   T at   32  2   RLX: 0.375
       a = -3.000      CL =  0.3142
      Cm = -0.1453     CD =  0.05201   =>   CDf =  0.00481    CDp =  0.04720

 Side 1  free  transition at x/c =  0.8424   67
 Side 2  free  transition at x/c =  0.1273   32
 idif Ue xi dudx           1  0.17929630      3.55279446E-03   50.466274    
 Uenew xinew           2  6.46665096E-02  1.28138065E-03

  31   rms: 0.4979E+00   max: 0.2560E+01   T at   32  2   RLX: 0.392
       a = -3.000      CL =  0.2069
      Cm = -0.1355     CD =  0.04345   =>   CDf =  0.00459    CDp =  0.03885

 Side 1  free  transition at x/c =  0.8198   65
 Side 2  free  transition at x/c =  0.1157   32

  32   rms: 0.6042E+00   max: -.1878E+01   D at   84  2   RLX: 0.266
       a = -3.000      CL =  0.2326
      Cm = -0.1511     CD =  0.03664   =>   CDf =  0.00460    CDp =  0.03205

 Side 1  free  transition at x/c =  0.8226   65
 Side 2  free  transition at x/c =  0.1170   32

  33   rms: 0.9591E+00   max: -.3433E+01   D at   51  2   RLX: 0.146
       a = -3.000      CL =  0.2661
      Cm = -0.1598     CD =  0.03039   =>   CDf =  0.00537    CDp =  0.02502

 Side 1  free  transition at x/c =  0.8267   65
 Side 2  free  transition at x/c =  0.1217   33

  34   rms: 0.4731E+00   max: -.1727E+01   D at   44  2   RLX: 0.290
       a = -3.000      CL =  0.3160
      Cm = -0.1667     CD =  0.02562   =>   CDf =  0.00627    CDp =  0.01935

 Side 1  free  transition at x/c =  0.8411   66
 Side 2  free  transition at x/c =  0.1306   33

  35   rms: 0.3292E+00   max: -.1524E+01   D at   42  2   RLX: 0.328
       a = -3.000      CL =  0.3116
      Cm = -0.1672     CD =  0.02146   =>   CDf =  0.00681    CDp =  0.01465

 Side 1  free  transition at x/c =  0.8407   66
 Side 2  free  transition at x/c =  0.1315   33

  36   rms: 0.1689E+00   max: -.7746E+00   D at   40  2   RLX: 0.645
       a = -3.000      CL =  0.3118
      Cm = -0.1634     CD =  0.02258   =>   CDf =  0.00742    CDp =  0.01516

 Side 1  free  transition at x/c =  0.8393   66
 Side 2  free  transition at x/c =  0.1333   34

  37   rms: 0.3584E-01   max: -.2357E+00   D at   48  2
       a = -3.000      CL =  0.3049
      Cm = -0.1600     CD =  0.02273   =>   CDf =  0.00783    CDp =  0.01490

 Side 1  free  transition at x/c =  0.8379   66
 Side 2  free  transition at x/c =  0.1311   33

  38   rms: 0.6964E-02   max: 0.1102E+00   D at   34  2
       a = -3.000      CL =  0.3045
      Cm = -0.1600     CD =  0.02284   =>   CDf =  0.00801    CDp =  0.01484

 Side 1  free  transition at x/c =  0.8379   66
 Side 2  free  transition at x/c =  0.1303   33

  39   rms: 0.1037E-02   max: 0.9578E-02   D at   34  2
       a = -3.000      CL =  0.3045
      Cm = -0.1600     CD =  0.02284   =>   CDf =  0.00798    CDp =  0.01485

 Side 1  free  transition at x/c =  0.8379   66
 Side 2  free  transition at x/c =  0.1303   33

  40   rms: 0.9109E-05   max: 0.1003E-03   D at   34  2
       a = -3.000      CL =  0.3045
      Cm = -0.1600     CD =  0.02284   =>   CDf =  0.00798    CDp =  0.01485
 plradd ia,ip,cpol            3           0  1.74018256E-02

 Point added to stored polar  1
 Point written to save file  goe501_Re150k.base.pol                          
 Dump file unspecified or not available
 Calculating wake trajectory ...
 Calculating source influence matrix ...

 Solving BL system ...

 Side 1  free  transition at x/c =  0.8379   66
 Side 2  free  transition at x/c =  0.1303   33

   1   rms: 0.1188E+00   max: -.7100E+00   T at   33  2   RLX: 0.704
       a = -2.500      CL =  0.3681
      Cm = -0.1636     CD =  0.02173   =>   CDf =  0.00792    CDp =  0.01381

 MRCHDU: Convergence failed at  34  side 2    Res =  0.3111E+01
 MRCHDU: Convergence failed at  35  side 2    Res =  0.6105E+01
 MRCHDU: Convergence failed at  36  side 2    Res =  0.2331E+02
 MRCHDU: Convergence failed at  37  side 2    Res =  0.1024E+03
 MRCHDU: Convergence failed at  38  side 2    Res =  0.2612E+03
 MRCHDU: Convergence failed at  39  side 2    Res =  0.8857E+03
 MRCHDU: Convergence failed at  40  side 2    Res =  0.1111E+03
 MRCHDU: Convergence failed at  41  side 2    Res =  0.5379E+02
 MRCHDU: Convergence failed at  42  side 2    Res =  0.3407E+02
 MRCHDU: Convergence failed at  43  side 2    Res =  0.2515E+02
 MRCHDU: Convergence failed at  44  side 2    Res =  0.2088E+02
 MRCHDU: Convergence failed at  45  side 2    Res =  0.1770E+02
 MRCHDU: Convergence failed at  46  side 2    Res =  0.1565E+02
 MRCHDU: Convergence failed at  47  side 2    Res =  0.1435E+02
 MRCHDU: Convergence failed at  48  side 2    Res =  0.1146E+02
 MRCHDU: Convergence failed at  49  side 2    Res =  0.1205E+02
 MRCHDU: Convergence failed at  50  side 2    Res =  0.1253E+02
 MRCHDU: Convergence failed at  51  side 2    Res =  0.1312E+02
 MRCHDU: Convergence failed at  52  side 2    Res =  0.1351E+02
 MRCHDU: Convergence failed at  53  side 2    Res =  0.1400E+02
 MRCHDU: Convergence failed at  54  side 2    Res =  0.1467E+02
 MRCHDU: Convergence failed at  55  side 2    Res =  0.1558E+02
 MRCHDU: Convergence failed at  56  side 2    Res =  0.1662E+02
 MRCHDU: Convergence failed at  57  side 2    Res =  0.1770E+02
 MRCHDU: Convergence failed at  58  side 2    Res =  0.2355E+02
 MRCHDU: Convergence failed at  59  side 2    Res =  0.2484E+02
 MRCHDU: Convergence failed at  60  side 2    Res =  0.2599E+02
 MRCHDU: Convergence failed at  61  side 2    Res =  0.2698E+02
 MRCHDU: Convergence failed at  62  side 2    Res =  0.2784E+02
 MRCHDU: Convergence failed at  63  side 2    Res =  0.2855E+02
 MRCHDU: Convergence failed at  64  side 2    Res =  0.2914E+02
 MRCHDU: Convergence failed at  65  side 2    Res =  0.2964E+02
 MRCHDU: Convergence failed at  66  side 2    Res =  0.1581E+02
 MRCHDU: Convergence failed at  67  side 2    Res =  0.1723E+02
 MRCHDU: Convergence failed at  68  side 2    Res =  0.1905E+02
 MRCHDU: Convergence failed at  69  side 2    Res =  0.3052E+02
 MRCHDU: Convergence failed at  70  side 2    Res =  0.3051E+02
 MRCHDU: Convergence failed at  71  side 2    Res =  0.1940E+02
 MRCHDU: Convergence failed at  72  side 2    Res =  0.3031E+02
 MRCHDU: Convergence failed at  73  side 2    Res =  0.1595E+02
 MRCHDU: Convergence failed at  74  side 2    Res =  0.3092E+02
 MRCHDU: Convergence failed at  75  side 2    Res =  0.3156E+02
 MRCHDU: Convergence failed at  76  side 2    Res =  0.1644E+02
 MRCHDU: Convergence failed at  77  side 2    Res =  0.2903E+02
 MRCHDU: Convergence failed at  78  side 2    Res =  0.1460E+02
 MRCHDU: Convergence failed at  79  side 2    Res =  0.1898E+02
 MRCHDU: Convergence failed at  80  side 2    Res =  0.1651E+02
 MRCHDU: Convergence failed at  81  side 2    Res =  0.1813E+02
 MRCHDU: Convergence failed at  82  side 2    Res =  0.2036E+02
 MRCHDU: Convergence failed at  83  side 2    Res =  0.2337E+02
 MRCHDU: Convergence failed at  84  side 2    Res =  0.1776E+02
 Side 1  free  transition at x/c =  0.8351   67
 Side 2  free  transition at x/c =  0.1494   34

   2   rms: 0.6015E+00   max: 0.1712E+01   T at   67  2   RLX: 0.876
       a = -2.500      CL =  0.2943
      Cm = -0.1267     CD =  0.01967   =>   CDf =  0.00444    CDp =  0.01522

 Side 1  free  transition at x/c =  0.8358   67
 Side 2  free  transition at x/c =  0.1413   33

   3   rms: 0.2484E+00   max: -.1097E+01   D at   54  2   RLX: 0.456
       a = -2.500      CL =  0.3777
      Cm = -0.1556     CD =  0.02341   =>   CDf =  0.00694    CDp =  0.01647

 Side 1  free  transition at x/c =  0.8354   67
 Side 2  free  transition at x/c =  0.1499   34

   4   rms: 0.2826E+00   max: -.1515E+01   D at   52  2   RLX: 0.330
       a = -2.500      CL =  0.3915
      Cm = -0.1619     CD =  0.02093   =>   CDf =  0.00729    CDp =  0.01364

 Side 1  free  transition at x/c =  0.8351   67
 Side 2  free  transition at x/c =  0.1524   34

   5   rms: 0.1682E+00   max: -.1042E+01   D at   48  2   RLX: 0.480
       a = -2.500      CL =  0.3944
      Cm = -0.1645     CD =  0.02072   =>   CDf =  0.00767    CDp =  0.01304

 Side 1  free  transition at x/c =  0.8347   67
 Side 2  free  transition at x/c =  0.1539   34

   6   rms: 0.9536E-01   max: -.7131E+00   D at   46  2   RLX: 0.701
       a = -2.500      CL =  0.3940
      Cm = -0.1654     CD =  0.02081   =>   CDf =  0.00778    CDp =  0.01303

 Side 1  free  transition at x/c =  0.8343   67
 Side 2  free  transition at x/c =  0.1543   34

   7   rms: 0.3782E-01   max: -.4172E+00   D at   46  2
       a = -2.500      CL =  0.3920
      Cm = -0.1649     CD =  0.02096   =>   CDf =  0.00788    CDp =  0.01308

 Side 1  free  transition at x/c =  0.8341   67
 Side 2  free  transition at x/c =  0.1536   34

   8   rms: 0.5329E-02   max: -.9200E-01   D at   46  2
       a = -2.500      CL =  0.3916
      Cm = -0.1648     CD =  0.02102   =>   CDf =  0.00792    CDp =  0.01310

 Side 1  free  transition at x/c =  0.8341   67
 Side 2  free  transition at x/c =  0.1534   34

   9   rms: 0.1975E-03   max: -.3618E-02   D at   46  2
       a = -2.500      CL =  0.3916
      Cm = -0.1648     CD =  0.02102   =>   CDf =  0.00793    CDp =  0.01310

 Side 1  free  transition at x/c =  0.8341   67
 Side 2  free  transition at x/c =  0.1534   34

  10   rms: 0.7300E-06   max: -.5263E-05   D at   46  2
       a = -2.500      CL =  0.3916
      Cm = -0.1648     CD =  0.02102   =>   CDf =  0.00793    CDp =  0.01310
 plradd ia,ip,cpol            4           0  2.07786597E-02

 Point added to stored polar  1
 Point written to save file  goe501_Re150k.base.pol                          
 Dump file unspecified or not available
 Calculating wake trajectory ...
 Calculating source influence matrix ...

 Solving BL system ...

 Side 1  free  transition at x/c =  0.8341   67
 Side 2  free  transition at x/c =  0.1534   34

   1   rms: 0.1290E+00   max: -.1044E+01   T at   34  2   RLX: 0.479
       a = -2.000      CL =  0.4335
      Cm = -0.1671     CD =  0.02016   =>   CDf =  0.00785    CDp =  0.01231

 Side 1  free  transition at x/c =  0.8326   67
 Side 2  free  transition at x/c =  0.1713   34

   2   rms: 0.1687E+00   max: -.1512E+01   T at   34  2   RLX: 0.331
       a = -2.000      CL =  0.4703
      Cm = -0.1716     CD =  0.01897   =>   CDf =  0.00790    CDp =  0.01107

 Side 1  free  transition at x/c =  0.8391   68
 Side 2  free  transition at x/c =  0.1891   35

   3   rms: 0.7525E-01   max: -.7040E+00   T at   35  2   RLX: 0.710
       a = -2.000      CL =  0.4776
      Cm = -0.1712     CD =  0.01845   =>   CDf =  0.00788    CDp =  0.01058

 Side 1  free  transition at x/c =  0.8324   67
 Side 2  free  transition at x/c =  0.2091   36

   4   rms: 0.1552E+00   max: -.1373E+01   T at   36  2   RLX: 0.364
       a = -2.000      CL =  0.5115
      Cm = -0.1763     CD =  0.01779   =>   CDf =  0.00777    CDp =  0.01001

 Side 1  free  transition at x/c =  0.8430   68
 Side 2  free  transition at x/c =  0.2346   38

   5   rms: 0.8677E-01   max: 0.5152E+00   D at   69  1
       a = -2.000      CL =  0.4849
      Cm = -0.1708     CD =  0.01867   =>   CDf =  0.00781    CDp =  0.01086

 Side 1  free  transition at x/c =  0.8316   67
 Side 2  free  transition at x/c =  0.2329   38

   6   rms: 0.1836E+00   max: 0.1086E+01   D at   39  2   RLX: 0.542
       a = -2.000      CL =  0.5461
      Cm = -0.1819     CD =  0.01687   =>   CDf =  0.00758    CDp =  0.00929

 MRCHDU: Convergence failed at  72  side 1    Res =  0.1682E+01
 MRCHDU: Convergence failed at  73  side 1    Res =  0.4045E+03
 MRCHDU: Convergence failed at  74  side 1    Res =  0.5174E+01
 MRCHDU: Convergence failed at  75  side 1    Res =  0.3850E+01
 MRCHDU: Convergence failed at  76  side 1    Res =  0.3840E+01
 MRCHDU: Convergence failed at  77  side 1    Res =  0.4337E+01
 MRCHDU: Convergence failed at  78  side 1    Res =  0.5323E+01
 MRCHDU: Convergence failed at  79  side 1    Res =  0.7110E+01
 MRCHDU: Convergence failed at  80  side 1    Res =  0.1800E+02
 Side 1  free  transition at x/c =  0.8536   70
 Side 2  free  transition at x/c =  0.2609   38
 idif Ue xi dudx           1  0.16934262      2.88915634E-03   58.613174    
 Uenew xinew           2  5.30610606E-02  9.05275345E-04

   7   rms: 0.2680E+00   max: 0.1511E+01   D at   80  1   RLX: 0.728
       a = -2.000      CL =  0.4666
      Cm = -0.1715     CD =  0.01266   =>   CDf =  0.00781    CDp =  0.00485

 MRCHDU: Convergence failed at  70  side 1    Res =  0.1920E+01
 MRCHDU: Convergence failed at  71  side 1    Res =  0.8199E+01
 MRCHDU: Convergence failed at  72  side 1    Res =  0.6468E+01
 MRCHDU: Convergence failed at  73  side 1    Res =  0.4699E+02
 MRCHDU: Convergence failed at  74  side 1    Res =  0.4405E+01
 MRCHDU: Convergence failed at  75  side 1    Res =  0.2336E+01
 MRCHDU: Convergence failed at  76  side 1    Res =  0.1751E+01
 MRCHDU: Convergence failed at  77  side 1    Res =  0.1653E+01
 MRCHDU: Convergence failed at  78  side 1    Res =  0.1904E+01
 MRCHDU: Convergence failed at  79  side 1    Res =  0.3075E+01
 Side 1  free  transition at x/c =  0.8392   68
 Side 2  free  transition at x/c =  0.2274   37

   8   rms: 0.3664E+00   max: 0.2231E+01   D at   79  1   RLX: 0.340
       a = -2.000      CL =  0.4340
      Cm = -0.1775     CD =  0.01316   =>   CDf =  0.00769    CDp =  0.00547

 Side 1  free  transition at x/c =  0.8218   67
 Side 2  free  transition at x/c =  0.1962   35

   9   rms: 0.2669E+00   max: -.2703E+01   T at   35  2   RLX: 0.185
       a = -2.000      CL =  0.4611
      Cm = -0.1773     CD =  0.01570   =>   CDf =  0.00819    CDp =  0.00751

 MRCHDU: Convergence failed at  37  side 2    Res =  0.1492E+02
 MRCHDU: Convergence failed at  38  side 2    Res =  0.7870E+01
 MRCHDU: Convergence failed at  39  side 2    Res =  0.3875E+01
 MRCHDU: Convergence failed at  40  side 2    Res =  0.5384E+01
 MRCHDU: Convergence failed at  41  side 2    Res =  0.9896E+01
 MRCHDU: Convergence failed at  42  side 2    Res =  0.1768E+02
 MRCHDU: Convergence failed at  43  side 2    Res =  0.2461E+02
 MRCHDU: Convergence failed at  44  side 2    Res =  0.2701E+02
 MRCHDU: Convergence failed at  45  side 2    Res =  0.2675E+02
 MRCHDU: Convergence failed at  46  side 2    Res =  0.2418E+02
 MRCHDU: Convergence failed at  47  side 2    Res =  0.2231E+02
 MRCHDU: Convergence failed at  48  side 2    Res =  0.2231E+02
 MRCHDU: Convergence failed at  49  side 2    Res =  0.2194E+02
 MRCHDU: Convergence failed at  50  side 2    Res =  0.2148E+02
 MRCHDU: Convergence failed at  51  side 2    Res =  0.2090E+02
 MRCHDU: Convergence failed at  52  side 2    Res =  0.1966E+02
 MRCHDU: Convergence failed at  53  side 2    Res =  0.1834E+02
 MRCHDU: Convergence failed at  54  side 2    Res =  0.1680E+02
 MRCHDU: Convergence failed at  55  side 2    Res =  0.1546E+02
 MRCHDU: Convergence failed at  56  side 2    Res =  0.1439E+02
 MRCHDU: Convergence failed at  57  side 2    Res =  0.1357E+02
 MRCHDU: Convergence failed at  58  side 2    Res =  0.1299E+02
 MRCHDU: Convergence failed at  59  side 2    Res =  0.1262E+02
 MRCHDU: Convergence failed at  60  side 2    Res =  0.1241E+02
 MRCHDU: Convergence failed at  61  side 2    Res =  0.1229E+02
 MRCHDU: Convergence failed at  62  side 2    Res =  0.1226E+02
 MRCHDU: Convergence failed at  63  side 2    Res =  0.1228E+02
 MRCHDU: Convergence failed at  64  side 2    Res =  0.1236E+02
 MRCHDU: Convergence failed at  65  side 2    Res =  0.1248E+02
 MRCHDU: Convergence failed at  66  side 2    Res =  0.1266E+02
 MRCHDU: Convergence failed at  67  side 2    Res =  0.1289E+02
 MRCHDU: Convergence failed at  68  side 2    Res =  0.1317E+02
 MRCHDU: Convergence failed at  69  side 2    Res =  0.1352E+02
 MRCHDU: Convergence failed at  70  side 2    Res =  0.1395E+02
 MRCHDU: Convergence failed at  71  side 2    Res =  0.1449E+02
 MRCHDU: Convergence failed at  72  side 2    Res =  0.1515E+02
 MRCHDU: Convergence failed at  73  side 2    Res =  0.1596E+02
 MRCHDU: Convergence failed at  74  side 2    Res =  0.1689E+02
 MRCHDU: Convergence failed at  75  side 2    Res =  0.1799E+02
 MRCHDU: Convergence failed at  76  side 2    Res =  0.1928E+02
 MRCHDU: Convergence failed at  77  side 2    Res =  0.2069E+02
 MRCHDU: Convergence failed at  78  side 2    Res =  0.2264E+02
 MRCHDU: Convergence failed at  79  side 2    Res =  0.2568E+02
 MRCHDU: Convergence failed at  80  side 2    Res =  0.3107E+02
 MRCHDU: Convergence failed at  81  side 2    Res =  0.4073E+02
 MRCHDU: Convergence failed at  82  side 2    Res =  0.6339E+02
 MRCHDU: Convergence failed at  83  side 2    Res =  0.2415E+02
 Side 1  free  transition at x/c =  0.8265   67
 Side 2  free  transition at x/c =  0.2264   37

  10   rms: 0.3985E+00   max: 0.6660E+00   T at   84  2   RLX: 0.973
       a = -2.000      CL =  0.5358
      Cm = -0.1773     CD =  0.01541   =>   CDf =  0.00503    CDp =  0.01038

 MRCHDU: Convergence failed at  80  side 1    Res =  0.2583E+01
 Side 1  free  transition at x/c =  0.8509   70
 Side 2  free  transition at x/c =  0.2574   38

  11   rms: 0.8421E-01   max: 0.4367E+00   D at   70  1
       a = -2.000      CL =  0.5281
      Cm = -0.1786     CD =  0.01748   =>   CDf =  0.00774    CDp =  0.00974

 MRCHDU: Convergence failed at  80  side 1    Res =  0.1030E+01
 Side 1  free  transition at x/c =  0.8424   69
 Side 2  free  transition at x/c =  0.2541   38
 idif Ue xi dudx           1  0.17183746      2.89845467E-03   59.285889    
 Uenew xinew           2  5.42213134E-02  9.14573669E-04

  12   rms: 0.2368E+00   max: 0.1132E+01   T at   38  2   RLX: 0.457
       a = -2.000      CL =  0.4609
      Cm = -0.1694     CD =  0.01843   =>   CDf =  0.00769    CDp =  0.01073

 MRCHDU: Convergence failed at  39  side 2    Res =  0.5281E+01
 MRCHDU: Convergence failed at  40  side 2    Res =  0.2746E+01
 MRCHDU: Convergence failed at  41  side 2    Res =  0.3437E+01
 MRCHDU: Convergence failed at  42  side 2    Res =  0.1929E+01
 MRCHDU: Convergence failed at  43  side 2    Res =  0.1738E+01
 MRCHDU: Convergence failed at  44  side 2    Res =  0.2087E+01
 MRCHDU: Convergence failed at  45  side 2    Res =  0.2780E+01
 MRCHDU: Convergence failed at  46  side 2    Res =  0.3285E+01
 MRCHDU: Convergence failed at  47  side 2    Res =  0.3742E+01
 MRCHDU: Convergence failed at  48  side 2    Res =  0.4076E+01
 MRCHDU: Convergence failed at  49  side 2    Res =  0.4324E+01
 MRCHDU: Convergence failed at  50  side 2    Res =  0.4478E+01
 MRCHDU: Convergence failed at  51  side 2    Res =  0.4661E+01
 MRCHDU: Convergence failed at  52  side 2    Res =  0.4938E+01
 MRCHDU: Convergence failed at  53  side 2    Res =  0.5398E+01
 MRCHDU: Convergence failed at  54  side 2    Res =  0.6198E+01
 MRCHDU: Convergence failed at  55  side 2    Res =  0.7331E+01
 MRCHDU: Convergence failed at  56  side 2    Res =  0.8864E+01
 MRCHDU: Convergence failed at  57  side 2    Res =  0.1045E+02
 MRCHDU: Convergence failed at  58  side 2    Res =  0.1276E+02
 MRCHDU: Convergence failed at  59  side 2    Res =  0.1450E+02
 MRCHDU: Convergence failed at  60  side 2    Res =  0.1595E+02
 MRCHDU: Convergence failed at  61  side 2    Res =  0.1708E+02
 MRCHDU: Convergence failed at  62  side 2    Res =  0.1778E+02
 MRCHDU: Convergence failed at  63  side 2    Res =  0.1812E+02
 MRCHDU: Convergence failed at  64  side 2    Res =  0.1816E+02
 MRCHDU: Convergence failed at  65  side 2    Res =  0.1789E+02
 MRCHDU: Convergence failed at  66  side 2    Res =  0.1745E+02
 MRCHDU: Convergence failed at  67  side 2    Res =  0.1677E+02
 MRCHDU: Convergence failed at  68  side 2    Res =  0.1595E+02
 MRCHDU: Convergence failed at  69  side 2    Res =  0.1499E+02
 MRCHDU: Convergence failed at  70  side 2    Res =  0.1323E+02
 MRCHDU: Convergence failed at  71  side 2    Res =  0.1222E+02
 MRCHDU: Convergence failed at  72  side 2    Res =  0.1121E+02
 MRCHDU: Convergence failed at  73  side 2    Res =  0.1027E+02
 MRCHDU: Convergence failed at  74  side 2    Res =  0.8846E+01
 MRCHDU: Convergence failed at  75  side 2    Res =  0.8158E+01
 MRCHDU: Convergence failed at  76  side 2    Res =  0.7372E+01
 MRCHDU: Convergence failed at  77  side 2    Res =  0.6883E+01
 MRCHDU: Convergence failed at  78  side 2    Res =  0.6427E+01
 MRCHDU: Convergence failed at  79  side 2    Res =  0.6002E+01
 MRCHDU: Convergence failed at  80  side 2    Res =  0.5517E+01
 MRCHDU: Convergence failed at  81  side 2    Res =  0.4964E+01
 MRCHDU: Convergence failed at  82  side 2    Res =  0.4386E+01
 MRCHDU: Convergence failed at  83  side 2    Res =  0.8170E+01
 Side 1  free  transition at x/c =  0.8240   67
 Side 2  free  transition at x/c =  0.2274   37

  13   rms: 0.2774E+00   max: 0.1809E+01   T at   37  2   RLX: 0.493
       a = -2.000      CL =  0.2644
      Cm = -0.1057     CD =  0.01927   =>   CDf =  0.00469    CDp =  0.01458

 Side 1  free  transition at x/c =  0.8144   66
 Side 2  free  transition at x/c =  0.1806   34

  14   rms: 0.1143E+00   max: -.5874E+00   C at   34  2   RLX: 0.851
       a = -2.000      CL =  0.3593
      Cm = -0.1463     CD =  0.02195   =>   CDf =  0.00869    CDp =  0.01326

 Side 1  free  transition at x/c =  0.8032   66
 Side 2  free  transition at x/c =  0.1647   34

  15   rms: 0.7912E-01   max: -.6084E+00   T at   34  2   RLX: 0.822
       a = -2.000      CL =  0.3997
      Cm = -0.1557     CD =  0.02152   =>   CDf =  0.00809    CDp =  0.01344

 Side 1  free  transition at x/c =  0.8097   66
 Side 2  free  transition at x/c =  0.1755   34

  16   rms: 0.1609E+00   max: -.1436E+01   T at   34  2   RLX: 0.348
       a = -2.000      CL =  0.4355
      Cm = -0.1612     CD =  0.02182   =>   CDf =  0.00796    CDp =  0.01387

 MRCHDU: Convergence failed at  36  side 2    Res =  0.1167E+02
 MRCHDU: Convergence failed at  37  side 2    Res =  0.2835E+01
 MRCHDU: Convergence failed at  38  side 2    Res =  0.6491E+01
 MRCHDU: Convergence failed at  39  side 2    Res =  0.1618E+02
 MRCHDU: Convergence failed at  40  side 2    Res =  0.5333E+02
 MRCHDU: Convergence failed at  41  side 2    Res =  0.3355E+03
 MRCHDU: Convergence failed at  42  side 2    Res =  0.1225E+03
 MRCHDU: Convergence failed at  43  side 2    Res =  0.4062E+03
 MRCHDU: Convergence failed at  44  side 2    Res =  0.6851E+02
 MRCHDU: Convergence failed at  45  side 2    Res =  0.4002E+02
 MRCHDU: Convergence failed at  46  side 2    Res =  0.2863E+02
 MRCHDU: Convergence failed at  47  side 2    Res =  0.2433E+02
 MRCHDU: Convergence failed at  48  side 2    Res =  0.2251E+02
 MRCHDU: Convergence failed at  49  side 2    Res =  0.2143E+02
 MRCHDU: Convergence failed at  50  side 2    Res =  0.2047E+02
 MRCHDU: Convergence failed at  51  side 2    Res =  0.1959E+02
 MRCHDU: Convergence failed at  52  side 2    Res =  0.1843E+02
 MRCHDU: Convergence failed at  53  side 2    Res =  0.1703E+02
 MRCHDU: Convergence failed at  54  side 2    Res =  0.1558E+02
 MRCHDU: Convergence failed at  55  side 2    Res =  0.1436E+02
 MRCHDU: Convergence failed at  56  side 2    Res =  0.1337E+02
 MRCHDU: Convergence failed at  57  side 2    Res =  0.1263E+02
 MRCHDU: Convergence failed at  58  side 2    Res =  0.1211E+02
 MRCHDU: Convergence failed at  59  side 2    Res =  0.9163E+01
 MRCHDU: Convergence failed at  60  side 2    Res =  0.9359E+01
 MRCHDU: Convergence failed at  61  side 2    Res =  0.9536E+01
 MRCHDU: Convergence failed at  62  side 2    Res =  0.9597E+01
 MRCHDU: Convergence failed at  63  side 2    Res =  0.9604E+01
 MRCHDU: Convergence failed at  64  side 2    Res =  0.9562E+01
 MRCHDU: Convergence failed at  65  side 2    Res =  0.9468E+01
 MRCHDU: Convergence failed at  66  side 2    Res =  0.1195E+02
 MRCHDU: Convergence failed at  67  side 2    Res =  0.1220E+02
 MRCHDU: Convergence failed at  68  side 2    Res =  0.1250E+02
 MRCHDU: Convergence failed at  69  side 2    Res =  0.1287E+02
 MRCHDU: Convergence failed at  70  side 2    Res =  0.1332E+02
 MRCHDU: Convergence failed at  71  side 2    Res =  0.1388E+02
 MRCHDU: Convergence failed at  72  side 2    Res =  0.1455E+02
 MRCHDU: Convergence failed at  73  side 2    Res =  0.1534E+02
 MRCHDU: Convergence failed at  74  side 2    Res =  0.1628E+02
 MRCHDU: Convergence failed at  75  side 2    Res =  0.1737E+02
 MRCHDU: Convergence failed at  76  side 2    Res =  0.1866E+02
 MRCHDU: Convergence failed at  77  side 2    Res =  0.2010E+02
 MRCHDU: Convergence failed at  78  side 2    Res =  0.2218E+02
 MRCHDU: Convergence failed at  79  side 2    Res =  0.2525E+02
 MRCHDU: Convergence failed at  80  side 2    Res =  0.3097E+02
 MRCHDU: Convergence failed at  81  side 2    Res =  0.4183E+02
 MRCHDU: Convergence failed at  82  side 2    Res =  0.7069E+02
 MRCHDU: Convergence failed at  83  side 2    Res =  0.2614E+02
 Side 1  free  transition at x/c =  0.8187   67
 Side 2  free  transition at x/c =  0.2012   36

  17   rms: 0.4506E+00   max: 0.1522E+01   T at   37  2   RLX: 0.986
       a = -2.000      CL =  0.3900
      Cm = -0.1474     CD =  0.01987   =>   CDf =  0.00454    CDp =  0.01533

 MRCHDU: Convergence failed at  36  side 2    Res =  0.8854E+01
 MRCHDU: Convergence failed at  37  side 2    Res =  0.4583E+01
 MRCHDU: Convergence failed at  38  side 2    Res =  0.6404E+01
 MRCHDU: Convergence failed at  39  side 2    Res =  0.2304E+02
 MRCHDU: Convergence failed at  40  side 2    Res =  0.3250E+01
 Side 1  free  transition at x/c =  0.8205   67
 Side 2  free  transition at x/c =  0.1610   33

  18   rms: 0.3874E+01   max: -.2486E+02   T at   33  2   RLX: 0.020
       a = -2.000      CL =  0.4142
      Cm = -0.1582     CD =  0.02666   =>   CDf =  0.00587    CDp =  0.02079

 Side 1  free  transition at x/c =  0.8209   67
 Side 2  free  transition at x/c =  0.1812   34

  19   rms: 0.1214E+01   max: -.1063E+02   T at   34  2   RLX: 0.047
       a = -2.000      CL =  0.4282
      Cm = -0.1594     CD =  0.02277   =>   CDf =  0.00823    CDp =  0.01454

 MRCHDU: Convergence failed at  36  side 2    Res =  0.2839E+01
 MRCHDU: Convergence failed at  37  side 2    Res =  0.3512E+01
 MRCHDU: Convergence failed at  38  side 2    Res =  0.5818E+01
 MRCHDU: Convergence failed at  39  side 2    Res =  0.9855E+01
 MRCHDU: Convergence failed at  40  side 2    Res =  0.6165E+01
 MRCHDU: Convergence failed at  41  side 2    Res =  0.9548E+01
 MRCHDU: Convergence failed at  42  side 2    Res =  0.1099E+02
 MRCHDU: Convergence failed at  43  side 2    Res =  0.1601E+02
 MRCHDU: Convergence failed at  44  side 2    Res =  0.2127E+02
 MRCHDU: Convergence failed at  45  side 2    Res =  0.2853E+02
 MRCHDU: Convergence failed at  46  side 2    Res =  0.4002E+02
 MRCHDU: Convergence failed at  47  side 2    Res =  0.5942E+02
 MRCHDU: Convergence failed at  48  side 2    Res =  0.9865E+02
 MRCHDU: Convergence failed at  49  side 2    Res =  0.2257E+03
 MRCHDU: Convergence failed at  50  side 2    Res =  0.7593E+03
 MRCHDU: Convergence failed at  51  side 2    Res =  0.1652E+03
 MRCHDU: Convergence failed at  52  side 2    Res =  0.8862E+02
 MRCHDU: Convergence failed at  53  side 2    Res =  0.6146E+02
 MRCHDU: Convergence failed at  54  side 2    Res =  0.4924E+02
 MRCHDU: Convergence failed at  55  side 2    Res =  0.3982E+02
 MRCHDU: Convergence failed at  56  side 2    Res =  0.3375E+02
 MRCHDU: Convergence failed at  57  side 2    Res =  0.2912E+02
 MRCHDU: Convergence failed at  58  side 2    Res =  0.2575E+02
 MRCHDU: Convergence failed at  59  side 2    Res =  0.4671E+02
 MRCHDU: Convergence failed at  60  side 2    Res =  0.1332E+03
 MRCHDU: Convergence failed at  61  side 2    Res =  0.5013E+03
 MRCHDU: Convergence failed at  62  side 2    Res =  0.3963E+03
 MRCHDU: Convergence failed at  63  side 2    Res =  0.1595E+03
 MRCHDU: Convergence failed at  64  side 2    Res =  0.1008E+03
 MRCHDU: Convergence failed at  65  side 2    Res =  0.7851E+02
 MRCHDU: Convergence failed at  66  side 2    Res =  0.6590E+02
 MRCHDU: Convergence failed at  67  side 2    Res =  0.5787E+02
 MRCHDU: Convergence failed at  68  side 2    Res =  0.5249E+02
 MRCHDU: Convergence failed at  69  side 2    Res =  0.4870E+02
 MRCHDU: Convergence failed at  70  side 2    Res =  0.4599E+02
 MRCHDU: Convergence failed at  71  side 2    Res =  0.4311E+02
 MRCHDU: Convergence failed at  72  side 2    Res =  0.4178E+02
 MRCHDU: Convergence failed at  73  side 2    Res =  0.4088E+02
 MRCHDU: Convergence failed at  74  side 2    Res =  0.4024E+02
 MRCHDU: Convergence failed at  75  side 2    Res =  0.3984E+02
 MRCHDU: Convergence failed at  76  side 2    Res =  0.3957E+02
 MRCHDU: Convergence failed at  77  side 2    Res =  0.3928E+02
 MRCHDU: Convergence failed at  78  side 2    Res =  0.3855E+02
 MRCHDU: Convergence failed at  79  side 2    Res =  0.3717E+02
 MRCHDU: Convergence failed at  80  side 2    Res =  0.3553E+02
 MRCHDU: Convergence failed at  81  side 2    Res =  0.3399E+02
 MRCHDU: Convergence failed at  82  side 2    Res =  0.3281E+02
 MRCHDU: Convergence failed at  83  side 2    Res =  0.2857E+02
 Side 1  free  transition at x/c =  0.8210   67
 Side 2  free  transition at x/c =  0.2098   36

  20   rms: 0.4215E+00   max: 0.1301E+01   T at   64  2
       a = -2.000      CL =  0.3940
      Cm = -0.1508     CD =  0.01954   =>   CDf =  0.00456    CDp =  0.01498

 Side 1  free  transition at x/c =  0.8202   67
 Side 2  free  transition at x/c =  0.1630   33

  21   rms: 0.2578E+00   max: -.2466E+01   T at   33  2   RLX: 0.203
       a = -2.000      CL =  0.4132
      Cm = -0.1544     CD =  0.02320   =>   CDf =  0.00787    CDp =  0.01533

 Side 1  free  transition at x/c =  0.8204   67
 Side 2  free  transition at x/c =  0.1831   35

  22   rms: 0.6294E-01   max: -.5425E+00   T at   35  2   RLX: 0.922
       a = -2.000      CL =  0.4442
      Cm = -0.1637     CD =  0.02015   =>   CDf =  0.00796    CDp =  0.01219

 Side 1  free  transition at x/c =  0.8211   67
 Side 2  free  transition at x/c =  0.1952   35

  23   rms: 0.5005E-01   max: -.4031E+00   D at   35  2
       a = -2.000      CL =  0.4487
      Cm = -0.1644     CD =  0.02031   =>   CDf =  0.00798    CDp =  0.01233

 Side 1  free  transition at x/c =  0.8211   67
 Side 2  free  transition at x/c =  0.2141   36

  24   rms: 0.2572E-01   max: -.3777E+00   C at   36  2
       a = -2.000      CL =  0.4469
      Cm = -0.1644     CD =  0.02004   =>   CDf =  0.00778    CDp =  0.01226

 Side 1  free  transition at x/c =  0.8211   67
 Side 2  free  transition at x/c =  0.2002   36

  25   rms: 0.1369E-01   max: -.1324E+00   T at   36  2
       a = -2.000      CL =  0.4474
      Cm = -0.1644     CD =  0.02005   =>   CDf =  0.00779    CDp =  0.01225

 Side 1  free  transition at x/c =  0.8212   67
 Side 2  free  transition at x/c =  0.2039   36

  26   rms: 0.1629E-02   max: -.2321E-01   D at   36  2
       a = -2.000      CL =  0.4474
      Cm = -0.1644     CD =  0.02008   =>   CDf =  0.00772    CDp =  0.01236

 Side 1  free  transition at x/c =  0.8211   67
 Side 2  free  transition at x/c =  0.2037   36

  27   rms: 0.2726E-04   max: 0.4721E-03   D at   36  2
       a = -2.000      CL =  0.4474
      Cm = -0.1644     CD =  0.02008   =>   CDf =  0.00772    CDp =  0.01236
 plradd ia,ip,cpol            5           0  2.07786597E-02

 Point added to stored polar  1
 Point written to save file  goe501_Re150k.base.pol                          
 Dump file unspecified or not available
 Calculating wake trajectory ...
 Calculating source influence matrix ...

 Solving BL system ...

 Side 1  free  transition at x/c =  0.8211   67
 Side 2  free  transition at x/c =  0.2037   36

   1   rms: 0.1938E+00   max: -.1864E+01   T at   36  2   RLX: 0.268
       a = -1.500      CL =  0.4690
      Cm = -0.1655     CD =  0.01962   =>   CDf =  0.00773    CDp =  0.01189

 Side 1  free  transition at x/c =  0.8197   67
 Side 2  free  transition at x/c =  0.2277   37

   2   rms: 0.1137E+00   max: -.1219E+01   T at   37  2   RLX: 0.410
       a = -1.500      CL =  0.4958
      Cm = -0.1668     CD =  0.01944   =>   CDf =  0.00762    CDp =  0.01181

 MRCHDU: Convergence failed at  38  side 2    Res =  0.2405E+01
 MRCHDU: Convergence failed at  39  side 2    Res =  0.5396E+01
 MRCHDU: Convergence failed at  40  side 2    Res =  0.3456E+01
 MRCHDU: Convergence failed at  41  side 2    Res =  0.5716E+01
 MRCHDU: Convergence failed at  42  side 2    Res =  0.9699E+01
 MRCHDU: Convergence failed at  43  side 2    Res =  0.1680E+02
 MRCHDU: Convergence failed at  44  side 2    Res =  0.2205E+02
 MRCHDU: Convergence failed at  45  side 2    Res =  0.2514E+02
 MRCHDU: Convergence failed at  46  side 2    Res =  0.2732E+02
 MRCHDU: Convergence failed at  47  side 2    Res =  0.2938E+02
 MRCHDU: Convergence failed at  48  side 2    Res =  0.2996E+02
 MRCHDU: Convergence failed at  49  side 2    Res =  0.3108E+02
 MRCHDU: Convergence failed at  50  side 2    Res =  0.3117E+02
 MRCHDU: Convergence failed at  51  side 2    Res =  0.2945E+02
 MRCHDU: Convergence failed at  52  side 2    Res =  0.2667E+02
 MRCHDU: Convergence failed at  53  side 2    Res =  0.2272E+02
 MRCHDU: Convergence failed at  54  side 2    Res =  0.1983E+02
 MRCHDU: Convergence failed at  55  side 2    Res =  0.1761E+02
 MRCHDU: Convergence failed at  56  side 2    Res =  0.1608E+02
 MRCHDU: Convergence failed at  57  side 2    Res =  0.1506E+02
 MRCHDU: Convergence failed at  58  side 2    Res =  0.1450E+02
 MRCHDU: Convergence failed at  59  side 2    Res =  0.1420E+02
 MRCHDU: Convergence failed at  60  side 2    Res =  0.1407E+02
 MRCHDU: Convergence failed at  61  side 2    Res =  0.1407E+02
 MRCHDU: Convergence failed at  62  side 2    Res =  0.1417E+02
 MRCHDU: Convergence failed at  63  side 2    Res =  0.1435E+02
 MRCHDU: Convergence failed at  64  side 2    Res =  0.1462E+02
 MRCHDU: Convergence failed at  65  side 2    Res =  0.1498E+02
 MRCHDU: Convergence failed at  66  side 2    Res =  0.1542E+02
 MRCHDU: Convergence failed at  67  side 2    Res =  0.1598E+02
 MRCHDU: Convergence failed at  68  side 2    Res =  0.1667E+02
 MRCHDU: Convergence failed at  69  side 2    Res =  0.1760E+02
 MRCHDU: Convergence failed at  70  side 2    Res =  0.1872E+02
 MRCHDU: Convergence failed at  71  side 2    Res =  0.2016E+02
 MRCHDU: Convergence failed at  72  side 2    Res =  0.2201E+02
 MRCHDU: Convergence failed at  73  side 2    Res =  0.2427E+02
 MRCHDU: Convergence failed at  74  side 2    Res =  0.2702E+02
 MRCHDU: Convergence failed at  75  side 2    Res =  0.3069E+02
 MRCHDU: Convergence failed at  76  side 2    Res =  0.3487E+02
 MRCHDU: Convergence failed at  77  side 2    Res =  0.4242E+02
 MRCHDU: Convergence failed at  78  side 2    Res =  0.5639E+02
 MRCHDU: Convergence failed at  79  side 2    Res =  0.9990E+02
 MRCHDU: Convergence failed at  80  side 2    Res =  0.5389E+03
 MRCHDU: Convergence failed at  81  side 2    Res =  0.1159E+03
 MRCHDU: Convergence failed at  82  side 2    Res =  0.4483E+02
 Side 1  free  transition at x/c =  0.8182   68
 Side 2  free  transition at x/c =  0.2589   38

   3   rms: 0.3302E+00   max: 0.1088E+01   T at   65  2   RLX: 0.673
       a = -1.500      CL =  0.3798
      Cm = -0.1208     CD =  0.01759   =>   CDf =  0.00476    CDp =  0.01283

 Side 1  free  transition at x/c =  0.8159   67
 Side 2  free  transition at x/c =  0.2450   37

   4   rms: 0.1250E+00   max: -.9194E+00   T at   37  2   RLX: 0.544
       a = -1.500      CL =  0.4743
      Cm = -0.1491     CD =  0.01912   =>   CDf =  0.00848    CDp =  0.01064

 MRCHDU: Convergence failed at  39  side 2    Res =  0.1070E+02
 MRCHDU: Convergence failed at  40  side 2    Res =  0.5256E+01
 MRCHDU: Convergence failed at  41  side 2    Res =  0.2818E+01
 MRCHDU: Convergence failed at  42  side 2    Res =  0.4705E+01
 MRCHDU: Convergence failed at  43  side 2    Res =  0.7977E+01
 MRCHDU: Convergence failed at  44  side 2    Res =  0.1289E+02
 MRCHDU: Convergence failed at  45  side 2    Res =  0.2728E+02
 MRCHDU: Convergence failed at  46  side 2    Res =  0.4295E+02
 MRCHDU: Convergence failed at  47  side 2    Res =  0.5976E+02
 MRCHDU: Convergence failed at  48  side 2    Res =  0.7517E+02
 MRCHDU: Convergence failed at  49  side 2    Res =  0.8193E+02
 MRCHDU: Convergence failed at  50  side 2    Res =  0.9162E+02
 MRCHDU: Convergence failed at  51  side 2    Res =  0.7855E+02
 MRCHDU: Convergence failed at  52  side 2    Res =  0.6317E+02
 MRCHDU: Convergence failed at  53  side 2    Res =  0.4916E+02
 MRCHDU: Convergence failed at  54  side 2    Res =  0.3797E+02
 MRCHDU: Convergence failed at  55  side 2    Res =  0.3190E+02
 MRCHDU: Convergence failed at  56  side 2    Res =  0.2889E+02
 MRCHDU: Convergence failed at  57  side 2    Res =  0.2559E+02
 MRCHDU: Convergence failed at  58  side 2    Res =  0.2364E+02
 MRCHDU: Convergence failed at  59  side 2    Res =  0.2227E+02
 MRCHDU: Convergence failed at  60  side 2    Res =  0.2106E+02
 MRCHDU: Convergence failed at  61  side 2    Res =  0.2030E+02
 MRCHDU: Convergence failed at  62  side 2    Res =  0.1974E+02
 MRCHDU: Convergence failed at  63  side 2    Res =  0.1930E+02
 MRCHDU: Convergence failed at  64  side 2    Res =  0.1895E+02
 MRCHDU: Convergence failed at  65  side 2    Res =  0.1870E+02
 MRCHDU: Convergence failed at  66  side 2    Res =  0.1853E+02
 MRCHDU: Convergence failed at  67  side 2    Res =  0.1844E+02
 MRCHDU: Convergence failed at  68  side 2    Res =  0.1842E+02
 MRCHDU: Convergence failed at  69  side 2    Res =  0.1847E+02
 MRCHDU: Convergence failed at  70  side 2    Res =  0.1860E+02
 MRCHDU: Convergence failed at  71  side 2    Res =  0.1880E+02
 MRCHDU: Convergence failed at  72  side 2    Res =  0.1900E+02
 MRCHDU: Convergence failed at  73  side 2    Res =  0.1921E+02
 MRCHDU: Convergence failed at  74  side 2    Res =  0.1949E+02
 MRCHDU: Convergence failed at  75  side 2    Res =  0.1953E+02
 MRCHDU: Convergence failed at  76  side 2    Res =  0.1936E+02
 MRCHDU: Convergence failed at  77  side 2    Res =  0.1896E+02
 MRCHDU: Convergence failed at  78  side 2    Res =  0.1827E+02
 MRCHDU: Convergence failed at  79  side 2    Res =  0.1752E+02
 MRCHDU: Convergence failed at  80  side 2    Res =  0.1679E+02
 MRCHDU: Convergence failed at  81  side 2    Res =  0.1617E+02
 MRCHDU: Convergence failed at  82  side 2    Res =  0.1269E+02
 Side 1  free  transition at x/c =  0.8176   68
 Side 2  free  transition at x/c =  0.2740   39

   5   rms: 0.3216E+00   max: 0.1074E+01   T at   65  2   RLX: 0.668
       a = -1.500      CL =  0.3970
      Cm = -0.1238     CD =  0.01729   =>   CDf =  0.00482    CDp =  0.01247

 Side 1  free  transition at x/c =  0.8160   67
 Side 2  free  transition at x/c =  0.2521   38

   6   rms: 0.1022E+00   max: -.7680E+00   T at   38  2   RLX: 0.651
       a = -1.500      CL =  0.4946
      Cm = -0.1551     CD =  0.01862   =>   CDf =  0.00841    CDp =  0.01021

 Side 1  free  transition at x/c =  0.8179   68
 Side 2  free  transition at x/c =  0.2748   39

   7   rms: 0.3482E-01   max: -.1932E+00   D at   39  2
       a = -1.500      CL =  0.5334
      Cm = -0.1688     CD =  0.01881   =>   CDf =  0.00792    CDp =  0.01088

 Side 1  free  transition at x/c =  0.8166   67
 Side 2  free  transition at x/c =  0.2844   40

   8   rms: 0.1427E-01   max: -.7476E-01   T at   67  1
       a = -1.500      CL =  0.5426
      Cm = -0.1703     CD =  0.01855   =>   CDf =  0.00764    CDp =  0.01090

 Side 1  free  transition at x/c =  0.8199   68
 Side 2  free  transition at x/c =  0.2866   40

   9   rms: 0.2558E-01   max: 0.1479E+00   D at   70  1
       a = -1.500      CL =  0.5335
      Cm = -0.1688     CD =  0.01882   =>   CDf =  0.00759    CDp =  0.01123

 Side 1  free  transition at x/c =  0.8165   67
 Side 2  free  transition at x/c =  0.2839   40

  10   rms: 0.1448E-01   max: -.7320E-01   T at   67  1
       a = -1.500      CL =  0.5424
      Cm = -0.1702     CD =  0.01856   =>   CDf =  0.00763    CDp =  0.01093

 Side 1  free  transition at x/c =  0.8198   68
 Side 2  free  transition at x/c =  0.2865   40

  11   rms: 0.2482E-01   max: 0.1430E+00   D at   70  1
       a = -1.500      CL =  0.5335
      Cm = -0.1688     CD =  0.01883   =>   CDf =  0.00760    CDp =  0.01123

 Side 1  free  transition at x/c =  0.8165   67
 Side 2  free  transition at x/c =  0.2839   40

  12   rms: 0.1443E-01   max: -.7317E-01   T at   67  1
       a = -1.500      CL =  0.5424
      Cm = -0.1702     CD =  0.01856   =>   CDf =  0.00763    CDp =  0.01093

 Side 1  free  transition at x/c =  0.8198   68
 Side 2  free  transition at x/c =  0.2865   40

  13   rms: 0.2483E-01   max: 0.1432E+00   D at   70  1
       a = -1.500      CL =  0.5335
      Cm = -0.1688     CD =  0.01883   =>   CDf =  0.00760    CDp =  0.01123

 Side 1  free  transition at x/c =  0.8165   67
 Side 2  free  transition at x/c =  0.2839   40

  14   rms: 0.1443E-01   max: -.7316E-01   T at   67  1
       a = -1.500      CL =  0.5424
      Cm = -0.1702     CD =  0.01856   =>   CDf =  0.00763    CDp =  0.01093

 Side 1  free  transition at x/c =  0.8198   68
 Side 2  free  transition at x/c =  0.2865   40

  15   rms: 0.2483E-01   max: 0.1432E+00   D at   70  1
       a = -1.500      CL =  0.5335
      Cm = -0.1688     CD =  0.01883   =>   CDf =  0.00760    CDp =  0.01123

 Side 1  free  transition at x/c =  0.8165   67
 Side 2  free  transition at x/c =  0.2839   40

  16   rms: 0.1444E-01   max: -.7317E-01   T at   67  1
       a = -1.500      CL =  0.5424
      Cm = -0.1702     CD =  0.01856   =>   CDf =  0.00763    CDp =  0.01093

 Side 1  free  transition at x/c =  0.8198   68
 Side 2  free  transition at x/c =  0.2865   40

  17   rms: 0.2484E-01   max: 0.1432E+00   D at   70  1
       a = -1.500      CL =  0.5335
      Cm = -0.1688     CD =  0.01883   =>   CDf =  0.00760    CDp =  0.01123

 Side 1  free  transition at x/c =  0.8165   67
 Side 2  free  transition at x/c =  0.2839   40

  18   rms: 0.1443E-01   max: -.7317E-01   T at   67  1
       a = -1.500      CL =  0.5424
      Cm = -0.1702     CD =  0.01856   =>   CDf =  0.00763    CDp =  0.01093

 Side 1  free  transition at x/c =  0.8198   68
 Side 2  free  transition at x/c =  0.2865   40

  19   rms: 0.2483E-01   max: 0.1432E+00   D at   70  1
       a = -1.500      CL =  0.5335
      Cm = -0.1688     CD =  0.01883   =>   CDf =  0.00760    CDp =  0.01123

 Side 1  free  transition at x/c =  0.8165   67
 Side 2  free  transition at x/c =  0.2839   40

  20   rms: 0.1443E-01   max: -.7317E-01   T at   67  1
       a = -1.500      CL =  0.5424
      Cm = -0.1702     CD =  0.01856   =>   CDf =  0.00763    CDp =  0.01093

 Side 1  free  transition at x/c =  0.8198   68
 Side 2  free  transition at x/c =  0.2865   40

  21   rms: 0.2483E-01   max: 0.1432E+00   D at   70  1
       a = -1.500      CL =  0.5335
      Cm = -0.1688     CD =  0.01883   =>   CDf =  0.00760    CDp =  0.01123

 Side 1  free  transition at x/c =  0.8165   67
 Side 2  free  transition at x/c =  0.2839   40

  22   rms: 0.1443E-01   max: -.7316E-01   T at   67  1
       a = -1.500      CL =  0.5424
      Cm = -0.1702     CD =  0.01856   =>   CDf =  0.00763    CDp =  0.01093

 Side 1  free  transition at x/c =  0.8198   68
 Side 2  free  transition at x/c =  0.2865   40

  23   rms: 0.2483E-01   max: 0.1432E+00   D at   70  1
       a = -1.500      CL =  0.5335
      Cm = -0.1688     CD =  0.01883   =>   CDf =  0.00760    CDp =  0.01123

 Side 1  free  transition at x/c =  0.8165   67
 Side 2  free  transition at x/c =  0.2839   40

  24   rms: 0.1443E-01   max: -.7317E-01   T at   67  1
       a = -1.500      CL =  0.5424
      Cm = -0.1702     CD =  0.01856   =>   CDf =  0.00763    CDp =  0.01093

 Side 1  free  transition at x/c =  0.8198   68
 Side 2  free  transition at x/c =  0.2865   40

  25   rms: 0.2483E-01   max: 0.1432E+00   D at   70  1
       a = -1.500      CL =  0.5335
      Cm = -0.1688     CD =  0.01883   =>   CDf =  0.00760    CDp =  0.01123

 Side 1  free  transition at x/c =  0.8165   67
 Side 2  free  transition at x/c =  0.2839   40

  26   rms: 0.1443E-01   max: -.7317E-01   T at   67  1
       a = -1.500      CL =  0.5424
      Cm = -0.1702     CD =  0.01856   =>   CDf =  0.00763    CDp =  0.01093

 Side 1  free  transition at x/c =  0.8198   68
 Side 2  free  transition at x/c =  0.2865   40

  27   rms: 0.2483E-01   max: 0.1432E+00   D at   70  1
       a = -1.500      CL =  0.5335
      Cm = -0.1688     CD =  0.01883   =>   CDf =  0.00760    CDp =  0.01123

 Side 1  free  transition at x/c =  0.8165   67
 Side 2  free  transition at x/c =  0.2839   40

  28   rms: 0.1443E-01   max: -.7315E-01   T at   67  1
       a = -1.500      CL =  0.5424
      Cm = -0.1702     CD =  0.01856   =>   CDf =  0.00763    CDp =  0.01093

 Side 1  free  transition at x/c =  0.8198   68
 Side 2  free  transition at x/c =  0.2865   40

  29   rms: 0.2483E-01   max: 0.1431E+00   D at   70  1
       a = -1.500      CL =  0.5335
      Cm = -0.1688     CD =  0.01883   =>   CDf =  0.00760    CDp =  0.01123

 Side 1  free  transition at x/c =  0.8165   67
 Side 2  free  transition at x/c =  0.2839   40

  30   rms: 0.1443E-01   max: -.7316E-01   T at   67  1
       a = -1.500      CL =  0.5424
      Cm = -0.1702     CD =  0.01856   =>   CDf =  0.00763    CDp =  0.01093

 Side 1  free  transition at x/c =  0.8198   68
 Side 2  free  transition at x/c =  0.2865   40

  31   rms: 0.2483E-01   max: 0.1432E+00   D at   70  1
       a = -1.500      CL =  0.5335
      Cm = -0.1688     CD =  0.01883   =>   CDf =  0.00760    CDp =  0.01123

 Side 1  free  transition at x/c =  0.8165   67
 Side 2  free  transition at x/c =  0.2839   40

  32   rms: 0.1443E-01   max: -.7316E-01   T at   67  1
       a = -1.500      CL =  0.5424
      Cm = -0.1702     CD =  0.01856   =>   CDf =  0.00763    CDp =  0.01093

 Side 1  free  transition at x/c =  0.8198   68
[...]
      Cm = -0.0917     CD =  0.04586   =>   CDf =  0.00723    CDp =  0.03862

 Side 1  free  transition at x/c =  0.1916   46
 Side 2 forced transition at x/c =  1.0000   65

   4   rms: 0.1138E-03   max: -.5055E-03   D at   78  2
       a = 13.000      CL =  1.5989
      Cm = -0.0917     CD =  0.04586   =>   CDf =  0.00722    CDp =  0.03863

 Side 1  free  transition at x/c =  0.1916   46
 Side 2 forced transition at x/c =  1.0000   65

   5   rms: 0.4414E-05   max: 0.6434E-04   C at   65  2
       a = 13.000      CL =  1.5989
      Cm = -0.0917     CD =  0.04586   =>   CDf =  0.00722    CDp =  0.03863
 plradd ia,ip,cpol           41           0  5.52587910E-04

 Point added to stored polar  1
 Point written to save file  goe501_Re150k.base.pol                          
 Dump file unspecified or not available
 Calculating wake trajectory ...
 Calculating source influence matrix ...

 Solving BL system ...

 Side 1  free  transition at x/c =  0.1916   46
 Side 2 forced transition at x/c =  1.0000   65

   1   rms: 0.3565E-01   max: 0.2190E+00   T at   46  1   RLX: 0.620
       a = 13.250      CL =  1.5995
      Cm = -0.0908     CD =  0.04749   =>   CDf =  0.00723    CDp =  0.04026

 Side 1  free  transition at x/c =  0.1837   46
 Side 2 forced transition at x/c =  1.0000   65

   2   rms: 0.1308E-01   max: -.1245E+00   D at   46  1
       a = 13.250      CL =  1.5973
      Cm = -0.0901     CD =  0.04853   =>   CDf =  0.00729    CDp =  0.04124

 Side 1  free  transition at x/c =  0.1807   46
 Side 2 forced transition at x/c =  1.0000   65

   3   rms: 0.1067E-02   max: -.6151E-02   C at   65  2
       a = 13.250      CL =  1.5974
      Cm = -0.0900     CD =  0.04843   =>   CDf =  0.00734    CDp =  0.04109

 Side 1  free  transition at x/c =  0.1805   46
 Side 2 forced transition at x/c =  1.0000   65

   4   rms: 0.4974E-04   max: -.3969E-03   D at   78  2
       a = 13.250      CL =  1.5974
      Cm = -0.0900     CD =  0.04844   =>   CDf =  0.00735    CDp =  0.04108
 plradd ia,ip,cpol           42           0  5.52587910E-04

 Point added to stored polar  1
 Point written to save file  goe501_Re150k.base.pol                          
 Dump file unspecified or not available
 Calculating wake trajectory ...
 Calculating source influence matrix ...

 Solving BL system ...

 Side 1  free  transition at x/c =  0.1805   46
 Side 2 forced transition at x/c =  1.0000   65

   1   rms: 0.4934E-01   max: -.2652E+00   D at   47  1   RLX: 0.603
       a = 13.500      CL =  1.6029
      Cm = -0.0890     CD =  0.04965   =>   CDf =  0.00736    CDp =  0.04230

 Side 1  free  transition at x/c =  0.1725   45
 Side 2 forced transition at x/c =  1.0000   65

   2   rms: 0.2666E-01   max: -.2067E+00   D at   45  1
       a = 13.500      CL =  1.5928
      Cm = -0.0885     CD =  0.05151   =>   CDf =  0.00737    CDp =  0.04414

 Side 1  free  transition at x/c =  0.1699   45
 Side 2 forced transition at x/c =  1.0000   65

   3   rms: 0.3974E-02   max: -.2593E-01   D at   79  1
       a = 13.500      CL =  1.5946
      Cm = -0.0886     CD =  0.05117   =>   CDf =  0.00723    CDp =  0.04394

 Side 1  free  transition at x/c =  0.1694   45
 Side 2 forced transition at x/c =  1.0000   65

   4   rms: 0.3800E-03   max: -.2456E-02   D at   79  2
       a = 13.500      CL =  1.5948
      Cm = -0.0886     CD =  0.05120   =>   CDf =  0.00724    CDp =  0.04396

 Side 1  free  transition at x/c =  0.1693   45
 Side 2 forced transition at x/c =  1.0000   65

   5   rms: 0.1527E-04   max: -.1343E-03   D at   79  2
       a = 13.500      CL =  1.5948
      Cm = -0.0886     CD =  0.05120   =>   CDf =  0.00724    CDp =  0.04396
 plradd ia,ip,cpol           43           0  5.52587910E-04

 Point added to stored polar  1
 Point written to save file  goe501_Re150k.base.pol                          
 Dump file unspecified or not available
 Calculating wake trajectory ...
 Calculating source influence matrix ...

 Solving BL system ...

 Side 1  free  transition at x/c =  0.1693   45
 Side 2 forced transition at x/c =  1.0000   65

   1   rms: 0.3951E-01   max: -.1965E+00   D at   46  1   RLX: 0.575
       a = 13.750      CL =  1.5943
      Cm = -0.0878     CD =  0.05294   =>   CDf =  0.00725    CDp =  0.04569

 Side 1  free  transition at x/c =  0.1635   44
 Side 2 forced transition at x/c =  1.0000   65

   2   rms: 0.1722E-01   max: -.1471E+00   C at   44  1
       a = 13.750      CL =  1.5919
      Cm = -0.0873     CD =  0.05425   =>   CDf =  0.00739    CDp =  0.04686

 Side 1  free  transition at x/c =  0.1586   44
 Side 2 forced transition at x/c =  1.0000   65

   3   rms: 0.3054E-02   max: -.1977E-01   D at   77  1
       a = 13.750      CL =  1.5929
      Cm = -0.0872     CD =  0.05397   =>   CDf =  0.00724    CDp =  0.04672

 Side 1  free  transition at x/c =  0.1585   44
 Side 2 forced transition at x/c =  1.0000   65

   4   rms: 0.3035E-03   max: -.2198E-02   D at   79  2
       a = 13.750      CL =  1.5930
      Cm = -0.0873     CD =  0.05400   =>   CDf =  0.00724    CDp =  0.04676

 Side 1  free  transition at x/c =  0.1585   44
 Side 2 forced transition at x/c =  1.0000   65

   5   rms: 0.9439E-05   max: 0.1347E-03   C at   65  2
       a = 13.750      CL =  1.5931
      Cm = -0.0873     CD =  0.05400   =>   CDf =  0.00724    CDp =  0.04676
 plradd ia,ip,cpol           44           0  5.52587910E-04

 Point added to stored polar  1
 Point written to save file  goe501_Re150k.base.pol                          
 Dump file unspecified or not available
 Calculating wake trajectory ...
 Calculating source influence matrix ...

 Solving BL system ...

 Side 1  free  transition at x/c =  0.1585   44
 Side 2 forced transition at x/c =  1.0000   65

   1   rms: 0.3659E-01   max: 0.2552E+00   T at   44  1   RLX: 0.555
       a = 14.000      CL =  1.5918
      Cm = -0.0867     CD =  0.05584   =>   CDf =  0.00679    CDp =  0.04904

 Side 1  free  transition at x/c =  0.1520   45
 Side 2 forced transition at x/c =  1.0000   64

   2   rms: 0.2187E-01   max: 0.2748E+00   T at    2  1
       a = 14.000      CL =  1.5907
      Cm = -0.0862     CD =  0.05701   =>   CDf =  0.00726    CDp =  0.04975

 Side 1  free  transition at x/c =  0.1489   45
 Side 2 forced transition at x/c =  1.0000   64

   3   rms: 0.3036E-02   max: -.1507E-01   D at   77  1
       a = 14.000      CL =  1.5917
      Cm = -0.0861     CD =  0.05675   =>   CDf =  0.00730    CDp =  0.04945

 Side 1  free  transition at x/c =  0.1484   45
 Side 2 forced transition at x/c =  1.0000   64

   4   rms: 0.3624E-03   max: 0.2030E-02   T at   45  1
       a = 14.000      CL =  1.5919
      Cm = -0.0861     CD =  0.05677   =>   CDf =  0.00733    CDp =  0.04944

 Side 1  free  transition at x/c =  0.1483   45
 Side 2 forced transition at x/c =  1.0000   64

   5   rms: 0.1211E-04   max: 0.1960E-03   C at   64  2
       a = 14.000      CL =  1.5919
      Cm = -0.0861     CD =  0.05678   =>   CDf =  0.00734    CDp =  0.04944
 plradd ia,ip,cpol           45           0  5.52587910E-04

 Point added to stored polar  1
 Point written to save file  goe501_Re150k.base.pol                          
 Dump file unspecified or not available
 Calculating wake trajectory ...
 Calculating source influence matrix ...

 Solving BL system ...

 Side 1  free  transition at x/c =  0.1483   45
 Side 2 forced transition at x/c =  1.0000   64

   1   rms: 0.6113E-01   max: 0.4388E+00   T at   45  1   RLX: 0.550
       a = 14.250      CL =  1.6029
      Cm = -0.0852     CD =  0.05730   =>   CDf =  0.00734    CDp =  0.04995

 Side 1  free  transition at x/c =  0.1402   44
 Side 2 forced transition at x/c =  1.0000   64

   2   rms: 0.3582E-01   max: -.2241E+00   D at   44  1
       a = 14.250      CL =  1.5866
      Cm = -0.0852     CD =  0.06046   =>   CDf =  0.00730    CDp =  0.05316

 Side 1  free  transition at x/c =  0.1400   44
 Side 2 forced transition at x/c =  1.0000   64

   3   rms: 0.2907E-02   max: 0.3048E-01   D at   76  1
       a = 14.250      CL =  1.5877
      Cm = -0.0853     CD =  0.05999   =>   CDf =  0.00710    CDp =  0.05288

 Side 1  free  transition at x/c =  0.1395   44
 Side 2 forced transition at x/c =  1.0000   64

   4   rms: 0.1061E-03   max: 0.9117E-03   C at   64  2
       a = 14.250      CL =  1.5877
      Cm = -0.0853     CD =  0.05999   =>   CDf =  0.00710    CDp =  0.05289

 Side 1  free  transition at x/c =  0.1395   44
 Side 2 forced transition at x/c =  1.0000   64

   5   rms: 0.8370E-05   max: 0.6140E-04   C at   64  2
       a = 14.250      CL =  1.5877
      Cm = -0.0853     CD =  0.05999   =>   CDf =  0.00710    CDp =  0.05289
 plradd ia,ip,cpol           46           0  3.48050526E-05

 Point added to stored polar  1
 Point written to save file  goe501_Re150k.base.pol                          
 Dump file unspecified or not available
 Calculating wake trajectory ...
 Calculating source influence matrix ...

 Solving BL system ...

 Side 1  free  transition at x/c =  0.1395   44
 Side 2 forced transition at x/c =  1.0000   64

   1   rms: 0.3448E-01   max: -.1296E+00   D at   45  1   RLX: 0.519
       a = 14.500      CL =  1.5869
      Cm = -0.0851     CD =  0.06179   =>   CDf =  0.00711    CDp =  0.05468

 Side 1  free  transition at x/c =  0.1351   44
 Side 2 forced transition at x/c =  1.0000   64

   2   rms: 0.1563E-01   max: -.1121E+00   D at   44  1
       a = 14.500      CL =  1.5863
      Cm = -0.0846     CD =  0.06312   =>   CDf =  0.00714    CDp =  0.05599

 Side 1  free  transition at x/c =  0.1325   43
 Side 2 forced transition at x/c =  1.0000   64

   3   rms: 0.2496E-02   max: 0.3398E-01   D at   44  1
       a = 14.500      CL =  1.5859
      Cm = -0.0846     CD =  0.06303   =>   CDf =  0.00715    CDp =  0.05588

 Side 1  free  transition at x/c =  0.1321   43
 Side 2 forced transition at x/c =  1.0000   64

   4   rms: 0.1373E-03   max: 0.8879E-03   D at   44  1
       a = 14.500      CL =  1.5858
      Cm = -0.0846     CD =  0.06302   =>   CDf =  0.00712    CDp =  0.05590

 Side 1  free  transition at x/c =  0.1321   43
 Side 2 forced transition at x/c =  1.0000   64

   5   rms: 0.1401E-04   max: -.8764E-04   C at   64  2
       a = 14.500      CL =  1.5858
      Cm = -0.0846     CD =  0.06302   =>   CDf =  0.00712    CDp =  0.05590
 plradd ia,ip,cpol           47           0  3.48050526E-05

 Point added to stored polar  1
 Point written to save file  goe501_Re150k.base.pol                          
 Dump file unspecified or not available
 Calculating wake trajectory ...
 Calculating source influence matrix ...

 Solving BL system ...

 Side 1  free  transition at x/c =  0.1321   43
 Side 2 forced transition at x/c =  1.0000   64

   1   rms: 0.3443E-01   max: -.2121E+00   C at   43  1   RLX: 0.504
       a = 14.750      CL =  1.5858
      Cm = -0.0845     CD =  0.06482   =>   CDf =  0.00712    CDp =  0.05770

 Side 1  free  transition at x/c =  0.1275   43
 Side 2 forced transition at x/c =  1.0000   64

   2   rms: 0.1506E-01   max: 0.7179E-01   T at   43  1
       a = 14.750      CL =  1.5853
      Cm = -0.0843     CD =  0.06631   =>   CDf =  0.00701    CDp =  0.05930

 Side 1  free  transition at x/c =  0.1242   43
 Side 2 forced transition at x/c =  1.0000   64

   3   rms: 0.1989E-02   max: -.1613E-01   D at   43  1
       a = 14.750      CL =  1.5844
      Cm = -0.0842     CD =  0.06616   =>   CDf =  0.00696    CDp =  0.05921

 Side 1  free  transition at x/c =  0.1246   43
 Side 2 forced transition at x/c =  1.0000   64

   4   rms: 0.2285E-03   max: -.1066E-02   D at   74  1
       a = 14.750      CL =  1.5845
      Cm = -0.0842     CD =  0.06615   =>   CDf =  0.00694    CDp =  0.05921

 Side 1  free  transition at x/c =  0.1246   43
 Side 2 forced transition at x/c =  1.0000   64

   5   rms: 0.2067E-04   max: -.1478E-03   D at   79  2
       a = 14.750      CL =  1.5845
      Cm = -0.0842     CD =  0.06615   =>   CDf =  0.00694    CDp =  0.05921
 plradd ia,ip,cpol           48           0  3.48050526E-05

 Point added to stored polar  1
 Point written to save file  goe501_Re150k.base.pol                          
 Dump file unspecified or not available
 Calculating wake trajectory ...
 Calculating source influence matrix ...

 Solving BL system ...

 Side 1  free  transition at x/c =  0.1246   43
 Side 2 forced transition at x/c =  1.0000   64

   1   rms: 0.3239E-01   max: -.1165E+00   D at   44  1   RLX: 0.490
       a = 15.000      CL =  1.5843
      Cm = -0.0842     CD =  0.06791   =>   CDf =  0.00695    CDp =  0.06097

 Side 1  free  transition at x/c =  0.1215   43
 Side 2 forced transition at x/c =  1.0000   64

   2   rms: 0.1612E-01   max: -.7030E-01   D at   44  1
       a = 15.000      CL =  1.5832
      Cm = -0.0840     CD =  0.06957   =>   CDf =  0.00696    CDp =  0.06261

 Side 1  free  transition at x/c =  0.1192   42
 Side 2 forced transition at x/c =  1.0000   64

   3   rms: 0.1961E-02   max: 0.2858E-01   D at   43  1
       a = 15.000      CL =  1.5830
      Cm = -0.0839     CD =  0.06934   =>   CDf =  0.00696    CDp =  0.06238

 Side 1  free  transition at x/c =  0.1189   42
 Side 2 forced transition at x/c =  1.0000   64

   4   rms: 0.7305E-04   max: 0.5843E-03   D at   43  1
       a = 15.000      CL =  1.5830
      Cm = -0.0839     CD =  0.06934   =>   CDf =  0.00694    CDp =  0.06240
 plradd ia,ip,cpol           49           0  3.48050526E-05

 Point added to stored polar  1
 Point written to save file  goe501_Re150k.base.pol                          
 Dump file unspecified or not available
 Calculating wake trajectory ...
 Calculating source influence matrix ...

 Solving BL system ...

 Side 1  free  transition at x/c =  0.1189   42
 Side 2 forced transition at x/c =  1.0000   64

   1   rms: 0.3155E-01   max: 0.1807E+00   T at   42  1   RLX: 0.477
       a = 15.250      CL =  1.5846
      Cm = -0.0839     CD =  0.07093   =>   CDf =  0.00694    CDp =  0.06398

 Side 1  free  transition at x/c =  0.1151   42
 Side 2 forced transition at x/c =  1.0000   64

   2   rms: 0.1558E-01   max: 0.6526E-01   T at   42  1
       a = 15.250      CL =  1.5843
      Cm = -0.0839     CD =  0.07267   =>   CDf =  0.00685    CDp =  0.06581

 Side 1  free  transition at x/c =  0.1121   42
 Side 2 forced transition at x/c =  1.0000   64

   3   rms: 0.2386E-02   max: -.1648E-01   D at   42  1
       a = 15.250      CL =  1.5829
      Cm = -0.0838     CD =  0.07254   =>   CDf =  0.00680    CDp =  0.06574

 Side 1  free  transition at x/c =  0.1125   42
 Side 2 forced transition at x/c =  1.0000   64

   4   rms: 0.1186E-03   max: -.5950E-03   D at   73  1
       a = 15.250      CL =  1.5829
      Cm = -0.0838     CD =  0.07252   =>   CDf =  0.00678    CDp =  0.06574

 Side 1  free  transition at x/c =  0.1125   42
 Side 2 forced transition at x/c =  1.0000   64

   5   rms: 0.1445E-04   max: 0.1608E-03   C at   64  2
       a = 15.250      CL =  1.5830
      Cm = -0.0838     CD =  0.07252   =>   CDf =  0.00678    CDp =  0.06574
 plradd ia,ip,cpol           50           0  3.48050526E-05

 Point added to stored polar  1
 Point written to save file  goe501_Re150k.base.pol                          
 Dump file unspecified or not available
 Calculating wake trajectory ...
 Calculating source influence matrix ...

 Solving BL system ...

 Side 1  free  transition at x/c =  0.1125   42
 Side 2 forced transition at x/c =  1.0000   64

   1   rms: 0.3145E-01   max: 0.1135E+00   D at   69  1   RLX: 0.463
       a = 15.500      CL =  1.5829
      Cm = -0.0839     CD =  0.07433   =>   CDf =  0.00678    CDp =  0.06754

 Side 1  free  transition at x/c =  0.1098   42
 Side 2 forced transition at x/c =  1.0000   64

   2   rms: 0.1698E-01   max: -.7848E-01   D at   42  1
       a = 15.500      CL =  1.5812
      Cm = -0.0840     CD =  0.07634   =>   CDf =  0.00679    CDp =  0.06955

 Side 1  free  transition at x/c =  0.1076   41
 Side 2 forced transition at x/c =  1.0000   64

   3   rms: 0.1678E-02   max: 0.1502E-01   D at   80  2
       a = 15.500      CL =  1.5801
      Cm = -0.0839     CD =  0.07606   =>   CDf =  0.00682    CDp =  0.06925

 Side 1  free  transition at x/c =  0.1077   41
 Side 2 forced transition at x/c =  1.0000   64

   4   rms: 0.4470E-04   max: 0.8314E-03   D at   80  2
       a = 15.500      CL =  1.5801
      Cm = -0.0839     CD =  0.07605   =>   CDf =  0.00681    CDp =  0.06924
 plradd ia,ip,cpol           51           0  3.48050526E-05

 Point added to stored polar  1
 Point written to save file  goe501_Re150k.base.pol                          
 Dump file unspecified or not available
 Calculating wake trajectory ...
 Calculating source influence matrix ...

 Solving BL system ...

 Side 1  free  transition at x/c =  0.1077   41
 Side 2 forced transition at x/c =  1.0000   64

   1   rms: 0.3070E-01   max: 0.1742E+00   T at   41  1   RLX: 0.452
       a = 15.750      CL =  1.5822
      Cm = -0.0839     CD =  0.07757   =>   CDf =  0.00682    CDp =  0.07075

 Side 1  free  transition at x/c =  0.1047   41
 Side 2 forced transition at x/c =  1.0000   64

   2   rms: 0.1614E-01   max: 0.7123E-01   T at   41  1
       a = 15.750      CL =  1.5821
      Cm = -0.0840     CD =  0.07951   =>   CDf =  0.00624    CDp =  0.07327

 Side 1  free  transition at x/c =  0.1017   42
 Side 2 forced transition at x/c =  1.0000   63

   3   rms: 0.4381E-02   max: -.6053E-01   T at    2  1
       a = 15.750      CL =  1.5803
      Cm = -0.0840     CD =  0.07938   =>   CDf =  0.00666    CDp =  0.07272

 Side 1  free  transition at x/c =  0.1021   42
 Side 2 forced transition at x/c =  1.0000   63

   4   rms: 0.1190E-02   max: -.1570E-01   D at    4  1
       a = 15.750      CL =  1.5804
      Cm = -0.0840     CD =  0.07934   =>   CDf =  0.00664    CDp =  0.07270

 Side 1  free  transition at x/c =  0.1021   42
 Side 2 forced transition at x/c =  1.0000   63

   5   rms: 0.1673E-04   max: 0.1714E-03   C at   63  2
       a = 15.750      CL =  1.5804
      Cm = -0.0840     CD =  0.07934   =>   CDf =  0.00664    CDp =  0.07270
 plradd ia,ip,cpol           52           0  3.48050526E-05

 Point added to stored polar  1
 Point written to save file  goe501_Re150k.base.pol                          
 Dump file unspecified or not available
 Calculating wake trajectory ...
 Calculating source influence matrix ...

 Solving BL system ...

 Side 1  free  transition at x/c =  0.1021   42
 Side 2 forced transition at x/c =  1.0000   63

   1   rms: 0.3065E-01   max: 0.1514E+00   T at   42  1   RLX: 0.440
       a = 16.000      CL =  1.5805
      Cm = -0.0841     CD =  0.08113   =>   CDf =  0.00665    CDp =  0.07448

 Side 1  free  transition at x/c =  0.0998   42
 Side 2 forced transition at x/c =  1.0000   63

   2   rms: 0.1749E-01   max: -.6494E-01   D at   43  1
       a = 16.000      CL =  1.5788
      Cm = -0.0844     CD =  0.08338   =>   CDf =  0.00664    CDp =  0.07674

 Side 1  free  transition at x/c =  0.0974   42
 Side 2 forced transition at x/c =  1.0000   63

   3   rms: 0.2073E-02   max: 0.1300E-01   D at   79  2
       a = 16.000      CL =  1.5774
      Cm = -0.0843     CD =  0.08306   =>   CDf =  0.00666    CDp =  0.07640

 Side 1  free  transition at x/c =  0.0976   42
 Side 2 forced transition at x/c =  1.0000   63

   4   rms: 0.1115E-03   max: -.5265E-03   D at   70  1
       a = 16.000      CL =  1.5775
      Cm = -0.0843     CD =  0.08304   =>   CDf =  0.00664    CDp =  0.07639

 Side 1  free  transition at x/c =  0.0976   42
 Side 2 forced transition at x/c =  1.0000   63

   5   rms: 0.1227E-04   max: 0.1409E-03   C at   63  2
       a = 16.000      CL =  1.5775
      Cm = -0.0843     CD =  0.08304   =>   CDf =  0.00665    CDp =  0.07640
 plradd ia,ip,cpol           53           0  3.48050526E-05

 Point added to stored polar  1
 Point written to save file  goe501_Re150k.base.pol                          
 Dump file unspecified or not available

.OPERva   c>  
 Polar accumulation disabled

.OPERv   c>  
 XFOIL   c>  
 XFOIL   c>  