
 ===================================================
  XFOIL Version 6.99
  Copyright (C) 2000   Mark Drela, Harold Youngren

  This software comes with ABSOLUTELY NO WARRANTY,
    subject to the GNU General Public License.

  Caveat computor
 ===================================================

 File  xfoil.def  not found

   QUIT    Exit program

  .OPER    Direct operating point(s)
  .MDES    Complex mapping design routine
  .QDES    Surface speed design routine
  .GDES    Geometry design routine

   SAVE f  Write airfoil to labeled coordinate file
   PSAV f  Write airfoil to plain coordinate file
   ISAV f  Write airfoil to ISES coordinate file
   MSAV f  Write airfoil to MSES coordinate file
   REVE    Reverse written-airfoil node ordering

   LOAD f  Read buffer airfoil from coordinate file
   NACA i  Set NACA 4,5-digit airfoil and buffer airfoil
   INTE    Set buffer airfoil by interpolating two airfoils
   NORM    Buffer airfoil normalization toggle
   XYCM rr Change CM reference location, currently  0.25000 0.00000

   BEND    Display structural properties of current airfoil

   PCOP    Set current-airfoil panel nodes directly from buffer airfoil points
   PANE    Set current-airfoil panel nodes ( 160 ) based on curvature
  .PPAR    Show/change paneling

  .PLOP    Plotting options

   WDEF f  Write  current-settings file
   RDEF f  Reread current-settings file
   NAME s  Specify new airfoil name
   NINC    Increment name version number

   Z       Zoom    | (available in all menus)
   U       Unzoom  | 

 XFOIL   c>  
 Labeled airfoil file.  Name:  GOE 57 AIRFOIL                                  

 Number of input coordinate points:  33
 Counterclockwise ordering
 Max thickness =     0.062869  at x =   0.200
 Max camber    =     0.050783  at x =   0.399

  LE  x,y  =  -0.00004   0.00068  |   Chord =   1.00004
  TE  x,y  =   1.00000   0.00000  |

 Current airfoil nodes set from buffer airfoil nodes (  33 )

 WARNING: Poor input coordinate distribution
          Excessive panel angle   88.7  at i =  17
          Repaneling with PANE and/or PPAR suggested
           (doing GDES,CADD before repaneling _may_
            improve excessively coarse LE spacing

 XFOIL   c>  
 XFOIL   c>  
 Blunt trailing edge.  Gap =  0.00170

 Paneling parameters used...
   Number of panel nodes       160
   Panel bunching parameter    1.000
   TE/LE panel density ratio   0.150
   Refined-area/LE panel density ratio    0.200
   Top    side refined area x/c limits  1.000 1.000
   Bottom side refined area x/c limits  1.000 1.000

 XFOIL   c>  
.OPERi   c>  
 Xtr/c     =  1.0000    top    side
 Xtr/c     =  1.0000    bottom side
 Ncrit     =    9.00   ( 0.070 % turb. level )
 Vacc      =  0.0100

 Klag  =  5.6000     Uxwt  =    1.00
 A     =  6.7000     B     =  0.7500       KCt = 0.01485
 CtiniK=  1.8000     CtiniX=  3.3000

..VPAR   c>  
..VPAR   c>  
.OPERi   c>  
 M  =    0.0000
 Re =    500000

.OPERv   c>  
.OPERv   c>  
.OPERv   c>  
 Polar  1 newly created for accumulation
 Airfoil archived with polar: GOE 57 AIRFOIL                                  

Enter  polar save filename  OR  <return> for no file   s>  
 New polar save file available

Enter  polar dump filename  OR  <return> for no file   s>  
 Polar dump file will NOT be written

 Polar accumulation enabled

.OPERva   c>   Calculating unit vorticity distributions ...
 Calculating wake trajectory ...
 Calculating source influence matrix ...

 Solving BL system ...

 Initializing BL ...
    side            1  ...
 MRCHUE: Inverse mode at  58     Hk =   4.160
 MRCHUE: Inverse mode at  59     Hk =   4.697
 MRCHUE: Inverse mode at  60     Hk =   5.228
 MRCHUE: Inverse mode at  61     Hk =   5.752
 MRCHUE: Inverse mode at  62     Hk =   6.270
 MRCHUE: Inverse mode at  63     Hk =   6.782
 MRCHUE: Inverse mode at  64     Hk =   7.288
 MRCHUE: Inverse mode at  65     Hk =   7.789
 MRCHUE: Inverse mode at  66     Hk =   7.909
 MRCHUE: Inverse mode at  67     Hk =   5.554
 MRCHUE: Inverse mode at  68     Hk =   4.070
 MRCHUE: Inverse mode at  69     Hk =   3.007
    side            2  ...
 MRCHUE: Inverse mode at  17     Hk =   4.386
 MRCHUE: Inverse mode at  18     Hk =   6.426
 MRCHUE: Convergence failed at  19  side 2    Res =  0.2158E+02
 MRCHUE: Inverse mode at  20     Hk =   4.415
 MRCHUE: Inverse mode at  21     Hk =   2.500
 MRCHUE: Inverse mode at  22     Hk =   2.500
 MRCHUE: Inverse mode at  23     Hk =   2.500

 MRCHDU: Convergence failed at  19  side 2    Res =  0.2911E+01
 MRCHDU: Convergence failed at  20  side 2    Res =  0.4218E+02
 MRCHDU: Convergence failed at  21  side 2    Res =  0.1353E+02
 MRCHDU: Convergence failed at  22  side 2    Res =  0.3874E+04
 MRCHDU: Convergence failed at  23  side 2    Res =  0.5487E+02
 MRCHDU: Convergence failed at  24  side 2    Res =  0.1844E+02
 MRCHDU: Convergence failed at  25  side 2    Res =  0.2451E+02
 MRCHDU: Convergence failed at  26  side 2    Res =  0.6189E+02
 MRCHDU: Convergence failed at  27  side 2    Res =  0.7621E+02
 MRCHDU: Convergence failed at  28  side 2    Res =  0.5674E+02
 MRCHDU: Convergence failed at  29  side 2    Res =  0.1375E+03
 MRCHDU: Convergence failed at  30  side 2    Res =  0.9394E+02
 MRCHDU: Convergence failed at  31  side 2    Res =  0.3031E+02
 MRCHDU: Convergence failed at  32  side 2    Res =  0.3415E+02
 MRCHDU: Convergence failed at  33  side 2    Res =  0.3747E+02
 MRCHDU: Convergence failed at  34  side 2    Res =  0.4930E+03
 MRCHDU: Convergence failed at  35  side 2    Res =  0.2007E+03
 MRCHDU: Convergence failed at  36  side 2    Res =  0.1872E+03
 MRCHDU: Convergence failed at  37  side 2    Res =  0.1877E+03
 MRCHDU: Convergence failed at  38  side 2    Res =  0.1895E+03
 MRCHDU: Convergence failed at  39  side 2    Res =  0.1921E+03
 MRCHDU: Convergence failed at  40  side 2    Res =  0.1980E+03
 MRCHDU: Convergence failed at  41  side 2    Res =  0.1993E+03
 MRCHDU: Convergence failed at  42  side 2    Res =  0.1996E+03
 MRCHDU: Convergence failed at  43  side 2    Res =  0.1917E+03
 MRCHDU: Convergence failed at  44  side 2    Res =  0.1794E+03
 MRCHDU: Convergence failed at  45  side 2    Res =  0.1549E+03
 MRCHDU: Convergence failed at  46  side 2    Res =  0.1318E+03
 MRCHDU: Convergence failed at  47  side 2    Res =  0.1125E+03
 MRCHDU: Convergence failed at  48  side 2    Res =  0.9839E+02
 MRCHDU: Convergence failed at  49  side 2    Res =  0.8808E+02
 MRCHDU: Convergence failed at  50  side 2    Res =  0.8000E+02
 MRCHDU: Convergence failed at  51  side 2    Res =  0.7438E+02
 MRCHDU: Convergence failed at  52  side 2    Res =  0.7109E+02
 MRCHDU: Convergence failed at  53  side 2    Res =  0.6812E+02
 MRCHDU: Convergence failed at  54  side 2    Res =  0.6643E+02
 MRCHDU: Convergence failed at  55  side 2    Res =  0.6552E+02
 MRCHDU: Convergence failed at  56  side 2    Res =  0.6457E+02
 MRCHDU: Convergence failed at  57  side 2    Res =  0.6466E+02
 MRCHDU: Convergence failed at  58  side 2    Res =  0.6526E+02
 MRCHDU: Convergence failed at  59  side 2    Res =  0.6706E+02
 MRCHDU: Convergence failed at  60  side 2    Res =  0.6918E+02
 MRCHDU: Convergence failed at  61  side 2    Res =  0.7144E+02
 MRCHDU: Convergence failed at  62  side 2    Res =  0.7384E+02
 MRCHDU: Convergence failed at  63  side 2    Res =  0.7590E+02
 MRCHDU: Convergence failed at  64  side 2    Res =  0.7749E+02
 MRCHDU: Convergence failed at  65  side 2    Res =  0.7654E+02
 MRCHDU: Convergence failed at  66  side 2    Res =  0.7451E+02
 MRCHDU: Convergence failed at  67  side 2    Res =  0.7146E+02
 MRCHDU: Convergence failed at  68  side 2    Res =  0.6907E+02
 MRCHDU: Convergence failed at  69  side 2    Res =  0.6676E+02
 MRCHDU: Convergence failed at  70  side 2    Res =  0.6483E+02
 MRCHDU: Convergence failed at  71  side 2    Res =  0.6379E+02
 MRCHDU: Convergence failed at  72  side 2    Res =  0.6351E+02
 MRCHDU: Convergence failed at  73  side 2    Res =  0.6381E+02
 MRCHDU: Convergence failed at  74  side 2    Res =  0.6467E+02
 MRCHDU: Convergence failed at  75  side 2    Res =  0.6569E+02
 MRCHDU: Convergence failed at  76  side 2    Res =  0.6625E+02
 MRCHDU: Convergence failed at  77  side 2    Res =  0.6738E+02
 MRCHDU: Convergence failed at  78  side 2    Res =  0.6736E+02
 MRCHDU: Convergence failed at  79  side 2    Res =  0.6394E+02
 MRCHDU: Convergence failed at  80  side 2    Res =  0.5959E+02
 MRCHDU: Convergence failed at  81  side 2    Res =  0.5611E+02
 MRCHDU: Convergence failed at  82  side 2    Res =  0.5061E+02
 MRCHDU: Convergence failed at  83  side 2    Res =  0.3658E+03
 MRCHDU: Convergence failed at  84  side 2    Res =  0.2594E+04
 MRCHDU: Convergence failed at  85  side 2    Res =  0.2171E+02
 MRCHDU: Convergence failed at  86  side 2    Res =  0.4081E+02
 Side 1  free  transition at x/c =  0.8767   66
 Side 2  free  transition at x/c =  0.0431   20

   1   rms: 0.1711E+01   max: 0.1065E+01   D at   88  2   RLX: 0.350
       a = -4.000      CL = -1.5790
      Cm =  0.3547     CD =  0.00512   =>   CDf =  0.00224    CDp =  0.00288

 MRCHDU: Convergence failed at  68  side 1    Res =  0.2125E+01
 MRCHDU: Convergence failed at  69  side 1    Res =  0.1518E+02
 Side 1  free  transition at x/c =  0.8955   68
 Side 2  free  transition at x/c =  0.0401   20

   2   rms: 0.7993E+00   max: -.6143E+00   U at   86  2   RLX: 0.298
       a = -4.000      CL = -0.8160
      Cm =  0.1274     CD =  0.01221   =>   CDf =  0.00766    CDp =  0.00455

 Side 1  free  transition at x/c =  0.9050   68
 Side 2  free  transition at x/c =  0.0394   20

   3   rms: 0.6559E+00   max: -.6058E+00   D at   87  2   RLX: 0.320
       a = -4.000      CL = -0.5049
      Cm =  0.0398     CD =  0.01207   =>   CDf =  0.00670    CDp =  0.00537

 MRCHDU: Convergence failed at  24  side 2    Res =  0.7198E+01
 MRCHDU: Convergence failed at  25  side 2    Res =  0.3977E+01
 MRCHDU: Convergence failed at  26  side 2    Res =  0.5055E+01
 MRCHDU: Convergence failed at  31  side 2    Res =  0.4039E+00
 Side 1  free  transition at x/c =  0.9104   69
 Side 2  free  transition at x/c =  0.0411   20

   4   rms: 0.1010E+01   max: -.3010E+01   C at   56  2   RLX: 0.157
       a = -4.000      CL = -0.4704
      Cm =  0.0098     CD =  0.01246   =>   CDf =  0.00586    CDp =  0.00659

 MRCHDU: Convergence failed at  43  side 2    Res =  0.4616E+01
 MRCHDU: Convergence failed at  44  side 2    Res =  0.6363E+00
 MRCHDU: Convergence failed at  45  side 2    Res =  0.5754E+00
 MRCHDU: Convergence failed at  46  side 2    Res =  0.8240E+00
 MRCHDU: Convergence failed at  47  side 2    Res =  0.1811E+01
 MRCHDU: Convergence failed at  50  side 2    Res =  0.5930E+02
 MRCHDU: Convergence failed at  51  side 2    Res =  0.3133E+01
 MRCHDU: Convergence failed at  52  side 2    Res =  0.3363E+01
 MRCHDU: Convergence failed at  53  side 2    Res =  0.1968E+02
 MRCHDU: Convergence failed at  54  side 2    Res =  0.5936E+01
 MRCHDU: Convergence failed at  55  side 2    Res =  0.5546E+00
 Side 1  free  transition at x/c =  0.9119   69
 Side 2  free  transition at x/c =  0.0430   20

   5   rms: 0.9532E+00   max: -.2175E+01   C at   74  2   RLX: 0.222
       a = -4.000      CL = -0.4969
      Cm =  0.0133     CD =  0.01431   =>   CDf =  0.00766    CDp =  0.00665

 MRCHDU: Convergence failed at  60  side 2    Res =  0.4054E+01
 MRCHDU: Convergence failed at  61  side 2    Res =  0.4945E+01
 MRCHDU: Convergence failed at  62  side 2    Res =  0.4383E+01
 MRCHDU: Convergence failed at  63  side 2    Res =  0.1112E+02
 MRCHDU: Convergence failed at  66  side 2    Res =  0.6201E+00
 MRCHDU: Convergence failed at  67  side 2    Res =  0.8801E+00
 MRCHDU: Convergence failed at  68  side 2    Res =  0.9570E+00
 MRCHDU: Convergence failed at  69  side 2    Res =  0.8724E+00
 MRCHDU: Convergence failed at  70  side 2    Res =  0.7610E+00
 MRCHDU: Convergence failed at  71  side 2    Res =  0.6616E+00
 MRCHDU: Convergence failed at  72  side 2    Res =  0.7380E+00
 MRCHDU: Convergence failed at  76  side 2    Res =  0.1593E+01
 MRCHDU: Convergence failed at  77  side 2    Res =  0.1388E+01
 MRCHDU: Convergence failed at  78  side 2    Res =  0.1449E+01
 MRCHDU: Convergence failed at  79  side 2    Res =  0.1564E+01
 MRCHDU: Convergence failed at  80  side 2    Res =  0.1818E+01
 MRCHDU: Convergence failed at  81  side 2    Res =  0.2104E+01
 MRCHDU: Convergence failed at  82  side 2    Res =  0.2556E+01
 MRCHDU: Convergence failed at  83  side 2    Res =  0.3625E+01
 MRCHDU: Convergence failed at  86  side 2    Res =  0.1607E+01
 Side 1  free  transition at x/c =  0.9083   69
 Side 2  free  transition at x/c =  0.0502   21

   6   rms: 0.1736E+01   max: 0.2234E+02   T at   21  2   RLX: 0.042
       a = -4.000      CL = -0.7240
      Cm =  0.1439     CD =  0.00837   =>   CDf =  0.00837    CDp = -0.00000

 MRCHDU: Convergence failed at  21  side 2    Res =  0.3159E+02
 MRCHDU: Convergence failed at  22  side 2    Res =  0.3053E+03
 MRCHDU: Convergence failed at  23  side 2    Res =  0.3667E+03
 MRCHDU: Convergence failed at  24  side 2    Res =  0.1125E+03
 MRCHDU: Convergence failed at  25  side 2    Res =  0.1833E+03
 MRCHDU: Convergence failed at  26  side 2    Res =  0.1239E+03
 MRCHDU: Convergence failed at  27  side 2    Res =  0.1521E+03
 MRCHDU: Convergence failed at  28  side 2    Res =  0.1966E+03
 MRCHDU: Convergence failed at  29  side 2    Res =  0.7662E+02
 MRCHDU: Convergence failed at  30  side 2    Res =  0.2099E+03
 MRCHDU: Convergence failed at  31  side 2    Res =  0.4592E+03
 MRCHDU: Convergence failed at  32  side 2    Res =  0.7484E+02
 MRCHDU: Convergence failed at  33  side 2    Res =  0.2197E+03
 MRCHDU: Convergence failed at  34  side 2    Res =  0.1657E+03
 MRCHDU: Convergence failed at  35  side 2    Res =  0.2902E+04
 MRCHDU: Convergence failed at  36  side 2    Res =  0.1134E+03
 MRCHDU: Convergence failed at  37  side 2    Res =  0.8146E+02
 MRCHDU: Convergence failed at  38  side 2    Res =  0.1167E+04
 MRCHDU: Convergence failed at  39  side 2    Res =  0.5572E+02
 MRCHDU: Convergence failed at  40  side 2    Res =  0.7504E+02
 MRCHDU: Convergence failed at  41  side 2    Res =  0.2349E+03
 MRCHDU: Convergence failed at  42  side 2    Res =  0.1387E+03
 MRCHDU: Convergence failed at  43  side 2    Res =  0.1348E+03
 MRCHDU: Convergence failed at  44  side 2    Res =  0.1367E+03
 MRCHDU: Convergence failed at  45  side 2    Res =  0.1307E+03
 MRCHDU: Convergence failed at  46  side 2    Res =  0.5875E+02
 MRCHDU: Convergence failed at  47  side 2    Res =  0.1322E+03
 MRCHDU: Convergence failed at  48  side 2    Res =  0.1713E+03
 MRCHDU: Convergence failed at  49  side 2    Res =  0.1274E+03
 MRCHDU: Convergence failed at  50  side 2    Res =  0.1266E+03
 MRCHDU: Convergence failed at  51  side 2    Res =  0.1204E+03
 MRCHDU: Convergence failed at  52  side 2    Res =  0.1243E+03
 MRCHDU: Convergence failed at  53  side 2    Res =  0.1089E+03
 MRCHDU: Convergence failed at  54  side 2    Res =  0.1269E+03
 MRCHDU: Convergence failed at  55  side 2    Res =  0.1071E+03
 MRCHDU: Convergence failed at  56  side 2    Res =  0.2097E+03
 MRCHDU: Convergence failed at  57  side 2    Res =  0.2200E+03
 MRCHDU: Convergence failed at  58  side 2    Res =  0.1818E+03
 MRCHDU: Convergence failed at  59  side 2    Res =  0.1042E+03
 MRCHDU: Convergence failed at  60  side 2    Res =  0.1039E+03
 MRCHDU: Convergence failed at  61  side 2    Res =  0.1037E+03
 MRCHDU: Convergence failed at  62  side 2    Res =  0.1036E+03
 MRCHDU: Convergence failed at  63  side 2    Res =  0.1034E+03
 MRCHDU: Convergence failed at  64  side 2    Res =  0.1346E+04
 MRCHDU: Convergence failed at  65  side 2    Res =  0.6330E+02
 MRCHDU: Convergence failed at  66  side 2    Res =  0.5872E+02
 MRCHDU: Convergence failed at  67  side 2    Res =  0.5668E+02
 MRCHDU: Convergence failed at  68  side 2    Res =  0.5521E+02
 MRCHDU: Convergence failed at  69  side 2    Res =  0.5461E+02
 MRCHDU: Convergence failed at  70  side 2    Res =  0.5400E+02
 MRCHDU: Convergence failed at  71  side 2    Res =  0.5355E+02
 MRCHDU: Convergence failed at  72  side 2    Res =  0.5193E+02
 MRCHDU: Convergence failed at  73  side 2    Res =  0.5350E+02
 MRCHDU: Convergence failed at  74  side 2    Res =  0.5852E+02
 MRCHDU: Convergence failed at  75  side 2    Res =  0.7069E+02
 MRCHDU: Convergence failed at  76  side 2    Res =  0.1034E+03
 MRCHDU: Convergence failed at  77  side 2    Res =  0.3952E+03
 MRCHDU: Convergence failed at  78  side 2    Res =  0.4126E+03
 MRCHDU: Convergence failed at  79  side 2    Res =  0.3559E+03
 MRCHDU: Convergence failed at  80  side 2    Res =  0.7851E+02
 MRCHDU: Convergence failed at  81  side 2    Res =  0.3296E+04
 MRCHDU: Convergence failed at  82  side 2    Res =  0.9078E+02
 MRCHDU: Convergence failed at  83  side 2    Res =  0.4964E+02
 MRCHDU: Convergence failed at  84  side 2    Res =  0.2095E+03
 MRCHDU: Convergence failed at  85  side 2    Res =  0.1945E+03
 MRCHDU: Convergence failed at  86  side 2    Res =  0.1867E+03
 Side 1  free  transition at x/c =  0.9090   69
 Side 2  free  transition at x/c =  0.0453   20

   7   rms: 0.2858E+01   max: 0.4422E+02   T at   20  2   RLX: 0.016
       a = -4.000      CL = -2.2267
      Cm =  0.5451     CD =  0.00355   =>   CDf =  0.00210    CDp =  0.00144

 MRCHDU: Convergence failed at  88  side 2    Res =  0.4444E+00
 MRCHDU: Convergence failed at  89  side 2    Res =  0.8828E+00
 MRCHDU: Convergence failed at  90  side 2    Res =  0.1177E+01
 MRCHDU: Convergence failed at  91  side 2    Res =  0.1432E+01
 MRCHDU: Convergence failed at  92  side 2    Res =  0.1651E+01
 MRCHDU: Convergence failed at  93  side 2    Res =  0.1844E+01
 MRCHDU: Convergence failed at  94  side 2    Res =  0.2010E+01
 MRCHDU: Convergence failed at  95  side 2    Res =  0.2152E+01
 MRCHDU: Convergence failed at  96  side 2    Res =  0.2276E+01
 MRCHDU: Convergence failed at  97  side 2    Res =  0.2388E+01
 MRCHDU: Convergence failed at  98  side 2    Res =  0.2486E+01
 MRCHDU: Convergence failed at  99  side 2    Res =  0.2571E+01
 MRCHDU: Convergence failed at 100  side 2    Res =  0.2643E+01
 MRCHDU: Convergence failed at 101  side 2    Res =  0.2702E+01
 MRCHDU: Convergence failed at 102  side 2    Res =  0.2751E+01
 MRCHDU: Convergence failed at 103  side 2    Res =  0.2786E+01
 MRCHDU: Convergence failed at 104  side 2    Res =  0.2810E+01
 MRCHDU: Convergence failed at 105  side 2    Res =  0.2823E+01
 MRCHDU: Convergence failed at 106  side 2    Res =  0.2823E+01
 MRCHDU: Convergence failed at 107  side 2    Res =  0.2811E+01
 MRCHDU: Convergence failed at 108  side 2    Res =  0.2792E+01
 Side 1  free  transition at x/c =  0.9096   69
 Side 2  free  transition at x/c =  0.0441   20

   8   rms: 0.1114E+01   max: 0.3894E+01   T at   21  2   RLX: 0.191
       a = -4.000      CL = -1.1658
      Cm =  0.2441     CD =  0.00748   =>   CDf =  0.00250    CDp =  0.00499

 Side 1  free  transition at x/c =  0.9019   68
 Side 2  free  transition at x/c =  0.0486   21

   9   rms: 0.9621E+00   max: 0.6691E+01   T at   21  2   RLX: 0.198
       a = -4.000      CL = -0.8526
      Cm =  0.1580     CD =  0.00479   =>   CDf =  0.00267    CDp =  0.00211

 Side 1  free  transition at x/c =  0.9046   69
 Side 2  free  transition at x/c =  0.0461   19
 idif Ue xi dudx           1  0.17795961      2.56717205E-03   69.321259    
 Uenew xinew           2  6.69362769E-03  9.65595245E-05

  10   rms: 0.2284E+01   max: 0.3286E+02   D at    2  1   RLX: 0.033
       a = -4.000      CL = -0.8807
      Cm =  0.1690     CD =  0.00710   =>   CDf =  0.00242    CDp =  0.00468

 Side 1  free  transition at x/c =  0.9061   68
 Side 2  free  transition at x/c =  0.0462   20

  11   rms: 0.2399E+01   max: 0.2467E+02   D at    2  2   RLX: 0.040
       a = -4.000      CL = -0.8456
      Cm =  0.1532     CD =  0.00732   =>   CDf =  0.00256    CDp =  0.00476

 Side 1  free  transition at x/c =  0.9107   69
 Side 2  free  transition at x/c =  0.0460   20

  12   rms: 0.5473E+01   max: 0.2279E+02   T at   23  2   RLX: 0.036
       a = -4.000      CL = -0.8592
      Cm =  0.1272     CD =  0.00471   =>   CDf =  0.00253    CDp =  0.00218

 MRCHDU: Convergence failed at  21  side 2    Res =  0.3215E+03
 MRCHDU: Convergence failed at  22  side 2    Res =  0.4468E+02
 MRCHDU: Convergence failed at  23  side 2    Res =  0.7264E+03
 MRCHDU: Convergence failed at  24  side 2    Res =  0.2392E+03
 MRCHDU: Convergence failed at  25  side 2    Res =  0.5923E+02
 MRCHDU: Convergence failed at  26  side 2    Res =  0.9942E+02
 MRCHDU: Convergence failed at  27  side 2    Res =  0.2915E+03
 MRCHDU: Convergence failed at  28  side 2    Res =  0.2202E+04
 MRCHDU: Convergence failed at  29  side 2    Res =  0.1647E+03
 MRCHDU: Convergence failed at  30  side 2    Res =  0.1218E+03
 MRCHDU: Convergence failed at  31  side 2    Res =  0.7598E+02
 MRCHDU: Convergence failed at  32  side 2    Res =  0.8198E+02
 MRCHDU: Convergence failed at  33  side 2    Res =  0.8945E+02
 MRCHDU: Convergence failed at  34  side 2    Res =  0.1080E+03
 MRCHDU: Convergence failed at  35  side 2    Res =  0.1258E+03
 MRCHDU: Convergence failed at  36  side 2    Res =  0.1510E+03
 MRCHDU: Convergence failed at  37  side 2    Res =  0.6583E+03
 MRCHDU: Convergence failed at  38  side 2    Res =  0.7149E+03
 MRCHDU: Convergence failed at  39  side 2    Res =  0.4677E+03
 MRCHDU: Convergence failed at  40  side 2    Res =  0.8357E+03
 MRCHDU: Convergence failed at  41  side 2    Res =  0.1725E+03
 MRCHDU: Convergence failed at  42  side 2    Res =  0.1876E+04
 MRCHDU: Convergence failed at  43  side 2    Res =  0.6413E+03
 MRCHDU: Convergence failed at  44  side 2    Res =  0.3866E+03
 MRCHDU: Convergence failed at  45  side 2    Res =  0.1515E+04
 MRCHDU: Convergence failed at  46  side 2    Res =  0.2109E+03
 MRCHDU: Convergence failed at  47  side 2    Res =  0.1729E+03
 MRCHDU: Convergence failed at  48  side 2    Res =  0.1454E+03
 MRCHDU: Convergence failed at  49  side 2    Res =  0.1253E+03
 MRCHDU: Convergence failed at  50  side 2    Res =  0.2382E+03
 MRCHDU: Convergence failed at  51  side 2    Res =  0.1291E+03
 MRCHDU: Convergence failed at  52  side 2    Res =  0.1949E+03
 MRCHDU: Convergence failed at  53  side 2    Res =  0.1149E+03
 MRCHDU: Convergence failed at  54  side 2    Res =  0.1239E+03
 MRCHDU: Convergence failed at  55  side 2    Res =  0.1509E+03
 MRCHDU: Convergence failed at  56  side 2    Res =  0.1551E+03
 MRCHDU: Convergence failed at  57  side 2    Res =  0.1767E+03
 MRCHDU: Convergence failed at  58  side 2    Res =  0.2053E+03
 MRCHDU: Convergence failed at  59  side 2    Res =  0.2726E+03
 MRCHDU: Convergence failed at  60  side 2    Res =  0.3618E+03
 MRCHDU: Convergence failed at  61  side 2    Res =  0.5339E+03
 MRCHDU: Convergence failed at  62  side 2    Res =  0.1553E+03
 MRCHDU: Convergence failed at  63  side 2    Res =  0.5435E+04
 MRCHDU: Convergence failed at  64  side 2    Res =  0.5512E+03
 MRCHDU: Convergence failed at  65  side 2    Res =  0.2447E+04
 MRCHDU: Convergence failed at  66  side 2    Res =  0.3418E+03
 MRCHDU: Convergence failed at  67  side 2    Res =  0.1573E+03
 MRCHDU: Convergence failed at  68  side 2    Res =  0.3488E+03
 MRCHDU: Convergence failed at  69  side 2    Res =  0.1331E+03
 MRCHDU: Convergence failed at  70  side 2    Res =  0.1782E+03
 MRCHDU: Convergence failed at  71  side 2    Res =  0.9549E+02
 MRCHDU: Convergence failed at  72  side 2    Res =  0.1028E+03
 MRCHDU: Convergence failed at  73  side 2    Res =  0.1183E+03
 MRCHDU: Convergence failed at  74  side 2    Res =  0.3488E+03
 MRCHDU: Convergence failed at  75  side 2    Res =  0.9627E+02
 MRCHDU: Convergence failed at  76  side 2    Res =  0.1288E+03
 MRCHDU: Convergence failed at  77  side 2    Res =  0.1425E+03
 MRCHDU: Convergence failed at  78  side 2    Res =  0.3180E+03
 MRCHDU: Convergence failed at  79  side 2    Res =  0.4169E+03
 MRCHDU: Convergence failed at  80  side 2    Res =  0.1301E+03
 MRCHDU: Convergence failed at  81  side 2    Res =  0.7440E+03
 MRCHDU: Convergence failed at  82  side 2    Res =  0.4189E+03
 MRCHDU: Convergence failed at  83  side 2    Res =  0.7754E+03
 MRCHDU: Convergence failed at  84  side 2    Res =  0.1669E+04
 MRCHDU: Convergence failed at  85  side 2    Res =  0.2259E+04
 MRCHDU: Convergence failed at  86  side 2    Res =  0.6042E+03
 Side 1  free  transition at x/c =  0.9169   69
 Side 2  free  transition at x/c =  0.0451   20

  13   rms: 0.1179E+01   max: -.1142E+01   D at  102  2   RLX: 0.427
       a = -4.000      CL = -1.2089
      Cm =  0.2856     CD =  0.00572   =>   CDf =  0.00222    CDp =  0.00350

 Side 1  free  transition at x/c =  0.9633   73
 Side 2  free  transition at x/c =  0.0419   19

  14   rms: 0.1205E+01   max: -.4585E+01   T at  107  2   RLX: 0.109
       a = -4.000      CL = -0.8643
      Cm =  0.1923     CD =  0.02680   =>   CDf =  0.00237    CDp =  0.02443

 Side 1  free  transition at x/c =  0.9356   71
 Side 2  free  transition at x/c =  0.0422   19

  15   rms: 0.1161E+01   max: -.5362E+01   T at  107  2   RLX: 0.093
       a = -4.000      CL = -0.7213
      Cm =  0.1602     CD =  0.01242   =>   CDf =  0.00240    CDp =  0.01002

 Side 1  free  transition at x/c =  0.9230   71
 Side 2  free  transition at x/c =  0.0424   19

  16   rms: 0.1067E+01   max: -.5300E+01   T at  106  2   RLX: 0.094
       a = -4.000      CL = -0.5960
      Cm =  0.1323     CD =  0.00349   =>   CDf =  0.00251    CDp =  0.00098

 Side 1  free  transition at x/c =  0.9176   71
 Side 2  free  transition at x/c =  0.0427   18

  17   rms: 0.1058E+01   max: -.5884E+01   T at  105  2   RLX: 0.085
       a = -4.000      CL = -0.4934
      Cm =  0.1086     CD =  0.00084   =>   CDf =  0.00243    CDp = -0.00159

 Side 1  free  transition at x/c =  0.9095   71
 Side 2  free  transition at x/c =  0.0429   18

  18   rms: 0.9688E+00   max: -.6126E+01   T at  104  2   RLX: 0.082
       a = -4.000      CL = -0.4060
      Cm =  0.0889     CD =  0.00235   =>   CDf =  0.00245    CDp = -0.00010

 Side 1  free  transition at x/c =  0.9047   70
 Side 2  free  transition at x/c =  0.0431   18

  19   rms: 0.1393E+01   max: 0.2434E+02   C at  105  2   RLX: 0.062
       a = -4.000      CL = -0.3489
      Cm =  0.0754     CD =  0.00225   =>   CDf =  0.00246    CDp = -0.00021

 Side 1  free  transition at x/c =  0.9010   70
 Side 2  free  transition at x/c =  0.0432   18

  20   rms: 0.1218E+01   max: 0.1417E+02   T at  105  2   RLX: 0.106
       a = -4.000      CL = -0.2595
      Cm =  0.0550     CD =  0.05434   =>   CDf =  0.00246    CDp =  0.05187

 MRCHDU: Convergence failed at 104  side 2    Res =  0.4399E-01
 Side 1  free  transition at x/c =  0.8949   70
 Side 2  free  transition at x/c =  0.0434   18

  21   rms: 0.5830E+00   max: 0.3346E+01   T at   85  2   RLX: 0.187
       a = -4.000      CL = -0.1460
      Cm =  0.0273     CD =  0.02137   =>   CDf =  0.00256    CDp =  0.01881

 Side 1  free  transition at x/c =  0.8940   71
 Side 2  free  transition at x/c =  0.0438   17

  22   rms: 0.7714E+00   max: 0.4854E+01   T at   84  2   RLX: 0.104
       a = -4.000      CL = -0.0893
      Cm =  0.0132     CD =  0.02455   =>   CDf =  0.00250    CDp =  0.02205

 Side 1  free  transition at x/c =  0.8918   70
 Side 2  free  transition at x/c =  0.0440   17

  23   rms: 0.3946E+02   max: -.6167E+03   C at  105  2   RLX: 0.001
       a = -4.000      CL = -0.0874
      Cm =  0.0124     CD =  0.01422   =>   CDf =  0.00251    CDp =  0.01171

 Side 1  free  transition at x/c =  0.8917   70
 Side 2  free  transition at x/c =  0.0440   17

  24   rms: 0.4765E+02   max: -.7474E+03   C at  105  2   RLX: 0.001
       a = -4.000      CL = -0.0870
      Cm =  0.0123     CD =  0.01435   =>   CDf =  0.00251    CDp =  0.01185

 Side 1  free  transition at x/c =  0.8917   70
 Side 2  free  transition at x/c =  0.0440   17

  25   rms: 0.5863E+02   max: -.9202E+03   C at  105  2   RLX: 0.001
       a = -4.000      CL = -0.0866
      Cm =  0.0123     CD =  0.01446   =>   CDf =  0.00251    CDp =  0.01196

 Side 1  free  transition at x/c =  0.8917   70
 Side 2  free  transition at x/c =  0.0440   17

  26   rms: 0.6385E+02   max: -.1002E+04   C at  105  2   RLX: 0.000
       a = -4.000      CL = -0.0863
      Cm =  0.0122     CD =  0.01456   =>   CDf =  0.00251    CDp =  0.01205

 Side 1  free  transition at x/c =  0.8916   70
 Side 2  free  transition at x/c =  0.0440   17

  27   rms: 0.6396E+02   max: -.1004E+04   C at  105  2   RLX: 0.000
       a = -4.000      CL = -0.0861
      Cm =  0.0121     CD =  0.01464   =>   CDf =  0.00251    CDp =  0.01213

 Side 1  free  transition at x/c =  0.8916   70
 Side 2  free  transition at x/c =  0.0440   17

  28   rms: 0.5721E+02   max: -.8976E+03   C at  105  2   RLX: 0.001
       a = -4.000      CL = -0.0858
      Cm =  0.0121     CD =  0.01471   =>   CDf =  0.00251    CDp =  0.01220

 Side 1  free  transition at x/c =  0.8916   70
 Side 2  free  transition at x/c =  0.0440   17

  29   rms: 0.7717E+02   max: -.1211E+04   C at  105  2   RLX: 0.000
       a = -4.000      CL = -0.0855
      Cm =  0.0120     CD =  0.01477   =>   CDf =  0.00251    CDp =  0.01227

 Side 1  free  transition at x/c =  0.8916   70
 Side 2  free  transition at x/c =  0.0440   17

  30   rms: 0.8090E+02   max: -.1269E+04   C at  105  2   RLX: 0.000
       a = -4.000      CL = -0.0853
      Cm =  0.0120     CD =  0.01483   =>   CDf =  0.00251    CDp =  0.01232

 Side 1  free  transition at x/c =  0.8916   70
 Side 2  free  transition at x/c =  0.0440   17

  31   rms: 0.7818E+02   max: -.1226E+04   C at  105  2   RLX: 0.000
       a = -4.000      CL = -0.0851
      Cm =  0.0119     CD =  0.01488   =>   CDf =  0.00251    CDp =  0.01237

 Side 1  free  transition at x/c =  0.8915   70
 Side 2  free  transition at x/c =  0.0440   17

  32   rms: 0.7426E+02   max: -.1164E+04   C at  105  2   RLX: 0.000
       a = -4.000      CL = -0.0849
      Cm =  0.0119     CD =  0.01493   =>   CDf =  0.00251    CDp =  0.01242

 Side 1  free  transition at x/c =  0.8915   70
 Side 2  free  transition at x/c =  0.0440   17

  33   rms: 0.7301E+02   max: -.1145E+04   C at  105  2   RLX: 0.000
       a = -4.000      CL = -0.0847
      Cm =  0.0118     CD =  0.01497   =>   CDf =  0.00251    CDp =  0.01247

 Side 1  free  transition at x/c =  0.8915   70
 Side 2  free  transition at x/c =  0.0440   17

  34   rms: 0.4040E+02   max: -.6331E+03   C at  105  2   RLX: 0.001
       a = -4.000      CL = -0.0843
      Cm =  0.0117     CD =  0.01501   =>   CDf =  0.00251    CDp =  0.01250

 Side 1  free  transition at x/c =  0.8915   70
 Side 2  free  transition at x/c =  0.0440   17

  35   rms: 0.6550E+02   max: -.1027E+04   C at  105  2   RLX: 0.000
       a = -4.000      CL = -0.0841
      Cm =  0.0117     CD =  0.01506   =>   CDf =  0.00251    CDp =  0.01255

 Side 1  free  transition at x/c =  0.8915   70
 Side 2  free  transition at x/c =  0.0440   17

  36   rms: 0.9322E+02   max: -.1461E+04   C at  105  2   RLX: 0.000
       a = -4.000      CL = -0.0839
      Cm =  0.0116     CD =  0.01509   =>   CDf =  0.00251    CDp =  0.01259

 Side 1  free  transition at x/c =  0.8915   70
 Side 2  free  transition at x/c =  0.0440   17

  37   rms: 0.2664E+02   max: -.4172E+03   C at  105  2   RLX: 0.001
       a = -4.000      CL = -0.0834
      Cm =  0.0115     CD =  0.01513   =>   CDf =  0.00251    CDp =  0.01262

 Side 1  free  transition at x/c =  0.8915   70
 Side 2  free  transition at x/c =  0.0441   17

  38   rms: 0.6774E+01   max: -.1059E+03   C at  103  2   RLX: 0.005
       a = -4.000      CL = -0.0815
      Cm =  0.0110     CD =  0.01521   =>   CDf =  0.00251    CDp =  0.01270

 Side 1  free  transition at x/c =  0.8915   70
 Side 2  free  transition at x/c =  0.0441   17

  39   rms: 0.3417E+03   max: 0.5356E+04   C at  105  2   RLX: 0.000
       a = -4.000      CL = -0.0814
      Cm =  0.0110     CD =  0.01517   =>   CDf =  0.00251    CDp =  0.01266

 Side 1  free  transition at x/c =  0.8915   70
 Side 2  free  transition at x/c =  0.0441   17

  40   rms: 0.2624E+03   max: 0.4114E+04   C at  105  2   RLX: 0.000
       a = -4.000      CL = -0.0813
      Cm =  0.0109     CD =  0.01509   =>   CDf =  0.00251    CDp =  0.01258

 Side 1  free  transition at x/c =  0.8915   70
 Side 2  free  transition at x/c =  0.0441   17

  41   rms: 0.1747E+03   max: 0.2739E+04   C at  105  2   RLX: 0.001
       a = -4.000      CL = -0.0812
      Cm =  0.0109     CD =  0.01499   =>   CDf =  0.00251    CDp =  0.01248

 Side 1  free  transition at x/c =  0.8916   70
 Side 2  free  transition at x/c =  0.0441   17

  42   rms: 0.9521E+02   max: 0.1494E+04   C at  105  2   RLX: 0.001
       a = -4.000      CL = -0.0809
      Cm =  0.0108     CD =  0.01487   =>   CDf =  0.00251    CDp =  0.01236

 Side 1  free  transition at x/c =  0.8916   70
 Side 2  free  transition at x/c =  0.0441   17

  43   rms: 0.1279E+03   max: 0.2008E+04   C at  105  2   RLX: 0.001
       a = -4.000      CL = -0.0807
      Cm =  0.0108     CD =  0.01469   =>   CDf =  0.00251    CDp =  0.01218

 Side 1  free  transition at x/c =  0.8916   70
 Side 2  free  transition at x/c =  0.0441   17

  44   rms: 0.1431E+03   max: 0.2248E+04   C at  105  2   RLX: 0.001
       a = -4.000      CL = -0.0807
      Cm =  0.0107     CD =  0.01441   =>   CDf =  0.00251    CDp =  0.01191

 Side 1  free  transition at x/c =  0.8917   70
 Side 2  free  transition at x/c =  0.0441   17

  45   rms: 0.1460E+03   max: 0.2295E+04   C at  105  2   RLX: 0.001
       a = -4.000      CL = -0.0808
      Cm =  0.0107     CD =  0.01397   =>   CDf =  0.00251    CDp =  0.01147

 Side 1  free  transition at x/c =  0.8919   70
 Side 2  free  transition at x/c =  0.0441   17

  46   rms: 0.6700E+02   max: 0.1052E+04   C at  105  2   RLX: 0.001
       a = -4.000      CL = -0.0810
      Cm =  0.0107     CD =  0.01318   =>   CDf =  0.00251    CDp =  0.01067

 Side 1  free  transition at x/c =  0.8921   70
 Side 2  free  transition at x/c =  0.0441   17

  47   rms: 0.1980E+02   max: 0.2766E+03   C at  105  2   RLX: 0.002
       a = -4.000      CL = -0.0811
      Cm =  0.0106     CD =  0.01212   =>   CDf =  0.00251    CDp =  0.00961

 Side 1  free  transition at x/c =  0.8925   70
 Side 2  free  transition at x/c =  0.0441   17

  48   rms: 0.1354E+03   max: -.1781E+04   C at  102  2   RLX: 0.000
       a = -4.000      CL = -0.0813
      Cm =  0.0106     CD =  0.01206   =>   CDf =  0.00251    CDp =  0.00955

 Side 1  free  transition at x/c =  0.8926   70
 Side 2  free  transition at x/c =  0.0441   17

  49   rms: 0.9478E+02   max: -.1208E+04   C at  103  2   RLX: 0.000
       a = -4.000      CL = -0.0813
      Cm =  0.0106     CD =  0.01208   =>   CDf =  0.00251    CDp =  0.00957

 Side 1  free  transition at x/c =  0.8926   70
 Side 2  free  transition at x/c =  0.0441   17

  50   rms: 0.5688E+03   max: -.7290E+04   C at  104  2   RLX: 0.000
       a = -4.000      CL = -0.0814
      Cm =  0.0106     CD =  0.01214   =>   CDf =  0.00251    CDp =  0.00963

 Side 1  free  transition at x/c =  0.8927   70
 Side 2  free  transition at x/c =  0.0441   17

  51   rms: 0.7397E+03   max: -.9456E+04   C at  105  2   RLX: 0.000
       a = -4.000      CL = -0.0815
      Cm =  0.0106     CD =  0.01218   =>   CDf =  0.00251    CDp =  0.00967

 Side 1  free  transition at x/c =  0.8927   70
 Side 2  free  transition at x/c =  0.0441   17

  52   rms: 0.1157E+04   max: -.1471E+05   C at  105  2   RLX: 0.000
       a = -4.000      CL = -0.0815
      Cm =  0.0106     CD =  0.01222   =>   CDf =  0.00251    CDp =  0.00971

 Side 1  free  transition at x/c =  0.8927   70
 Side 2  free  transition at x/c =  0.0441   17

  53   rms: 0.1229E+04   max: -.1553E+05   C at  105  2   RLX: 0.000
       a = -4.000      CL = -0.0816
      Cm =  0.0107     CD =  0.01226   =>   CDf =  0.00251    CDp =  0.00975

 Side 1  free  transition at x/c =  0.8928   70
 Side 2  free  transition at x/c =  0.0441   17

  54   rms: 0.1752E+04   max: -.2202E+05   C at  105  2   RLX: 0.000
       a = -4.000      CL = -0.0816
      Cm =  0.0107     CD =  0.01229   =>   CDf =  0.00251    CDp =  0.00978

 Side 1  free  transition at x/c =  0.8928   70
 Side 2  free  transition at x/c =  0.0441   17

  55   rms: 0.1158E+04   max: -.1449E+05   C at  105  2   RLX: 0.000
       a = -4.000      CL = -0.0816
      Cm =  0.0107     CD =  0.01231   =>   CDf =  0.00251    CDp =  0.00980

 Side 1  free  transition at x/c =  0.8928   70
 Side 2  free  transition at x/c =  0.0441   17

  56   rms: 0.2121E+04   max: -.2642E+05   C at  105  2   RLX: 0.000
       a = -4.000      CL = -0.0816
      Cm =  0.0107     CD =  0.01233   =>   CDf =  0.00251    CDp =  0.00983

 Side 1  free  transition at x/c =  0.8928   70
 Side 2  free  transition at x/c =  0.0441   17

  57   rms: 0.2375E+04   max: -.2948E+05   C at  105  2   RLX: 0.000
       a = -4.000      CL = -0.0817
      Cm =  0.0107     CD =  0.01235   =>   CDf =  0.00251    CDp =  0.00984

 Side 1  free  transition at x/c =  0.8928   70
 Side 2  free  transition at x/c =  0.0441   17

  58   rms: 0.3670E+04   max: -.4542E+05   C at  105  2   RLX: 0.000
       a = -4.000      CL = -0.0817
      Cm =  0.0107     CD =  0.01237   =>   CDf =  0.00251    CDp =  0.00986

 Side 1  free  transition at x/c =  0.8928   70
 Side 2  free  transition at x/c =  0.0441   17

  59   rms: 0.3763E+04   max: -.4647E+05   C at  105  2   RLX: 0.000
       a = -4.000      CL = -0.0817
      Cm =  0.0107     CD =  0.01238   =>   CDf =  0.00251    CDp =  0.00987

 Side 1  free  transition at x/c =  0.8928   70
 Side 2  free  transition at x/c =  0.0441   17

  60   rms: 0.3316E+04   max: -.4087E+05   C at  105  2   RLX: 0.000
       a = -4.000      CL = -0.0817
      Cm =  0.0107     CD =  0.01240   =>   CDf =  0.00251    CDp =  0.00989

 Side 1  free  transition at x/c =  0.8928   70
 Side 2  free  transition at x/c =  0.0441   17

  61   rms: 0.4829E+04   max: -.5942E+05   C at  105  2   RLX: 0.000
       a = -4.000      CL = -0.0817
      Cm =  0.0107     CD =  0.01241   =>   CDf =  0.00251    CDp =  0.00990

 Side 1  free  transition at x/c =  0.8928   70
 Side 2  free  transition at x/c =  0.0441   17

  62   rms: 0.5191E+04   max: -.6379E+05   C at  105  2   RLX: 0.000
       a = -4.000      CL = -0.0817
      Cm =  0.0107     CD =  0.01242   =>   CDf =  0.00251    CDp =  0.00991

 Side 1  free  transition at x/c =  0.8928   70
 Side 2  free  transition at x/c =  0.0441   17

  63   rms: 0.5247E+04   max: -.6440E+05   C at  105  2   RLX: 0.000
       a = -4.000      CL = -0.0817
      Cm =  0.0107     CD =  0.01242   =>   CDf =  0.00251    CDp =  0.00992

 Side 1  free  transition at x/c =  0.8928   70
 Side 2  free  transition at x/c =  0.0441   17

  64   rms: 0.6330E+04   max: -.7760E+05   C at  105  2   RLX: 0.000
       a = -4.000      CL = -0.0817
      Cm =  0.0107     CD =  0.01243   =>   CDf =  0.00251    CDp =  0.00992

 Side 1  free  transition at x/c =  0.8928   70
 Side 2  free  transition at x/c =  0.0441   17

  65   rms: 0.5870E+04   max: -.7190E+05   C at  105  2   RLX: 0.000
       a = -4.000      CL = -0.0817
      Cm =  0.0107     CD =  0.01244   =>   CDf =  0.00251    CDp =  0.00993

 Side 1  free  transition at x/c =  0.8928   70
 Side 2  free  transition at x/c =  0.0441   17

  66   rms: 0.6482E+04   max: -.7933E+05   C at  105  2   RLX: 0.000
       a = -4.000      CL = -0.0818
      Cm =  0.0107     CD =  0.01245   =>   CDf =  0.00251    CDp =  0.00994

 MRCHDU: Convergence failed at 103  side 2    Res =  0.3350E-01
 Side 1  free  transition at x/c =  0.8928   70
 Side 2  free  transition at x/c =  0.0441   17

  67   rms: 0.6607E+04   max: -.8081E+05   C at  105  2   RLX: 0.000
       a = -4.000      CL = -0.0818
      Cm =  0.0107     CD =  0.01245   =>   CDf =  0.00251    CDp =  0.00994

 MRCHDU: Convergence failed at 103  side 2    Res =  0.8574E-01
 Side 1  free  transition at x/c =  0.8928   70
 Side 2  free  transition at x/c =  0.0441   17

  68   rms: 0.1020E+05   max: -.1247E+06   C at  105  2   RLX: 0.000
       a = -4.000      CL = -0.0818
      Cm =  0.0107     CD =  0.01246   =>   CDf =  0.00251    CDp =  0.00995

 MRCHDU: Convergence failed at 103  side 2    Res =  0.1378E+00
 Side 1  free  transition at x/c =  0.8928   70
 Side 2  free  transition at x/c =  0.0441   17

  69   rms: 0.8855E+04   max: -.1138E+06   C at  104  2   RLX: 0.000
       a = -4.000      CL = -0.0818
      Cm =  0.0107     CD =  0.01281   =>   CDf =  0.00251    CDp =  0.01030

 MRCHDU: Convergence failed at 103  side 2    Res =  0.2248E-01
 Side 1  free  transition at x/c =  0.8929   70
 Side 2  free  transition at x/c =  0.0441   17

  70   rms: 0.1102E+05   max: -.1411E+06   C at  105  2   RLX: 0.000
       a = -4.000      CL = -0.0818
      Cm =  0.0107     CD =  0.01283   =>   CDf =  0.00251    CDp =  0.01032

 MRCHDU: Convergence failed at 103  side 2    Res =  0.6981E-01
 Side 1  free  transition at x/c =  0.8929   70
 Side 2  free  transition at x/c =  0.0441   17

  71   rms: 0.1116E+05   max: -.1423E+06   C at  105  2   RLX: 0.000
       a = -4.000      CL = -0.0818
      Cm =  0.0107     CD =  0.01283   =>   CDf =  0.00251    CDp =  0.01032

 MRCHDU: Convergence failed at 102  side 2    Res =  0.2030E-01
 MRCHDU: Convergence failed at 103  side 2    Res =  0.9712E-01
 Side 1  free  transition at x/c =  0.8929   70
 Side 2  free  transition at x/c =  0.0441   17

  72   rms: 0.1311E+05   max: -.1666E+06   C at  105  2   RLX: 0.000
       a = -4.000      CL = -0.0818
      Cm =  0.0107     CD =  0.01284   =>   CDf =  0.00251    CDp =  0.01033

 MRCHDU: Convergence failed at 102  side 2    Res =  0.6810E-01
 MRCHDU: Convergence failed at 103  side 2    Res =  0.9718E-01
 Side 1  free  transition at x/c =  0.8929   70
 Side 2  free  transition at x/c =  0.0441   17

  73   rms: 0.1416E+05   max: -.1794E+06   C at  105  2   RLX: 0.000
       a = -4.000      CL = -0.0818
      Cm =  0.0107     CD =  0.01284   =>   CDf =  0.00251    CDp =  0.01033

 MRCHDU: Convergence failed at 101  side 2    Res =  0.3439E-01
 MRCHDU: Convergence failed at 102  side 2    Res =  0.8177E-01
 MRCHDU: Convergence failed at 103  side 2    Res =  0.9724E-01
 Side 1  free  transition at x/c =  0.8929   70
 Side 2  free  transition at x/c =  0.0441   17

  74   rms: 0.1565E+05   max: -.1976E+06   C at  105  2   RLX: 0.000
       a = -4.000      CL = -0.0818
      Cm =  0.0107     CD =  0.01284   =>   CDf =  0.00251    CDp =  0.01033

 MRCHDU: Convergence failed at 101  side 2    Res =  0.8252E-01
 MRCHDU: Convergence failed at 102  side 2    Res =  0.8182E-01
 MRCHDU: Convergence failed at 103  side 2    Res =  0.9730E-01
 Side 1  free  transition at x/c =  0.8929   70
 Side 2  free  transition at x/c =  0.0441   17

  75   rms: 0.1611E+05   max: -.2028E+06   C at  105  2   RLX: 0.000
       a = -4.000      CL = -0.0818
      Cm =  0.0107     CD =  0.01285   =>   CDf =  0.00251    CDp =  0.01034

 MRCHDU: Convergence failed at 101  side 2    Res =  0.1308E+00
 MRCHDU: Convergence failed at 102  side 2    Res =  0.2061E+01
 MRCHDU: Convergence failed at 103  side 2    Res =  0.4402E+01
 Side 1  free  transition at x/c =  0.8929   70
 Side 2  free  transition at x/c =  0.0441   17
 idif Ue xi dudx           1  0.20156947      2.01177597E-03   100.19479    
 Uenew xinew           2  3.02784182E-02  3.02195549E-04

  76   rms: 0.5437E+01   max: 0.5090E+02   T at  100  2   RLX: 0.029
       a = -4.000      CL = -0.1209
      Cm =  0.0158     CD =  0.02011   =>   CDf =  0.00246    CDp =  0.01765

 Side 1  free  transition at x/c =  0.9133   71
 Side 2  free  transition at x/c =  0.0440   18

  77   rms: 0.7340E+00   max: -.4092E+01   T at  105  2   RLX: 0.122
       a = -4.000      CL = -0.0601
      Cm =  0.0013     CD =  0.02880   =>   CDf =  0.00244    CDp =  0.02636

 Side 1  free  transition at x/c =  0.9083   71
 Side 2  free  transition at x/c =  0.0442   18

  78   rms: 0.5213E+00   max: 0.4890E+01   T at   85  2   RLX: 0.209
       a = -4.000      CL =  0.0155
      Cm = -0.0175     CD =  0.01608   =>   CDf =  0.00254    CDp =  0.01354

 Side 1  free  transition at x/c =  0.9046   71
 Side 2  free  transition at x/c =  0.0445   17
 idif Ue xi dudx           1  0.21064810      2.16734409E-03   97.191811    
 Uenew xinew           2  4.44908813E-02  4.57763672E-04

  79   rms: 0.1846E+01   max: 0.1391E+02   T at  102  2   RLX: 0.093
       a = -4.000      CL = -0.0125
      Cm = -0.0172     CD =  0.00136   =>   CDf =  0.00244    CDp = -0.00108

 Side 1  free  transition at x/c =  0.9345   72
 Side 2  free  transition at x/c =  0.0441   18

  80   rms: 0.1857E+01   max: -.1602E+02   T at  106  2   RLX: 0.031
       a = -4.000      CL =  0.0221
      Cm = -0.0253     CD =  0.00002   =>   CDf =  0.00238    CDp = -0.00236

 Side 1  free  transition at x/c =  0.9263   72
 Side 2  free  transition at x/c =  0.0443   18

  81   rms: 0.1082E+01   max: -.9429E+01   T at  105  2   RLX: 0.053
       a = -4.000      CL =  0.0547
      Cm = -0.0317     CD =  0.00006   =>   CDf =  0.00248    CDp = -0.00241

 Side 1  free  transition at x/c =  0.9188   72
 Side 2  free  transition at x/c =  0.0444   17

  82   rms: 0.2133E+01   max: -.2388E+02   D at    2  1   RLX: 0.021
       a = -4.000      CL =  0.0711
      Cm = -0.0349     CD =  0.00006   =>   CDf =  0.00246    CDp = -0.00239

 MRCHDU: Convergence failed at 105  side 2    Res =  0.9012E-03
 Side 1  free  transition at x/c =  0.9111   72
 Side 2  free  transition at x/c =  0.0445   17

  83   rms: 0.2689E+01   max: 0.4207E+02   T at  105  2   RLX: 0.036
       a = -4.000      CL =  0.0923
      Cm = -0.0386     CD =  0.01335   =>   CDf =  0.00248    CDp =  0.01087

 Side 1  free  transition at x/c =  0.9033   71
 Side 2  free  transition at x/c =  0.0446   17

  84   rms: 0.2385E+01   max: 0.4535E+02   C at  104  2   RLX: 0.033
       a = -4.000      CL =  0.1058
      Cm = -0.0414     CD =  0.00730   =>   CDf =  0.00249    CDp =  0.00481

 Side 1  free  transition at x/c =  0.8991   71
 Side 2  free  transition at x/c =  0.0446   17

  85   rms: 0.1303E+01   max: 0.1646E+02   T at  104  2   RLX: 0.066
       a = -4.000      CL =  0.1290
      Cm = -0.0465     CD =  0.03798   =>   CDf =  0.00250    CDp =  0.03548

 Side 1  free  transition at x/c =  0.8939   71
 Side 2  free  transition at x/c =  0.0447   17

  86   rms: 0.1515E+02   max: 0.2387E+03   C at  103  2   RLX: 0.006
       a = -4.000      CL =  0.1353
      Cm = -0.0473     CD =  0.11988   =>   CDf =  0.00252    CDp =  0.11736

 MRCHDU: Convergence failed at 102  side 2    Res =  0.2836E-01
 Side 1  free  transition at x/c =  0.8910   70
 Side 2  free  transition at x/c =  0.0448   17

  87   rms: 0.2037E+01   max: -.2292E+02   T at  103  2   RLX: 0.022
       a = -4.000      CL =  0.1378
      Cm = -0.0484     CD =  0.03211   =>   CDf =  0.00252    CDp =  0.02958

 MRCHDU: Convergence failed at 102  side 2    Res =  0.5788E-02
 MRCHDU: Convergence failed at 103  side 2    Res =  0.2959E-01
 Side 1  free  transition at x/c =  0.8920   70
 Side 2  free  transition at x/c =  0.0448   17

  88   rms: 0.1401E+02   max: 0.1850E+03   T at  105  2   RLX: 0.008
       a = -4.000      CL =  0.1464
      Cm = -0.0494     CD =  0.25898   =>   CDf =  0.00253    CDp =  0.25645

 MRCHDU: Convergence failed at 102  side 2    Res =  0.3687E-01
 Side 1  free  transition at x/c =  0.8859   70
 Side 2  free  transition at x/c =  0.0448   17

  89   rms: 0.7994E+01   max: -.8597E+02   C at  103  2   RLX: 0.006
       a = -4.000      CL =  0.1440
      Cm = -0.0494     CD =  0.04801   =>   CDf =  0.00252    CDp =  0.04549

 MRCHDU: Convergence failed at 102  side 2    Res =  0.8286E-02
 MRCHDU: Convergence failed at 103  side 2    Res =  0.1441E-01
 Side 1  free  transition at x/c =  0.8882   70
 Side 2  free  transition at x/c =  0.0448   17

  90   rms: 0.4381E+01   max: 0.5252E+02   T at  105  2   RLX: 0.029
       a = -4.000      CL =  0.1581
      Cm = -0.0514     CD =  0.34848   =>   CDf =  0.00253    CDp =  0.34596

 MRCHDU: Convergence failed at 101  side 2    Res =  0.1022E-01
 MRCHDU: Convergence failed at 102  side 2    Res =  0.4501E+00
 Side 1  free  transition at x/c =  0.8803   70
 Side 2  free  transition at x/c =  0.0449   17

  91   rms: 0.8165E+00   max: -.7494E+01   T at  103  2   RLX: 0.067
       a = -4.000      CL =  0.1664
      Cm = -0.0543     CD =  0.06438   =>   CDf =  0.00254    CDp =  0.06184

 MRCHDU: Convergence failed at 103  side 2    Res =  0.2732E-01
 Side 1  free  transition at x/c =  0.8813   70
 Side 2  free  transition at x/c =  0.0449   17

  92   rms: 0.6376E+00   max: 0.6445E+01   T at   84  2   RLX: 0.122
       a = -4.000      CL =  0.1769
      Cm = -0.0588     CD =  0.03073   =>   CDf =  0.00254    CDp =  0.02819

 MRCHDU: Convergence failed at 100  side 2    Res =  0.1461E-02
 MRCHDU: Convergence failed at 101  side 2    Res =  0.5876E-01
 MRCHDU: Convergence failed at 102  side 2    Res =  0.6491E+00
 Side 1  free  transition at x/c =  0.8828   70
 Side 2  free  transition at x/c =  0.0451   17

  93   rms: 0.7342E+01   max: -.9415E+02   T at  103  2   RLX: 0.005
       a = -4.000      CL =  0.1773
      Cm = -0.0596     CD =  0.02585   =>   CDf =  0.00254    CDp =  0.02331

 MRCHDU: Convergence failed at 100  side 2    Res =  0.1038E-02
 MRCHDU: Convergence failed at 101  side 2    Res =  0.7609E-01
 MRCHDU: Convergence failed at 102  side 2    Res =  0.5757E+00
 MRCHDU: Convergence failed at 103  side 2    Res =  0.4448E-01
 MRCHDU: Convergence failed at 104  side 2    Res =  0.2097E+00
 MRCHDU: Convergence failed at 105  side 2    Res =  0.1474E+01
 Side 1  free  transition at x/c =  0.8840   70
 Side 2  free  transition at x/c =  0.0451   17

  94   rms: 0.1086E+02   max: -.2470E+03   T at  105  2   RLX: 0.002
       a = -4.000      CL =  0.1765
      Cm = -0.0596     CD =  0.00000   =>   CDf =  0.00254    CDp = -0.00253

 MRCHDU: Convergence failed at 100  side 2    Res =  0.9487E-03
 MRCHDU: Convergence failed at 101  side 2    Res =  0.7631E-01
 Side 1  free  transition at x/c =  0.8847   70
 Side 2  free  transition at x/c =  0.0451   17

  95   rms: 0.1828E+03   max: 0.3211E+04   T at  105  2   RLX: 0.000
       a = -4.000      CL =  0.1759
      Cm = -0.0596     CD =  0.00099   =>   CDf =  0.00254    CDp = -0.00154

 MRCHDU: Convergence failed at 100  side 2    Res =  0.9452E-03
 MRCHDU: Convergence failed at 101  side 2    Res =  0.7556E-01
 Side 1  free  transition at x/c =  0.8851   70
 Side 2  free  transition at x/c =  0.0451   17

  96   rms: 0.1514E+02   max: 0.3922E+03   C at  105  2   RLX: 0.004
       a = -4.000      CL =  0.1776
      Cm = -0.0598     CD =  0.00111   =>   CDf =  0.00253    CDp = -0.00142

 MRCHDU: Convergence failed at 100  side 2    Res =  0.1359E-02
 MRCHDU: Convergence failed at 101  side 2    Res =  0.5830E-01
 MRCHDU: Convergence failed at 102  side 2    Res =  0.8930E+00
 MRCHDU: Convergence failed at 103  side 2    Res =  0.2404E+00
 MRCHDU: Convergence failed at 104  side 2    Res =  0.1131E+01
 MRCHDU: Convergence failed at 105  side 2    Res =  0.1525E+00
 Side 1  free  transition at x/c =  0.8843   70
 Side 2  free  transition at x/c =  0.0451   17

  97   rms: 0.4073E+02   max: -.7312E+03   C at  105  2   RLX: 0.001
       a = -4.000      CL =  0.1765
      Cm = -0.0598     CD =  0.00062   =>   CDf =  0.00254    CDp = -0.00191

 MRCHDU: Convergence failed at 100  side 2    Res =  0.1463E-02
 MRCHDU: Convergence failed at 101  side 2    Res =  0.4984E-01
 MRCHDU: Convergence failed at 102  side 2    Res =  0.1839E+01
 MRCHDU: Convergence failed at 103  side 2    Res =  0.3425E+00
 MRCHDU: Convergence failed at 104  side 2    Res =  0.1323E+01
 MRCHDU: Convergence failed at 105  side 2    Res =  0.9740E-01
 Side 1  free  transition at x/c =  0.8851   70
 Side 2  free  transition at x/c =  0.0451   17

  98   rms: 0.1233E+02   max: 0.2571E+03   C at  105  2   RLX: 0.006
       a = -4.000      CL =  0.1818
      Cm = -0.0603     CD =  0.01169   =>   CDf =  0.00254    CDp =  0.00915

 MRCHDU: Convergence failed at 100  side 2    Res =  0.1365E-02
 MRCHDU: Convergence failed at 101  side 2    Res =  0.5232E-01
 MRCHDU: Convergence failed at 102  side 2    Res =  0.1159E+00
 MRCHDU: Convergence failed at 103  side 2    Res =  0.2642E+01
 MRCHDU: Convergence failed at 104  side 2    Res =  0.8849E-01
 Side 1  free  transition at x/c =  0.8816   70
 Side 2  free  transition at x/c =  0.0451   17

  99   rms: 0.1471E+03   max: -.3943E+04   C at  105  2   RLX: 0.000
       a = -4.000      CL =  0.1814
      Cm = -0.0602     CD =  0.00988   =>   CDf =  0.00254    CDp =  0.00734

 MRCHDU: Convergence failed at 100  side 2    Res =  0.1352E-02
 MRCHDU: Convergence failed at 101  side 2    Res =  0.5240E-01
 MRCHDU: Convergence failed at 102  side 2    Res =  0.1686E+00
 MRCHDU: Convergence failed at 103  side 2    Res =  0.1397E+00
 MRCHDU: Convergence failed at 104  side 2    Res =  0.8607E-01
 MRCHDU: Convergence failed at 105  side 2    Res =  0.5088E+00
 Side 1  free  transition at x/c =  0.8818   70
 Side 2  free  transition at x/c =  0.0451   17

 100   rms: 0.5779E+02   max: -.1221E+04   T at  105  2   RLX: 0.000
       a = -4.000      CL =  0.1801
      Cm = -0.0602     CD =  0.00000   =>   CDf =  0.00254    CDp = -0.00254

 MRCHDU: Convergence failed at 100  side 2    Res =  0.1313E-02
 MRCHDU: Convergence failed at 101  side 2    Res =  0.5273E-01
 MRCHDU: Convergence failed at 102  side 2    Res =  0.1767E+00
 MRCHDU: Convergence failed at 103  side 2    Res =  0.1399E+00
 MRCHDU: Convergence failed at 104  side 2    Res =  0.7780E-01
 MRCHDU: Convergence failed at 105  side 2    Res =  0.5347E-02
 Side 1  free  transition at x/c =  0.8826   70
 Side 2  free  transition at x/c =  0.0451   17

 101   rms: 0.3514E+02   max: -.8494E+03   T at  105  2   RLX: 0.001
       a = -4.000      CL =  0.1795
      Cm = -0.0601     CD =  0.00000   =>   CDf =  0.00254    CDp = -0.00254

 MRCHDU: Convergence failed at 100  side 2    Res =  0.1277E-02
 MRCHDU: Convergence failed at 101  side 2    Res =  0.5326E-01
 MRCHDU: Convergence failed at 102  side 2    Res =  0.1859E+00
 MRCHDU: Convergence failed at 103  side 2    Res =  0.1406E+00
 MRCHDU: Convergence failed at 104  side 2    Res =  0.5108E-01
 MRCHDU: Convergence failed at 105  side 2    Res =  0.1755E-02
 Side 1  free  transition at x/c =  0.8831   70
 Side 2  free  transition at x/c =  0.0451   17

 102   rms: 0.2591E+03   max: -.6330E+04   T at  105  2   RLX: 0.000
       a = -4.000      CL =  0.1794
      Cm = -0.0601     CD =  0.00000   =>   CDf =  0.00254    CDp = -0.00254

 MRCHDU: Convergence failed at 100  side 2    Res =  0.1267E-02
 MRCHDU: Convergence failed at 101  side 2    Res =  0.5357E-01
 MRCHDU: Convergence failed at 102  side 2    Res =  0.2016E+00
 MRCHDU: Convergence failed at 103  side 2    Res =  0.1407E+00
 MRCHDU: Convergence failed at 104  side 2    Res =  0.3177E-01
 MRCHDU: Convergence failed at 105  side 2    Res =  0.5274E-03
 Side 1  free  transition at x/c =  0.8832   70
 Side 2  free  transition at x/c =  0.0451   17

 103   rms: 0.4387E+04   max: -.1023E+06   T at  105  2   RLX: 0.000
       a = -4.000      CL =  0.1794
      Cm = -0.0601     CD =  0.00000   =>   CDf =  0.00254    CDp = -0.00254

 MRCHDU: Convergence failed at 100  side 2    Res =  0.1267E-02
 MRCHDU: Convergence failed at 101  side 2    Res =  0.5359E-01
 MRCHDU: Convergence failed at 102  side 2    Res =  0.1760E+00
 MRCHDU: Convergence failed at 103  side 2    Res =  0.1404E+00
 MRCHDU: Convergence failed at 104  side 2    Res =  0.1765E-01
 MRCHDU: Convergence failed at 105  side 2    Res =  0.6884E-04
 Side 1  free  transition at x/c =  0.8832   70
 Side 2  free  transition at x/c =  0.0451   17

 104   rms: 0.5524E+03   max: 0.1153E+05   T at  105  2   RLX: 0.000
       a = -4.000      CL =  0.1793
      Cm = -0.0601     CD =  0.00000   =>   CDf =  0.00254    CDp = -0.00254

 MRCHDU: Convergence failed at 100  side 2    Res =  0.1241E-02
 MRCHDU: Convergence failed at 101  side 2    Res =  0.5554E-01
 MRCHDU: Convergence failed at 102  side 2    Res =  0.1673E+00
 MRCHDU: Convergence failed at 103  side 2    Res =  0.1538E+01
 MRCHDU: Convergence failed at 104  side 2    Res =  0.1534E+01
 MRCHDU: Convergence failed at 105  side 2    Res =  0.1864E-02
 Side 1  free  transition at x/c =  0.8833   70
 Side 2  free  transition at x/c =  0.0451   17

 105   rms: 0.6471E+01   max: 0.1571E+03   T at  105  2   RLX: 0.010
       a = -4.000      CL =  0.1802
      Cm = -0.0605     CD =  0.00000   =>   CDf =  0.00254    CDp = -0.00254

 MRCHDU: Convergence failed at 100  side 2    Res =  0.9473E-03
 MRCHDU: Convergence failed at 101  side 2    Res =  0.4999E-01
 MRCHDU: Convergence failed at 102  side 2    Res =  0.1418E+00
 MRCHDU: Convergence failed at 103  side 2    Res =  0.8999E-01
 MRCHDU: Convergence failed at 104  side 2    Res =  0.1400E+00
 MRCHDU: Convergence failed at 105  side 2    Res =  0.4168E-02
 Side 1  free  transition at x/c =  0.8832   70
 Side 2  free  transition at x/c =  0.0451   17

 106   rms: 0.1722E+02   max: 0.4219E+03   T at  105  2   RLX: 0.004
       a = -4.000      CL =  0.1817
      Cm = -0.0607     CD =  0.00067   =>   CDf =  0.00254    CDp = -0.00187

 MRCHDU: Convergence failed at 100  side 2    Res =  0.8329E-03
 MRCHDU: Convergence failed at 101  side 2    Res =  0.5010E-01
 MRCHDU: Convergence failed at 102  side 2    Res =  0.1177E+00
 MRCHDU: Convergence failed at 103  side 2    Res =  0.8382E-01
 MRCHDU: Convergence failed at 104  side 2    Res =  0.1335E+00
 MRCHDU: Convergence failed at 105  side 2    Res =  0.2798E-01
 Side 1  free  transition at x/c =  0.8825   70
 Side 2  free  transition at x/c =  0.0451   17

 107   rms: 0.1143E+02   max: 0.2276E+03   T at  105  2   RLX: 0.007
       a = -4.000      CL =  0.1868
      Cm = -0.0612     CD =  0.01838   =>   CDf =  0.00254    CDp =  0.01585

 MRCHDU: Convergence failed at 100  side 2    Res =  0.7129E-03
 MRCHDU: Convergence failed at 101  side 2    Res =  0.5021E-01
 MRCHDU: Convergence failed at 102  side 2    Res =  0.1151E+00
 MRCHDU: Convergence failed at 103  side 2    Res =  0.8068E-01
 MRCHDU: Convergence failed at 104  side 2    Res =  0.4218E-01
 Side 1  free  transition at x/c =  0.8794   70
 Side 2  free  transition at x/c =  0.0451   17

 108   rms: 0.1705E+02   max: -.2671E+03   T at  105  2   RLX: 0.002
       a = -4.000      CL =  0.1849
      Cm = -0.0611     CD =  0.00143   =>   CDf =  0.00255    CDp = -0.00112

 MRCHDU: Convergence failed at 100  side 2    Res =  0.6524E-03
 MRCHDU: Convergence failed at 101  side 2    Res =  0.5070E-01
 MRCHDU: Convergence failed at 102  side 2    Res =  0.1119E+00
 MRCHDU: Convergence failed at 103  side 2    Res =  0.7982E-01
 MRCHDU: Convergence failed at 104  side 2    Res =  0.1277E-01
 MRCHDU: Convergence failed at 105  side 2    Res =  0.1311E-01
 Side 1  free  transition at x/c =  0.8807   70
 Side 2  free  transition at x/c =  0.0451   17

 109   rms: 0.1906E+02   max: -.3573E+03   T at  105  2   RLX: 0.001
       a = -4.000      CL =  0.1837
      Cm = -0.0611     CD =  0.00002   =>   CDf =  0.00254    CDp = -0.00252

 MRCHDU: Convergence failed at 100  side 2    Res =  0.5857E-03
 MRCHDU: Convergence failed at 101  side 2    Res =  0.5083E-01
 MRCHDU: Convergence failed at 102  side 2    Res =  0.1138E+00
 MRCHDU: Convergence failed at 103  side 2    Res =  0.6691E-01
 MRCHDU: Convergence failed at 104  side 2    Res =  0.7638E-02
 MRCHDU: Convergence failed at 105  side 2    Res =  0.3527E-02
 Side 1  free  transition at x/c =  0.8815   70
 Side 2  free  transition at x/c =  0.0451   17

 110   rms: 0.3085E+02   max: 0.6557E+03   T at  105  2   RLX: 0.002
       a = -4.000      CL =  0.1857
      Cm = -0.0613     CD =  0.00483   =>   CDf =  0.00254    CDp =  0.00229

 MRCHDU: Convergence failed at 100  side 2    Res =  0.5488E-03
 MRCHDU: Convergence failed at 101  side 2    Res =  0.5153E-01
 MRCHDU: Convergence failed at 102  side 2    Res =  0.1026E+00
 MRCHDU: Convergence failed at 103  side 2    Res =  0.1480E+00
 MRCHDU: Convergence failed at 104  side 2    Res =  0.2787E+00
 Side 1  free  transition at x/c =  0.8803   70
 Side 2  free  transition at x/c =  0.0451   17

 111   rms: 0.8494E+01   max: -.2218E+03   C at  105  2   RLX: 0.002
       a = -4.000      CL =  0.1853
      Cm = -0.0613     CD =  0.00159   =>   CDf =  0.00255    CDp = -0.00096

 MRCHDU: Convergence failed at 100  side 2    Res =  0.4673E-03
 MRCHDU: Convergence failed at 101  side 2    Res =  0.5177E-01
 MRCHDU: Convergence failed at 102  side 2    Res =  0.1200E+00
 MRCHDU: Convergence failed at 103  side 2    Res =  0.1474E+00
 MRCHDU: Convergence failed at 104  side 2    Res =  0.1394E+00
 MRCHDU: Convergence failed at 105  side 2    Res =  0.1294E+00
 Side 1  free  transition at x/c =  0.8806   70
 Side 2  free  transition at x/c =  0.0451   17

 112   rms: 0.4892E+01   max: 0.8860E+02   C at  105  2   RLX: 0.010
       a = -4.000      CL =  0.1889
      Cm = -0.0618     CD =  0.00409   =>   CDf =  0.00254    CDp =  0.00154

 MRCHDU: Convergence failed at 100  side 2    Res =  0.1193E-03
 MRCHDU: Convergence failed at 101  side 2    Res =  0.5732E-01
 MRCHDU: Convergence failed at 102  side 2    Res =  0.8394E-01
 MRCHDU: Convergence failed at 103  side 2    Res =  0.1122E+00
 MRCHDU: Convergence failed at 104  side 2    Res =  0.1307E-01
 MRCHDU: Convergence failed at 105  side 2    Res =  0.2388E-01
 Side 1  free  transition at x/c =  0.8790   70
 Side 2  free  transition at x/c =  0.0451   17

 113   rms: 0.1726E+02   max: -.3641E+03   C at  105  2   RLX: 0.001
       a = -4.000      CL =  0.1878
      Cm = -0.0618     CD =  0.00158   =>   CDf =  0.00255    CDp = -0.00097

 MRCHDU: Convergence failed at 100  side 2    Res =  0.6013E-04
 MRCHDU: Convergence failed at 101  side 2    Res =  0.5780E-01
 MRCHDU: Convergence failed at 102  side 2    Res =  0.8471E-01
 MRCHDU: Convergence failed at 103  side 2    Res =  0.2621E-01
 MRCHDU: Convergence failed at 104  side 2    Res =  0.6346E-02
 MRCHDU: Convergence failed at 105  side 2    Res =  0.6573E-02
 Side 1  free  transition at x/c =  0.8797   70
 Side 2  free  transition at x/c =  0.0451   17

 114   rms: 0.9236E+02   max: -.1556E+04   T at  105  2   RLX: 0.000
       a = -4.000      CL =  0.1868
      Cm = -0.0617     CD =  0.00002   =>   CDf =  0.00255    CDp = -0.00253

 MRCHDU: Convergence failed at 100  side 2    Res =  0.3358E-04
 MRCHDU: Convergence failed at 101  side 2    Res =  0.5827E-01
 MRCHDU: Convergence failed at 102  side 2    Res =  0.8147E-01
 MRCHDU: Convergence failed at 103  side 2    Res =  0.1875E-01
 MRCHDU: Convergence failed at 104  side 2    Res =  0.2420E-02
 MRCHDU: Convergence failed at 105  side 2    Res =  0.1489E-02
 Side 1  free  transition at x/c =  0.8803   70
 Side 2  free  transition at x/c =  0.0451   17

 115   rms: 0.8712E+01   max: -.1576E+03   T at  104  2   RLX: 0.003
       a = -4.000      CL =  0.1866
      Cm = -0.0618     CD =  0.00000   =>   CDf =  0.00255    CDp = -0.00255

 MRCHDU: Convergence failed at 101  side 2    Res =  0.5936E-01
 MRCHDU: Convergence failed at 102  side 2    Res =  0.7489E-01
 MRCHDU: Convergence failed at 103  side 2    Res =  0.1251E-01
 MRCHDU: Convergence failed at 104  side 2    Res =  0.7311E-03
 MRCHDU: Convergence failed at 105  side 2    Res =  0.1441E-03
 Side 1  free  transition at x/c =  0.8806   70
 Side 2  free  transition at x/c =  0.0451   17

 116   rms: 0.4835E+02   max: 0.1024E+04   T at  104  2   RLX: 0.001
       a = -4.000      CL =  0.1868
      Cm = -0.0619     CD =  0.00001   =>   CDf =  0.00254    CDp = -0.00253

 MRCHDU: Convergence failed at 101  side 2    Res =  0.5755E-01
 MRCHDU: Convergence failed at 102  side 2    Res =  0.2296E+00
 MRCHDU: Convergence failed at 103  side 2    Res =  0.6612E+00
 MRCHDU: Convergence failed at 104  side 2    Res =  0.9771E-02
 MRCHDU: Convergence failed at 105  side 2    Res =  0.3105E-02
 Side 1  free  transition at x/c =  0.8805   70
 Side 2  free  transition at x/c =  0.0451   17

 117   rms: 0.3784E+02   max: 0.7793E+03   T at  105  2   RLX: 0.002
       a = -4.000      CL =  0.1890
      Cm = -0.0620     CD =  0.00325   =>   CDf =  0.00254    CDp =  0.00071

 MRCHDU: Convergence failed at 101  side 2    Res =  0.6081E-01
 MRCHDU: Convergence failed at 102  side 2    Res =  0.5158E+00
 MRCHDU: Convergence failed at 103  side 2    Res =  0.2835E+00
 MRCHDU: Convergence failed at 104  side 2    Res =  0.6848E-01
 MRCHDU: Convergence failed at 105  side 2    Res =  0.5600E-01
 Side 1  free  transition at x/c =  0.8793   70
 Side 2  free  transition at x/c =  0.0451   17

 118   rms: 0.2394E+02   max: 0.5366E+03   C at  105  2   RLX: 0.003
       a = -4.000      CL =  0.1931
      Cm = -0.0624     CD =  0.02793   =>   CDf =  0.00255    CDp =  0.02538

 MRCHDU: Convergence failed at 101  side 2    Res =  0.6088E-01
 MRCHDU: Convergence failed at 102  side 2    Res =  0.1400E+00
 MRCHDU: Convergence failed at 103  side 2    Res =  0.5813E+00
 MRCHDU: Convergence failed at 104  side 2    Res =  0.6911E-01
 Side 1  free  transition at x/c =  0.8771   69
 Side 2  free  transition at x/c =  0.0451   17

 119   rms: 0.5293E+02   max: -.1257E+04   C at  105  2   RLX: 0.000
       a = -4.000      CL =  0.1922
      Cm = -0.0623     CD =  0.01083   =>   CDf =  0.00255    CDp =  0.00828

 MRCHDU: Convergence failed at 101  side 2    Res =  0.6158E-01
 MRCHDU: Convergence failed at 102  side 2    Res =  0.1398E+00
 MRCHDU: Convergence failed at 103  side 2    Res =  0.1033E+01
 MRCHDU: Convergence failed at 104  side 2    Res =  0.4272E-01
 MRCHDU: Convergence failed at 105  side 2    Res =  0.3460E+00
 Side 1  free  transition at x/c =  0.8778   69
 Side 2  free  transition at x/c =  0.0451   17

 120   rms: 0.2597E+02   max: 0.5979E+03   T at  105  2   RLX: 0.003
       a = -4.000      CL =  0.1953
      Cm = -0.0626     CD =  0.00592   =>   CDf =  0.00255    CDp =  0.00336

 MRCHDU: Convergence failed at 101  side 2    Res =  0.6114E-01
 MRCHDU: Convergence failed at 102  side 2    Res =  0.1405E+00
 MRCHDU: Convergence failed at 103  side 2    Res =  0.5849E+00
 MRCHDU: Convergence failed at 104  side 2    Res =  0.2068E+00
 Side 1  free  transition at x/c =  0.8757   69
 Side 2  free  transition at x/c =  0.0452   17

 121   rms: 0.6049E+01   max: 0.1230E+03   T at  105  2   RLX: 0.012
       a = -4.000      CL =  0.2036
      Cm = -0.0635     CD =  0.04494   =>   CDf =  0.00255    CDp =  0.04239

 MRCHDU: Convergence failed at 100  side 2    Res =  0.2021E-03
 MRCHDU: Convergence failed at 101  side 2    Res =  0.4837E-01
 MRCHDU: Convergence failed at 102  side 2    Res =  0.1424E+00
 MRCHDU: Convergence failed at 103  side 2    Res =  0.3866E-01
 MRCHDU: Convergence failed at 104  side 2    Res =  0.1181E+00
 Side 1  free  transition at x/c =  0.8703   69
 Side 2  free  transition at x/c =  0.0452   17

 122   rms: 0.1215E+03   max: -.2000E+04   C at  105  2   RLX: 0.000
       a = -4.000      CL =  0.2013
      Cm = -0.0633     CD =  0.01897   =>   CDf =  0.00255    CDp =  0.01643

 MRCHDU: Convergence failed at 100  side 2    Res =  0.1782E-03
 MRCHDU: Convergence failed at 101  side 2    Res =  0.4871E-01
 MRCHDU: Convergence failed at 102  side 2    Res =  0.6329E-01
 MRCHDU: Convergence failed at 103  side 2    Res =  0.1752E-01
 MRCHDU: Convergence failed at 104  side 2    Res =  0.4026E-02
 MRCHDU: Convergence failed at 105  side 2    Res =  0.6862E-02
 Side 1  free  transition at x/c =  0.8717   69
 Side 2  free  transition at x/c =  0.0452   17

 123   rms: 0.4027E+02   max: -.7415E+03   T at  104  2   RLX: 0.001
       a = -4.000      CL =  0.2001
      Cm = -0.0632     CD =  0.01697   =>   CDf =  0.00255    CDp =  0.01443

 MRCHDU: Convergence failed at 100  side 2    Res =  0.1452E-03
 MRCHDU: Convergence failed at 101  side 2    Res =  0.4923E-01
 MRCHDU: Convergence failed at 102  side 2    Res =  0.5843E-01
 MRCHDU: Convergence failed at 103  side 2    Res =  0.1134E-01
 MRCHDU: Convergence failed at 104  side 2    Res =  0.1210E-02
 MRCHDU: Convergence failed at 105  side 2    Res =  0.1536E-02
 Side 1  free  transition at x/c =  0.8725   69
 Side 2  free  transition at x/c =  0.0452   17

 124   rms: 0.1097E+02   max: -.2390E+03   T at  104  2   RLX: 0.002
       a = -4.000      CL =  0.1995
      Cm = -0.0633     CD =  0.01808   =>   CDf =  0.00255    CDp =  0.01553

 MRCHDU: Convergence failed at 100  side 2    Res =  0.7206E-04
 MRCHDU: Convergence failed at 101  side 2    Res =  0.5002E-01
 MRCHDU: Convergence failed at 102  side 2    Res =  0.5106E-01
 MRCHDU: Convergence failed at 103  side 2    Res =  0.7022E-02
 MRCHDU: Convergence failed at 104  side 2    Res =  0.2501E-03
 MRCHDU: Convergence failed at 105  side 2    Res =  0.5304E-03
 Side 1  free  transition at x/c =  0.8731   69
 Side 2  free  transition at x/c =  0.0452   17

 125   rms: 0.8265E+01   max: -.1677E+03   T at  104  2   RLX: 0.003
       a = -4.000      CL =  0.1992
      Cm = -0.0633     CD =  0.02870   =>   CDf =  0.00255    CDp =  0.02616

 MRCHDU: Convergence failed at 101  side 2    Res =  0.5101E-01
 MRCHDU: Convergence failed at 102  side 2    Res =  0.4068E-01
 MRCHDU: Convergence failed at 103  side 2    Res =  0.3641E-02
 MRCHDU: Convergence failed at 105  side 2    Res =  0.8118E-04
 Side 1  free  transition at x/c =  0.8734   69
 Side 2  free  transition at x/c =  0.0452   17

 126   rms: 0.4691E+02   max: -.7937E+03   T at  104  2   RLX: 0.001
       a = -4.000      CL =  0.1990
      Cm = -0.0633     CD =  0.05459   =>   CDf =  0.00255    CDp =  0.05204

 MRCHDU: Convergence failed at 101  side 2    Res =  0.5132E-01
 MRCHDU: Convergence failed at 102  side 2    Res =  0.2739E-01
 MRCHDU: Convergence failed at 103  side 2    Res =  0.1169E-02
 Side 1  free  transition at x/c =  0.8737   69
 Side 2  free  transition at x/c =  0.0452   17

 127   rms: 0.3131E+03   max: -.6060E+04   T at  103  2   RLX: 0.000
       a = -4.000      CL =  0.1989
      Cm = -0.0633     CD =  0.07844   =>   CDf =  0.00255    CDp =  0.07589

 MRCHDU: Convergence failed at 101  side 2    Res =  0.5035E-01
 MRCHDU: Convergence failed at 102  side 2    Res =  0.1705E-01
 MRCHDU: Convergence failed at 103  side 2    Res =  0.3138E-03
 Side 1  free  transition at x/c =  0.8738   69
 Side 2  free  transition at x/c =  0.0452   17

 128   rms: 0.3069E+03   max: -.5657E+04   T at  103  2   RLX: 0.000
       a = -4.000      CL =  0.1989
      Cm = -0.0634     CD =  0.06498   =>   CDf =  0.00255    CDp =  0.06243

 MRCHDU: Convergence failed at 100  side 2    Res =  0.1217E-04
 MRCHDU: Convergence failed at 101  side 2    Res =  0.4695E-01
 MRCHDU: Convergence failed at 102  side 2    Res =  0.9157E-02
 Side 1  free  transition at x/c =  0.8738   69
 Side 2  free  transition at x/c =  0.0452   17

 129   rms: 0.9372E+02   max: -.1493E+04   T at  103  2   RLX: 0.000
       a = -4.000      CL =  0.1990
      Cm = -0.0634     CD =  0.03524   =>   CDf =  0.00255    CDp =  0.03269

 MRCHDU: Convergence failed at 100  side 2    Res =  0.5490E-04
 MRCHDU: Convergence failed at 101  side 2    Res =  0.3942E-01
 MRCHDU: Convergence failed at 102  side 2    Res =  0.3614E-02
 Side 1  free  transition at x/c =  0.8738   69
 Side 2  free  transition at x/c =  0.0452   17

 130   rms: 0.7383E+02   max: 0.1243E+04   T at  102  2   RLX: 0.001
       a = -4.000      CL =  0.1989
      Cm = -0.0634     CD =  0.17771   =>   CDf =  0.00255    CDp =  0.17516

 MRCHDU: Convergence failed at 100  side 2    Res =  0.4944E-03
 MRCHDU: Convergence failed at 101  side 2    Res =  0.9220E-01
 MRCHDU: Convergence failed at 102  side 2    Res =  0.3649E-01
 MRCHDU: Convergence failed at 103  side 2    Res =  0.1145E-03
 Side 1  free  transition at x/c =  0.8739   69
 Side 2  free  transition at x/c =  0.0452   17

 131   rms: 0.9338E+01   max: 0.1669E+03   T at  103  2   RLX: 0.009
       a = -4.000      CL =  0.1996
      Cm = -0.0637     CD =  0.46842   =>   CDf =  0.00255    CDp =  0.46587

 MRCHDU: Convergence failed at 100  side 2    Res =  0.4562E-03
 MRCHDU: Convergence failed at 101  side 2    Res =  0.9171E-01
 Side 1  free  transition at x/c =  0.8739   69
 Side 2  free  transition at x/c =  0.0452   17

 132   rms: 0.2230E+02   max: -.4105E+03   T at  103  2   RLX: 0.001
       a = -4.000      CL =  0.1995
      Cm = -0.0637     CD =  0.06590   =>   CDf =  0.00255    CDp =  0.06335

 MRCHDU: Convergence failed at 100  side 2    Res =  0.3304E-03
 MRCHDU: Convergence failed at 101  side 2    Res =  0.9226E-01
 Side 1  free  transition at x/c =  0.8740   69
 Side 2  free  transition at x/c =  0.0452   17

 133   rms: 0.1859E+02   max: 0.2917E+03   T at  103  2   RLX: 0.005
       a = -4.000      CL =  0.2003
      Cm = -0.0639     CD =  0.07644   =>   CDf =  0.00255    CDp =  0.07389

 MRCHDU: Convergence failed at 100  side 2    Res =  0.7022E-03
 MRCHDU: Convergence failed at 101  side 2    Res =  0.8600E-01
 Side 1  free  transition at x/c =  0.8738   69
 Side 2  free  transition at x/c =  0.0452   17

 134   rms: 0.3787E+02   max: 0.6597E+03   T at  103  2   RLX: 0.002
       a = -4.000      CL =  0.2012
      Cm = -0.0641     CD =  0.04842   =>   CDf =  0.00255    CDp =  0.04587

 MRCHDU: Convergence failed at 100  side 2    Res =  0.9828E-03
 MRCHDU: Convergence failed at 101  side 2    Res =  0.7819E-01
 Side 1  free  transition at x/c =  0.8734   69
 Side 2  free  transition at x/c =  0.0452   17

 135   rms: 0.3415E+02   max: 0.6333E+03   T at  104  2   RLX: 0.002
       a = -4.000      CL =  0.2025
      Cm = -0.0642     CD =  0.02585   =>   CDf =  0.00255    CDp =  0.02330

 MRCHDU: Convergence failed at 100  side 2    Res =  0.1011E-02
 MRCHDU: Convergence failed at 101  side 2    Res =  0.7750E-01
 Side 1  free  transition at x/c =  0.8726   69
 Side 2  free  transition at x/c =  0.0452   17

 136   rms: 0.3482E+01   max: -.5548E+02   T at  104  2   RLX: 0.009
       a = -4.000      CL =  0.2020
      Cm = -0.0644     CD =  0.01534   =>   CDf =  0.00255    CDp =  0.01279

 MRCHDU: Convergence failed at 100  side 2    Res =  0.5698E-03
 MRCHDU: Convergence failed at 101  side 2    Res =  0.8884E-01
 Side 1  free  transition at x/c =  0.8733   69
 Side 2  free  transition at x/c =  0.0452   17

 137   rms: 0.2895E+01   max: -.5373E+02   T at  104  2   RLX: 0.009
       a = -4.000      CL =  0.2016
      Cm = -0.0646     CD =  0.03127   =>   CDf =  0.00255    CDp =  0.02872

 MRCHDU: Convergence failed at 101  side 2    Res =  0.2728E+00
 MRCHDU: Convergence failed at 102  side 2    Res =  0.1163E+00
 MRCHDU: Convergence failed at 103  side 2    Res =  0.3118E+00
 MRCHDU: Convergence failed at 104  side 2    Res =  0.5093E-03
 MRCHDU: Convergence failed at 105  side 2    Res =  0.1856E-03
 Side 1  free  transition at x/c =  0.8741   69
 Side 2  free  transition at x/c =  0.0452   17

 138   rms: 0.3612E+02   max: -.6854E+03   T at  104  2   RLX: 0.001
       a = -4.000      CL =  0.2014
      Cm = -0.0647     CD =  0.22364   =>   CDf =  0.00255    CDp =  0.22109

 MRCHDU: Convergence failed at 100  side 2    Res =  0.2503E-03
 MRCHDU: Convergence failed at 101  side 2    Res =  0.3121E-01
 MRCHDU: Convergence failed at 102  side 2    Res =  0.1938E-01
 MRCHDU: Convergence failed at 103  side 2    Res =  0.8898E-02
 MRCHDU: Convergence failed at 105  side 2    Res =  0.7755E-04
 Side 1  free  transition at x/c =  0.8743   69
 Side 2  free  transition at x/c =  0.0452   17

 139   rms: 0.4913E+02   max: 0.8569E+03   T at  104  2   RLX: 0.002
       a = -4.000      CL =  0.2019
      Cm = -0.0647     CD =  0.02562   =>   CDf =  0.00255    CDp =  0.02307

 MRCHDU: Convergence failed at 100  side 2    Res =  0.4254E-03
 MRCHDU: Convergence failed at 101  side 2    Res =  0.3567E-01
 MRCHDU: Convergence failed at 102  side 2    Res =  0.4764E-01
 Side 1  free  transition at x/c =  0.8740   69
 Side 2  free  transition at x/c =  0.0452   17

 140   rms: 0.3049E+02   max: 0.6642E+03   T at  104  2   RLX: 0.002
       a = -4.000      CL =  0.2030
      Cm = -0.0649     CD =  0.00384   =>   CDf =  0.00255    CDp =  0.00129

 MRCHDU: Convergence failed at 100  side 2    Res =  0.4263E-03
 MRCHDU: Convergence failed at 101  side 2    Res =  0.3587E-01
 MRCHDU: Convergence failed at 102  side 2    Res =  0.5265E-01
 Side 1  free  transition at x/c =  0.8734   69
 Side 2  free  transition at x/c =  0.0452   17

 141   rms: 0.3040E+02   max: 0.7007E+03   T at  104  2   RLX: 0.002
       a = -4.000      CL =  0.2039
      Cm = -0.0650     CD =  0.00147   =>   CDf =  0.00255    CDp = -0.00107

 MRCHDU: Convergence failed at 100  side 2    Res =  0.4267E-03
 MRCHDU: Convergence failed at 101  side 2    Res =  0.3599E-01
 MRCHDU: Convergence failed at 102  side 2    Res =  0.2152E+00
 Side 1  free  transition at x/c =  0.8728   69
 Side 2  free  transition at x/c =  0.0452   17

 142   rms: 0.7693E+01   max: 0.1625E+03   T at  104  2   RLX: 0.009
       a = -4.000      CL =  0.2051
      Cm = -0.0653     CD =  0.00827   =>   CDf =  0.00255    CDp =  0.00573

 MRCHDU: Convergence failed at 100  side 2    Res =  0.3475E-03
 MRCHDU: Convergence failed at 101  side 2    Res =  0.3698E-01
 MRCHDU: Convergence failed at 102  side 2    Res =  0.2652E-01
 Side 1  free  transition at x/c =  0.8724   69
 Side 2  free  transition at x/c =  0.0452   17

 143   rms: 0.1417E+03   max: 0.2824E+04   T at  104  2   RLX: 0.001
       a = -4.000      CL =  0.2050
      Cm = -0.0653     CD =  0.04408   =>   CDf =  0.00255    CDp =  0.04154

 MRCHDU: Convergence failed at 100  side 2    Res =  0.4234E-03
 MRCHDU: Convergence failed at 101  side 2    Res =  0.4266E-01
 MRCHDU: Convergence failed at 102  side 2    Res =  0.4477E+00
 Side 1  free  transition at x/c =  0.8724   69
 Side 2  free  transition at x/c =  0.0452   17

 144   rms: 0.1274E+02   max: 0.1886E+03   T at  104  2   RLX: 0.008
       a = -4.000      CL =  0.2084
      Cm = -0.0656     CD =  0.14445   =>   CDf =  0.00254    CDp =  0.14190

 MRCHDU: Convergence failed at 100  side 2    Res =  0.4477E-03
 MRCHDU: Convergence failed at 101  side 2    Res =  0.3802E-01
 MRCHDU: Convergence failed at 102  side 2    Res =  0.1482E+00
 Side 1  free  transition at x/c =  0.8703   69
 Side 2  free  transition at x/c =  0.0452   17

 145   rms: 0.3501E+01   max: -.3262E+02   C at   82  2   RLX: 0.015
       a = -4.000      CL =  0.2065
      Cm = -0.0660     CD =  0.04423   =>   CDf =  0.00254    CDp =  0.04169

 MRCHDU: Convergence failed at 101  side 2    Res =  0.3907E-01
 MRCHDU: Convergence failed at 102  side 2    Res =  0.9070E-02
 MRCHDU: Convergence failed at 103  side 2    Res =  0.1984E-01
 Side 1  free  transition at x/c =  0.8723   69
 Side 2  free  transition at x/c =  0.0452   17

 146   rms: 0.5340E+01   max: -.5312E+02   C at   83  2   RLX: 0.009
       a = -4.000      CL =  0.2060
      Cm = -0.0662     CD =  0.06310   =>   CDf =  0.00255    CDp =  0.06055

 MRCHDU: Convergence failed at 101  side 2    Res =  0.3772E-01
 MRCHDU: Convergence failed at 102  side 2    Res =  0.7849E-02
 MRCHDU: Convergence failed at 103  side 2    Res =  0.1256E-01
 Side 1  free  transition at x/c =  0.8731   69
 Side 2  free  transition at x/c =  0.0452   17

 147   rms: 0.1293E+02   max: -.1491E+03   C at   83  2   RLX: 0.003
       a = -4.000      CL =  0.2057
      Cm = -0.0663     CD =  0.05479   =>   CDf =  0.00255    CDp =  0.05224

 MRCHDU: Convergence failed at 101  side 2    Res =  0.3645E-01
 MRCHDU: Convergence failed at 102  side 2    Res =  0.6763E-02
 MRCHDU: Convergence failed at 103  side 2    Res =  0.8966E-02
[...]

  85   rms: 0.3514E+05   max: 0.3703E+06   T at   99  2   RLX: 0.000
       a = 10.500      CL = -0.6893
      Cm =  0.1409     CD =*********   =>   CDf =  0.00257    CDp =*********

 Side 1  free  transition at x/c =  0.9867   76
 Side 2  free  transition at x/c =  0.0382   19

  86   rms: 0.8818E+05   max: 0.1491E+07   T at   96  2   RLX: 0.000
       a = 10.500      CL = -0.6894
      Cm =  0.1410     CD =*********   =>   CDf =  0.00257    CDp =*********

 Side 1  free  transition at x/c =  0.9867   76
 Side 2  free  transition at x/c =  0.0382   19

  87   rms: 0.8618E+04   max: 0.8697E+05   C at   76  1   RLX: 0.000
       a = 10.500      CL = -0.6890
      Cm =  0.1409     CD =*********   =>   CDf =  0.00257    CDp =*********

 Side 1  free  transition at x/c =  0.9866   76
 Side 2  free  transition at x/c =  0.0382   19

  88   rms: 0.2634E+05   max: 0.3119E+06   T at  101  2   RLX: 0.000
       a = 10.500      CL = -0.6891
      Cm =  0.1409     CD =*********   =>   CDf =  0.00257    CDp =*********

 Side 1  free  transition at x/c =  0.9867   76
 Side 2  free  transition at x/c =  0.0382   19

  89   rms: 0.8601E+05   max: 0.1227E+07   T at   96  2   RLX: 0.000
       a = 10.500      CL = -0.6892
      Cm =  0.1409     CD =*********   =>   CDf =  0.00257    CDp =*********

 Side 1  free  transition at x/c =  0.9867   76
 Side 2  free  transition at x/c =  0.0382   19

  90   rms: 0.4291E+06   max: -.4501E+07   C at   76  1   RLX: 0.000
       a = 10.500      CL = -0.6892
      Cm =  0.1409     CD =*********   =>   CDf =  0.00257    CDp =*********

 Side 1  free  transition at x/c =  0.9867   76
 Side 2  free  transition at x/c =  0.0382   19

  91   rms: 0.6460E+05   max: -.5854E+06   C at   76  1   RLX: 0.000
       a = 10.500      CL = -0.6892
      Cm =  0.1409     CD =*********   =>   CDf =  0.00257    CDp =*********

 Side 1  free  transition at x/c =  0.9867   76
 Side 2  free  transition at x/c =  0.0382   19

  92   rms: 0.1159E+05   max: 0.1340E+06   T at  102  2   RLX: 0.000
       a = 10.500      CL = -0.6896
      Cm =  0.1410     CD =*********   =>   CDf =  0.00257    CDp =*********

 Side 1  free  transition at x/c =  0.9868   76
 Side 2  free  transition at x/c =  0.0382   19

  93   rms: 0.8029E+05   max: 0.8900E+06   T at   99  2   RLX: 0.000
       a = 10.500      CL = -0.6896
      Cm =  0.1410     CD =*********   =>   CDf =  0.00257    CDp =*********

 Side 1  free  transition at x/c =  0.9868   76
 Side 2  free  transition at x/c =  0.0382   19

  94   rms: 0.1789E+05   max: 0.1843E+06   C at   76  1   RLX: 0.000
       a = 10.500      CL = -0.6894
      Cm =  0.1410     CD =*********   =>   CDf =  0.00257    CDp =*********

 Side 1  free  transition at x/c =  0.9867   76
 Side 2  free  transition at x/c =  0.0382   19

  95   rms: 0.2242E+05   max: -.2279E+06   C at   76  1   RLX: 0.000
       a = 10.500      CL = -0.6896
      Cm =  0.1410     CD =*********   =>   CDf =  0.00257    CDp =*********

 Side 1  free  transition at x/c =  0.9868   76
 Side 2  free  transition at x/c =  0.0382   19

  96   rms: 0.1596E+05   max: 0.1825E+06   T at   96  2   RLX: 0.000
       a = 10.500      CL = -0.6899
      Cm =  0.1410     CD =*********   =>   CDf =  0.00257    CDp =*********

 Side 1  free  transition at x/c =  0.9868   76
 Side 2  free  transition at x/c =  0.0382   19

  97   rms: 0.3037E+04   max: 0.7348E+05   T at  102  2   RLX: 0.000
       a = 10.500      CL = -0.6813
      Cm =  0.1394     CD =*********   =>   CDf =  0.00257    CDp =*********

 Side 1  free  transition at x/c =  0.9852   75
 Side 2  free  transition at x/c =  0.0382   19

  98   rms: 0.5824E+06   max: -.6873E+07   T at  101  2   RLX: 0.000
       a = 10.500      CL = -0.6814
      Cm =  0.1394     CD =*********   =>   CDf =  0.00257    CDp =*********

 Side 1  free  transition at x/c =  0.9852   75
 Side 2  free  transition at x/c =  0.0382   19

  99   rms: 0.1597E+06   max: 0.1345E+07   T at   75  1   RLX: 0.000
       a = 10.500      CL = -0.6814
      Cm =  0.1394     CD =*********   =>   CDf =  0.00257    CDp =*********

 Side 1  free  transition at x/c =  0.9852   75
 Side 2  free  transition at x/c =  0.0382   19

 100   rms: 0.8363E+04   max: -.7100E+05   T at   96  2   RLX: 0.000
       a = 10.500      CL = -0.6821
      Cm =  0.1395     CD =*********   =>   CDf =  0.00257    CDp =*********

 Side 1  free  transition at x/c =  0.9857   75
 Side 2  free  transition at x/c =  0.0382   19

 101   rms: 0.4827E+04   max: -.6399E+05   T at   96  2   RLX: 0.000
       a = 10.500      CL = -0.6847
      Cm =  0.1397     CD =*********   =>   CDf =  0.00257    CDp =*********

 Side 1  free  transition at x/c =  0.9882   76
 Side 2  free  transition at x/c =  0.0382   19

 102   rms: 0.8537E+05   max: -.1124E+07   T at   96  2   RLX: 0.000
       a = 10.500      CL = -0.6847
      Cm =  0.1398     CD =*********   =>   CDf =  0.00257    CDp =*********

 Side 1  free  transition at x/c =  0.9882   76
 Side 2  free  transition at x/c =  0.0382   19

 103   rms: 0.6487E+04   max: 0.7149E+05   C at   76  1   RLX: 0.000
       a = 10.500      CL = -0.6841
      Cm =  0.1397     CD =*********   =>   CDf =  0.00257    CDp =*********

 Side 1  free  transition at x/c =  0.9881   76
 Side 2  free  transition at x/c =  0.0382   19

 104   rms: 0.2349E+04   max: 0.4295E+05   T at  102  2   RLX: 0.000
       a = 10.500      CL = -0.6864
      Cm =  0.1401     CD =*********   =>   CDf =  0.00257    CDp =*********

 Side 1  free  transition at x/c =  0.9886   76
 Side 2  free  transition at x/c =  0.0382   19

 105   rms: 0.1642E+04   max: -.3697E+05   T at  102  2   RLX: 0.000
       a = 10.500      CL = -0.6820
      Cm =  0.1392     CD =*********   =>   CDf =  0.00257    CDp =*********

 Side 1  free  transition at x/c =  0.9878   76
 Side 2  free  transition at x/c =  0.0382   19

 106   rms: 0.7055E+04   max: -.7967E+05   T at  101  2   RLX: 0.000
       a = 10.500      CL = -0.6825
      Cm =  0.1393     CD =*********   =>   CDf =  0.00257    CDp =*********

 Side 1  free  transition at x/c =  0.9879   76
 Side 2  free  transition at x/c =  0.0382   19

 107   rms: 0.6972E+05   max: 0.7467E+06   C at   76  1   RLX: 0.000
       a = 10.500      CL = -0.6825
      Cm =  0.1393     CD =*********   =>   CDf =  0.00257    CDp =*********

 Side 1  free  transition at x/c =  0.9879   76
 Side 2  free  transition at x/c =  0.0382   19

 108   rms: 0.1975E+04   max: -.4853E+05   T at  101  2   RLX: 0.000
       a = 10.500      CL = -0.6780
      Cm =  0.1384     CD =*********   =>   CDf =  0.00257    CDp =*********

 Side 1  free  transition at x/c =  0.9871   76
 Side 2  free  transition at x/c =  0.0382   19

 109   rms: 0.1635E+05   max: -.2763E+06   T at  101  2   RLX: 0.000
       a = 10.500      CL = -0.6783
      Cm =  0.1385     CD =*********   =>   CDf =  0.00257    CDp =*********

 Side 1  free  transition at x/c =  0.9872   76
 Side 2  free  transition at x/c =  0.0382   19

 110   rms: 0.2791E+05   max: -.3547E+06   T at   96  2   RLX: 0.000
       a = 10.500      CL = -0.6785
      Cm =  0.1385     CD =*********   =>   CDf =  0.00257    CDp =*********

 Side 1  free  transition at x/c =  0.9872   76
 Side 2  free  transition at x/c =  0.0382   19

 111   rms: 0.1492E+05   max: 0.2912E+06   T at  101  2   RLX: 0.000
       a = 10.500      CL = -0.6782
      Cm =  0.1385     CD =*********   =>   CDf =  0.00257    CDp =*********

 Side 1  free  transition at x/c =  0.9871   76
 Side 2  free  transition at x/c =  0.0382   19

 112   rms: 0.1503E+05   max: -.1269E+06   T at   96  2   RLX: 0.000
       a = 10.500      CL = -0.6785
      Cm =  0.1385     CD =*********   =>   CDf =  0.00257    CDp =*********

 Side 1  free  transition at x/c =  0.9872   76
 Side 2  free  transition at x/c =  0.0382   19

 113   rms: 0.1269E+05   max: -.1216E+06   C at   76  1   RLX: 0.000
       a = 10.500      CL = -0.6787
      Cm =  0.1386     CD =*********   =>   CDf =  0.00257    CDp =*********

 Side 1  free  transition at x/c =  0.9873   76
 Side 2  free  transition at x/c =  0.0382   19

 114   rms: 0.2392E+05   max: 0.2845E+06   T at   96  2   RLX: 0.000
       a = 10.500      CL = -0.6785
      Cm =  0.1385     CD =*********   =>   CDf =  0.00257    CDp =*********

 Side 1  free  transition at x/c =  0.9872   76
 Side 2  free  transition at x/c =  0.0382   19

 115   rms: 0.3115E+05   max: 0.3228E+06   T at   96  2   RLX: 0.000
       a = 10.500      CL = -0.6784
      Cm =  0.1385     CD =*********   =>   CDf =  0.00257    CDp =*********

 Side 1  free  transition at x/c =  0.9872   76
 Side 2  free  transition at x/c =  0.0382   19

 116   rms: 0.1555E+05   max: 0.1546E+06   C at   76  1   RLX: 0.000
       a = 10.500      CL = -0.6782
      Cm =  0.1385     CD =*********   =>   CDf =  0.00257    CDp =*********

 Side 1  free  transition at x/c =  0.9871   76
 Side 2  free  transition at x/c =  0.0382   19

 117   rms: 0.1362E+05   max: 0.1252E+06   T at   99  2   RLX: 0.000
       a = 10.500      CL = -0.6784
      Cm =  0.1385     CD =*********   =>   CDf =  0.00257    CDp =*********

 Side 1  free  transition at x/c =  0.9872   76
 Side 2  free  transition at x/c =  0.0382   19

 118   rms: 0.7499E+04   max: 0.1040E+06   T at   96  2   RLX: 0.000
       a = 10.500      CL = -0.6777
      Cm =  0.1384     CD =*********   =>   CDf =  0.00257    CDp =*********

 Side 1  free  transition at x/c =  0.9871   76
 Side 2  free  transition at x/c =  0.0382   19

 119   rms: 0.7224E+04   max: -.9707E+05   T at   96  2   RLX: 0.000
       a = 10.500      CL = -0.6786
      Cm =  0.1385     CD =*********   =>   CDf =  0.00257    CDp =*********

 Side 1  free  transition at x/c =  0.9872   76
 Side 2  free  transition at x/c =  0.0382   19

 120   rms: 0.6581E+05   max: 0.8226E+06   T at  101  2   RLX: 0.000
       a = 10.500      CL = -0.6785
      Cm =  0.1385     CD =*********   =>   CDf =  0.00257    CDp =*********

 Side 1  free  transition at x/c =  0.9872   76
 Side 2  free  transition at x/c =  0.0382   19

 121   rms: 0.4785E+04   max: -.5316E+05   T at  101  2   RLX: 0.000
       a = 10.500      CL = -0.6795
      Cm =  0.1387     CD =*********   =>   CDf =  0.00257    CDp =*********

 Side 1  free  transition at x/c =  0.9874   76
 Side 2  free  transition at x/c =  0.0382   19

 122   rms: 0.1339E+05   max: -.1333E+06   C at   76  1   RLX: 0.000
       a = 10.500      CL = -0.6798
      Cm =  0.1388     CD =*********   =>   CDf =  0.00257    CDp =*********

 Side 1  free  transition at x/c =  0.9875   76
 Side 2  free  transition at x/c =  0.0382   19

 123   rms: 0.3366E+04   max: 0.4347E+05   T at   96  2   RLX: 0.000
       a = 10.500      CL = -0.6778
      Cm =  0.1384     CD =*********   =>   CDf =  0.00257    CDp =*********

 Side 1  free  transition at x/c =  0.9871   76
 Side 2  free  transition at x/c =  0.0382   19

 124   rms: 0.6525E+05   max: -.8824E+06   T at  101  2   RLX: 0.000
       a = 10.500      CL = -0.6777
      Cm =  0.1384     CD =*********   =>   CDf =  0.00257    CDp =*********

 Side 1  free  transition at x/c =  0.9870   76
 Side 2  free  transition at x/c =  0.0382   19

 125   rms: 0.4377E+04   max: -.4052E+05   C at   76  1   RLX: 0.000
       a = 10.500      CL = -0.6785
      Cm =  0.1385     CD =*********   =>   CDf =  0.00257    CDp =*********

 Side 1  free  transition at x/c =  0.9872   76
 Side 2  free  transition at x/c =  0.0382   19

 126   rms: 0.3790E+04   max: 0.5165E+05   T at   96  2   RLX: 0.000
       a = 10.500      CL = -0.6798
      Cm =  0.1388     CD =*********   =>   CDf =  0.00257    CDp =*********

 Side 1  free  transition at x/c =  0.9875   76
 Side 2  free  transition at x/c =  0.0382   19

 127   rms: 0.2328E+05   max: 0.3277E+06   T at  101  2   RLX: 0.000
       a = 10.500      CL = -0.6796
      Cm =  0.1387     CD =*********   =>   CDf =  0.00257    CDp =*********

 Side 1  free  transition at x/c =  0.9874   76
 Side 2  free  transition at x/c =  0.0382   19

 128   rms: 0.2199E+04   max: 0.3266E+05   T at  101  2   RLX: 0.000
       a = 10.500      CL = -0.6828
      Cm =  0.1393     CD =*********   =>   CDf =  0.00257    CDp =*********

 Side 1  free  transition at x/c =  0.9881   76
 Side 2  free  transition at x/c =  0.0382   19

 129   rms: 0.1640E+05   max: 0.1803E+06   T at   96  2   RLX: 0.000
       a = 10.500      CL = -0.6825
      Cm =  0.1392     CD =*********   =>   CDf =  0.00258    CDp =*********

 Side 1  free  transition at x/c =  0.9880   76
 Side 2  free  transition at x/c =  0.0382   19

 130   rms: 0.3191E+04   max: -.4409E+05   T at  101  2   RLX: 0.000
       a = 10.500      CL = -0.6809
      Cm =  0.1389     CD =*********   =>   CDf =  0.00258    CDp =*********

 Side 1  free  transition at x/c =  0.9877   76
 Side 2  free  transition at x/c =  0.0382   19

 131   rms: 0.1132E+06   max: -.1242E+07   T at   96  2   RLX: 0.000
       a = 10.500      CL = -0.6809
      Cm =  0.1389     CD =*********   =>   CDf =  0.00258    CDp =*********

 Side 1  free  transition at x/c =  0.9877   76
 Side 2  free  transition at x/c =  0.0382   19

 132   rms: 0.1138E+04   max: -.2348E+05   T at  102  2   RLX: 0.000
       a = 10.500      CL = -0.6738
      Cm =  0.1375     CD =*********   =>   CDf =  0.00258    CDp =*********

 Side 1  free  transition at x/c =  0.9865   76
 Side 2  free  transition at x/c =  0.0382   19

 133   rms: 0.9538E+04   max: 0.7720E+05   T at  101  2   RLX: 0.000
       a = 10.500      CL = -0.6742
      Cm =  0.1376     CD =*********   =>   CDf =  0.00258    CDp =*********

 Side 1  free  transition at x/c =  0.9866   76
 Side 2  free  transition at x/c =  0.0382   19

 134   rms: 0.1353E+05   max: -.1184E+06   C at   76  1   RLX: 0.000
       a = 10.500      CL = -0.6745
      Cm =  0.1377     CD =*********   =>   CDf =  0.00258    CDp =*********

 Side 1  free  transition at x/c =  0.9866   76
 Side 2  free  transition at x/c =  0.0382   19

 135   rms: 0.5812E+05   max: 0.5856E+06   T at  101  2   RLX: 0.000
       a = 10.500      CL = -0.6744
      Cm =  0.1377     CD =*********   =>   CDf =  0.00258    CDp =*********

 Side 1  free  transition at x/c =  0.9866   76
 Side 2  free  transition at x/c =  0.0382   19

 136   rms: 0.4790E+05   max: -.4176E+06   C at   76  1   RLX: 0.000
       a = 10.500      CL = -0.6745
      Cm =  0.1377     CD =*********   =>   CDf =  0.00258    CDp =*********

 Side 1  free  transition at x/c =  0.9866   76
 Side 2  free  transition at x/c =  0.0382   19

 137   rms: 0.6026E+04   max: -.8432E+05   T at  102  2   RLX: 0.000
       a = 10.500      CL = -0.6753
      Cm =  0.1378     CD =*********   =>   CDf =  0.00258    CDp =*********

 Side 1  free  transition at x/c =  0.9868   76
 Side 2  free  transition at x/c =  0.0382   19

 138   rms: 0.4079E+04   max: -.1001E+06   T at  102  2   RLX: 0.000
       a = 10.500      CL = -0.6714
      Cm =  0.1371     CD =*********   =>   CDf =  0.00258    CDp =*********

 Side 1  free  transition at x/c =  0.9860   76
 Side 2  free  transition at x/c =  0.0382   19

 139   rms: 0.7032E+04   max: 0.1531E+05   U at  107  2   RLX: 0.000
       a = 10.500      CL = -0.6720
      Cm =  0.1372     CD =*********   =>   CDf =  0.00258    CDp =*********

 Side 1  free  transition at x/c =  0.9862   76
 Side 2  free  transition at x/c =  0.0382   19

 140   rms: 0.2339E+05   max: -.2326E+06   T at   96  2   RLX: 0.000
       a = 10.500      CL = -0.6722
      Cm =  0.1372     CD =*********   =>   CDf =  0.00258    CDp =*********

 Side 1  free  transition at x/c =  0.9862   76
 Side 2  free  transition at x/c =  0.0382   19

 141   rms: 0.7719E+04   max: -.8763E+05   T at  102  2   RLX: 0.000
       a = 10.500      CL = -0.6727
      Cm =  0.1373     CD =*********   =>   CDf =  0.00258    CDp =*********

 Side 1  free  transition at x/c =  0.9863   76
 Side 2  free  transition at x/c =  0.0382   19

 142   rms: 0.1068E+05   max: 0.1771E+06   T at  101  2   RLX: 0.000
       a = 10.500      CL = -0.6731
      Cm =  0.1374     CD =*********   =>   CDf =  0.00258    CDp =*********

 Side 1  free  transition at x/c =  0.9864   76
 Side 2  free  transition at x/c =  0.0382   19

 143   rms: 0.2037E+06   max: -.2591E+07   T at  101  2   RLX: 0.000
       a = 10.500      CL = -0.6731
      Cm =  0.1374     CD =*********   =>   CDf =  0.00258    CDp =*********

 Side 1  free  transition at x/c =  0.9864   76
 Side 2  free  transition at x/c =  0.0382   19

 144   rms: 0.1454E+05   max: -.2213E+06   T at  102  2   RLX: 0.000
       a = 10.500      CL = -0.6728
      Cm =  0.1373     CD =*********   =>   CDf =  0.00258    CDp =*********

 Side 1  free  transition at x/c =  0.9863   76
 Side 2  free  transition at x/c =  0.0382   19

 145   rms: 0.2283E+05   max: 0.1873E+06   C at   76  1   RLX: 0.000
       a = 10.500      CL = -0.6726
      Cm =  0.1373     CD =*********   =>   CDf =  0.00258    CDp =*********

 Side 1  free  transition at x/c =  0.9863   76
 Side 2  free  transition at x/c =  0.0382   19

 146   rms: 0.2389E+05   max: -.2705E+06   T at  101  2   RLX: 0.000
       a = 10.500      CL = -0.6728
      Cm =  0.1373     CD =*********   =>   CDf =  0.00258    CDp =*********

 Side 1  free  transition at x/c =  0.9863   76
 Side 2  free  transition at x/c =  0.0382   19

 147   rms: 0.5283E+04   max: 0.1320E+05   U at  107  2   RLX: 0.000
       a = 10.500      CL = -0.6736
      Cm =  0.1374     CD =*********   =>   CDf =  0.00258    CDp =*********

 Side 1  free  transition at x/c =  0.9865   76
 Side 2  free  transition at x/c =  0.0382   19

 148   rms: 0.2319E+05   max: 0.5295E+05   U at  107  2   RLX: 0.000
       a = 10.500      CL = -0.6737
      Cm =  0.1375     CD =*********   =>   CDf =  0.00258    CDp =*********

 Side 1  free  transition at x/c =  0.9865   76
 Side 2  free  transition at x/c =  0.0382   19

 149   rms: 0.8373E+04   max: -.1107E+06   T at  101  2   RLX: 0.000
       a = 10.500      CL = -0.6742
      Cm =  0.1375     CD =*********   =>   CDf =  0.00258    CDp =*********

 Side 1  free  transition at x/c =  0.9867   76
 Side 2  free  transition at x/c =  0.0382   19

 150   rms: 0.8809E+04   max: 0.9456E+05   T at  101  2   RLX: 0.000
       a = 10.500      CL = -0.6747
      Cm =  0.1376     CD =*********   =>   CDf =  0.00258    CDp =*********

 Side 1  free  transition at x/c =  0.9867   76
 Side 2  free  transition at x/c =  0.0382   19

 151   rms: 0.1734E+05   max: -.1546E+06   T at   96  2   RLX: 0.000
       a = 10.500      CL = -0.6745
      Cm =  0.1376     CD =*********   =>   CDf =  0.00258    CDp =*********

 Side 1  free  transition at x/c =  0.9867   76
 Side 2  free  transition at x/c =  0.0382   19

 152   rms: 0.1032E+05   max: 0.1067E+06   T at   96  2   RLX: 0.000
       a = 10.500      CL = -0.6750
      Cm =  0.1377     CD =*********   =>   CDf =  0.00258    CDp =*********

 Side 1  free  transition at x/c =  0.9868   76
 Side 2  free  transition at x/c =  0.0382   19

 153   rms: 0.9303E+04   max: -.1102E+06   T at  101  2   RLX: 0.000
       a = 10.500      CL = -0.6756
      Cm =  0.1378     CD =*********   =>   CDf =  0.00258    CDp =*********

 Side 1  free  transition at x/c =  0.9869   76
 Side 2  free  transition at x/c =  0.0382   19

 154   rms: 0.2365E+05   max: 0.6579E+05   U at  107  2   RLX: 0.000
       a = 10.500      CL = -0.6758
      Cm =  0.1378     CD =*********   =>   CDf =  0.00258    CDp =*********

 Side 1  free  transition at x/c =  0.9870   76
 Side 2  free  transition at x/c =  0.0382   19

 155   rms: 0.8681E+04   max: 0.1245E+06   T at  102  2   RLX: 0.000
       a = 10.500      CL = -0.6760
      Cm =  0.1377     CD =*********   =>   CDf =  0.00258    CDp =*********
 VISCAL:  Convergence failed
 Calculating wake trajectory ...
 Calculating source influence matrix ...

 Solving BL system ...

 Side 1  free  transition at x/c =  0.9871   76

[TIMEOUT]
