  
       XFOIL         Version 6.99
  
 Calculated polar for: GOE 531 AIRFOIL                                 
  
 1 1 Reynolds number fixed          Mach number fixed         
  
 xtrf =   1.000 (top)        1.000 (bottom)  
 Mach =   0.000     Re =     0.600 e 6     Ncrit =   9.000
  
   alpha    CL        CD       CDp       CM     Top_Xtr  Bot_Xtr
  ------ -------- --------- --------- -------- -------- --------
  -4.000   0.8286   0.05560   0.05146  -0.2325   0.6626   0.0464
  -3.500   0.8394   0.05382   0.04972  -0.2294   0.6600   0.0476
  -2.000   0.9302   0.04553   0.04133  -0.2350   0.6514   0.0528
  -1.000   0.9418   0.04104   0.03697  -0.2265   0.6462   0.0564
   1.000   1.2552   0.01862   0.01275  -0.2686   0.6369   0.0729
   1.500   1.3165   0.01811   0.01206  -0.2708   0.6341   0.0757
   2.000   1.3205   0.01858   0.01254  -0.2618   0.6314   0.0773
   2.500   1.3340   0.01910   0.01300  -0.2548   0.6279   0.0794
   3.000   1.3662   0.01915   0.01294  -0.2513   0.6247   0.0816
   3.500   1.4112   0.01914   0.01290  -0.2502   0.6221   0.0843
   4.000   1.4643   0.01912   0.01280  -0.2504   0.6199   0.0880
   4.500   1.5268   0.01907   0.01271  -0.2525   0.6174   0.0917
   5.000   1.4844   0.02158   0.01541  -0.2367   0.6120   0.0927
   5.500   1.5021   0.02277   0.01665  -0.2314   0.6080   0.0960
   6.000   1.5513   0.02277   0.01665  -0.2311   0.6053   0.1005
   6.500   1.6091   0.02256   0.01644  -0.2322   0.6029   0.1075
   7.000   1.5553   0.02713   0.02118  -0.2167   0.5944   0.1083
   7.500   1.5826   0.02835   0.02249  -0.2135   0.5905   0.1177
   8.000   1.6432   0.02771   0.02197  -0.2149   0.5880   0.1764
   8.500   1.7130   0.02685   0.02109  -0.2177   0.5853   0.2156
   9.000   1.6299   0.03444   0.02891  -0.2001   0.5737   0.2134
   9.500   1.6862   0.03408   0.02857  -0.2010   0.5716   0.2333
  10.000   1.7526   0.03310   0.02759  -0.2032   0.5694   0.2507
  10.000   1.7526   0.03310   0.02759  -0.2032   0.5694   0.2507
