  
       XFOIL         Version 6.99
  
 Calculated polar for: GOE 510 AIRFOIL                                 
  
 1 1 Reynolds number fixed          Mach number fixed         
  
 xtrf =   1.000 (top)        1.000 (bottom)  
 Mach =   0.000     Re =     0.150 e 6     Ncrit =   9.000
  
   alpha    CL        CD       CDp       CM     Top_Xtr  Bot_Xtr
  ------ -------- --------- --------- -------- -------- --------
  -3.500   0.0863   0.04609   0.04128  -0.0953   0.8371   0.1607
  -2.500   0.2230   0.03650   0.03099  -0.1039   0.8166   0.2020
  -2.000   0.2677   0.02209   0.01404  -0.1004   0.8007   0.0981
  -1.500   0.3412   0.01995   0.01149  -0.1029   0.7835   0.0999
  -1.000   0.3995   0.01877   0.01005  -0.1023   0.7604   0.1038
  -0.500   0.4623   0.01740   0.00870  -0.1030   0.7360   0.1112
   0.000   0.5166   0.01663   0.00783  -0.1019   0.7083   0.1205
   0.500   0.5703   0.01605   0.00725  -0.1008   0.6787   0.1483
   1.000   0.6193   0.01596   0.00739  -0.0988   0.6478   0.2895
   1.500   0.6610   0.01623   0.00753  -0.0957   0.6171   0.3446
   2.000   0.7050   0.01631   0.00754  -0.0931   0.5906   0.3882
   3.000   0.9769   0.01666   0.00868  -0.1263   0.5336   1.0000
   3.500   1.0127   0.01715   0.00898  -0.1224   0.5165   1.0000
   4.000   1.0488   0.01767   0.00935  -0.1186   0.5012   1.0000
   4.500   1.0853   0.01824   0.00978  -0.1150   0.4870   1.0000
   5.000   1.1242   0.01887   0.01027  -0.1119   0.4737   1.0000
   5.500   1.1643   0.01954   0.01081  -0.1091   0.4609   1.0000
   6.000   1.1945   0.02023   0.01154  -0.1043   0.4479   1.0000
   6.500   1.2296   0.02105   0.01235  -0.1007   0.4361   1.0000
   7.000   1.2727   0.02191   0.01311  -0.0986   0.4243   1.0000
   7.500   1.3000   0.02268   0.01397  -0.0934   0.4123   1.0000
   8.000   1.3295   0.02363   0.01501  -0.0889   0.4012   1.0000
   8.500   1.3714   0.02453   0.01585  -0.0867   0.3896   1.0000
   9.000   1.3876   0.02515   0.01656  -0.0796   0.3768   1.0000
   9.500   1.3924   0.02571   0.01722  -0.0703   0.3634   1.0000
  10.000   1.4013   0.02624   0.01781  -0.0621   0.3502   1.0000
  10.000   1.4013   0.02624   0.01781  -0.0621   0.3502   1.0000
  10.250   1.4075   0.02641   0.01794  -0.0584   0.3431   1.0000
  10.500   1.4125   0.02681   0.01839  -0.0548   0.3368   1.0000
  10.750   1.4135   0.02726   0.01892  -0.0506   0.3302   1.0000
  11.000   1.4250   0.02750   0.01909  -0.0481   0.3233   1.0000
  11.250   1.4205   0.02821   0.01998  -0.0434   0.3167   1.0000
  11.500   1.4260   0.02867   0.02044  -0.0403   0.3100   1.0000
  11.750   1.4281   0.02940   0.02126  -0.0370   0.3033   1.0000
  12.000   1.4297   0.03015   0.02209  -0.0338   0.2963   1.0000
  12.250   1.4327   0.03094   0.02290  -0.0309   0.2891   1.0000
  12.500   1.4308   0.03201   0.02408  -0.0276   0.2809   1.0000
  12.750   1.4336   0.03302   0.02512  -0.0251   0.2738   1.0000
  13.000   1.4326   0.03433   0.02655  -0.0224   0.2658   1.0000
  13.250   1.4323   0.03569   0.02793  -0.0200   0.2577   1.0000
  13.500   1.4300   0.03732   0.02965  -0.0177   0.2488   1.0000
  13.750   1.4267   0.03918   0.03157  -0.0156   0.2391   1.0000
  14.000   1.4224   0.04122   0.03359  -0.0137   0.2299   1.0000
  14.250   1.4188   0.04350   0.03599  -0.0122   0.2198   1.0000
  14.500   1.4152   0.04588   0.03843  -0.0108   0.2112   1.0000
  14.750   1.4090   0.04864   0.04122  -0.0096   0.2015   1.0000
  15.000   1.4008   0.05179   0.04444  -0.0087   0.1896   1.0000
  15.250   1.3933   0.05503   0.04772  -0.0080   0.1797   1.0000
  15.500   1.3810   0.05894   0.05165  -0.0076   0.1676   1.0000
  15.750   1.3699   0.06286   0.05561  -0.0073   0.1578   1.0000
  16.000   1.3586   0.06699   0.05978  -0.0073   0.1473   1.0000
