
 ===================================================
  XFOIL Version 6.99
  Copyright (C) 2000   Mark Drela, Harold Youngren

  This software comes with ABSOLUTELY NO WARRANTY,
    subject to the GNU General Public License.

  Caveat computor
 ===================================================

 File  xfoil.def  not found

   QUIT    Exit program

  .OPER    Direct operating point(s)
  .MDES    Complex mapping design routine
  .QDES    Surface speed design routine
  .GDES    Geometry design routine

   SAVE f  Write airfoil to labeled coordinate file
   PSAV f  Write airfoil to plain coordinate file
   ISAV f  Write airfoil to ISES coordinate file
   MSAV f  Write airfoil to MSES coordinate file
   REVE    Reverse written-airfoil node ordering

   LOAD f  Read buffer airfoil from coordinate file
   NACA i  Set NACA 4,5-digit airfoil and buffer airfoil
   INTE    Set buffer airfoil by interpolating two airfoils
   NORM    Buffer airfoil normalization toggle
   XYCM rr Change CM reference location, currently  0.25000 0.00000

   BEND    Display structural properties of current airfoil

   PCOP    Set current-airfoil panel nodes directly from buffer airfoil points
   PANE    Set current-airfoil panel nodes ( 160 ) based on curvature
  .PPAR    Show/change paneling

  .PLOP    Plotting options

   WDEF f  Write  current-settings file
   RDEF f  Reread current-settings file
   NAME s  Specify new airfoil name
   NINC    Increment name version number

   Z       Zoom    | (available in all menus)
   U       Unzoom  | 

 XFOIL   c>  
 Labeled airfoil file.  Name:  GOE 505 AIRFOIL                                 

 Number of input coordinate points:  33
 Counterclockwise ordering
 Max thickness =     0.139986  at x =   0.201
 Max camber    =     0.058187  at x =   0.400

  LE  x,y  =  -0.00005   0.00113  |   Chord =   1.00005
  TE  x,y  =   1.00000   0.00000  |

 Current airfoil nodes set from buffer airfoil nodes (  33 )

 WARNING: Poor input coordinate distribution
          Excessive panel angle   67.3  at i =  17
          Repaneling with PANE and/or PPAR suggested
           (doing GDES,CADD before repaneling _may_
            improve excessively coarse LE spacing

 XFOIL   c>  
 XFOIL   c>  
 Sharp trailing edge

 Paneling parameters used...
   Number of panel nodes       160
   Panel bunching parameter    1.000
   TE/LE panel density ratio   0.150
   Refined-area/LE panel density ratio    0.200
   Top    side refined area x/c limits  1.000 1.000
   Bottom side refined area x/c limits  1.000 1.000

 XFOIL   c>  
.OPERi   c>  
 Xtr/c     =  1.0000    top    side
 Xtr/c     =  1.0000    bottom side
 Ncrit     =    9.00   ( 0.070 % turb. level )
 Vacc      =  0.0100

 Klag  =  5.6000     Uxwt  =    1.00
 A     =  6.7000     B     =  0.7500       KCt = 0.01485
 CtiniK=  1.8000     CtiniX=  3.3000

..VPAR   c>  
..VPAR   c>  
.OPERi   c>  
 M  =    0.0000
 Re =    500000

.OPERv   c>  
.OPERv   c>  
.OPERv   c>  
 Polar  1 newly created for accumulation
 Airfoil archived with polar: GOE 505 AIRFOIL                                 

Enter  polar save filename  OR  <return> for no file   s>  
 New polar save file available

Enter  polar dump filename  OR  <return> for no file   s>  
 Polar dump file will NOT be written

 Polar accumulation enabled

.OPERva   c>   Calculating unit vorticity distributions ...
 Calculating wake trajectory ...
 Calculating source influence matrix ...

 Solving BL system ...

 Initializing BL ...
    side            1  ...
 MRCHUE: Inverse mode at  56     Hk =   3.800
 MRCHUE: Inverse mode at  57     Hk =   4.425
 MRCHUE: Inverse mode at  58     Hk =   5.049
 MRCHUE: Inverse mode at  59     Hk =   5.676
 MRCHUE: Inverse mode at  60     Hk =   6.306
 MRCHUE: Inverse mode at  61     Hk =   6.937
 MRCHUE: Inverse mode at  62     Hk =   7.562
 MRCHUE: Inverse mode at  63     Hk =   7.286
 MRCHUE: Inverse mode at  64     Hk =   4.653
 MRCHUE: Inverse mode at  65     Hk =   3.069
 MRCHUE: Inverse mode at  76     Hk =   2.500
    side            2  ...
 MRCHUE: Inverse mode at  21     Hk =   4.197
 MRCHUE: Convergence failed at  22  side 2    Res =  0.2523E+01
 MRCHUE: Inverse mode at  23     Hk =   5.550
 MRCHUE: Inverse mode at  24     Hk =   6.934
 MRCHUE: Inverse mode at  25     Hk =   8.346
 MRCHUE: Inverse mode at  26     Hk =   7.787
 MRCHUE: Inverse mode at  27     Hk =   2.500
 MRCHUE: Inverse mode at  85     Hk =   2.500
 MRCHUE: Convergence failed at  86  side 2    Res =  0.3746E+01

 MRCHDU: Convergence failed at  86  side 2    Res =  0.1183E+01
 Side 1  free  transition at x/c =  0.8195   63
 Side 2  free  transition at x/c =  0.0540   27

   1   rms: 0.3075E+00   max: 0.1433E+01   T at   27  2   RLX: 0.611
       a = -4.000      CL =  0.1860
      Cm = -0.1273     CD =  0.01043   =>   CDf =  0.00652    CDp =  0.00391

 MRCHDU: Convergence failed at  27  side 2    Res =  0.8430E+01
 MRCHDU: Convergence failed at  28  side 2    Res =  0.1385E+02
 MRCHDU: Convergence failed at  29  side 2    Res =  0.1213E+03
 MRCHDU: Convergence failed at  30  side 2    Res =  0.2211E+02
 MRCHDU: Convergence failed at  31  side 2    Res =  0.1324E+02
 MRCHDU: Convergence failed at  32  side 2    Res =  0.1238E+02
 MRCHDU: Convergence failed at  33  side 2    Res =  0.1454E+02
 MRCHDU: Convergence failed at  34  side 2    Res =  0.2107E+02
 MRCHDU: Convergence failed at  35  side 2    Res =  0.9344E+02
 MRCHDU: Convergence failed at  36  side 2    Res =  0.3071E+02
 MRCHDU: Convergence failed at  37  side 2    Res =  0.3564E+02
 MRCHDU: Convergence failed at  38  side 2    Res =  0.2773E+02
 MRCHDU: Convergence failed at  39  side 2    Res =  0.2353E+02
 MRCHDU: Convergence failed at  40  side 2    Res =  0.2158E+02
 MRCHDU: Convergence failed at  41  side 2    Res =  0.1956E+02
 MRCHDU: Convergence failed at  42  side 2    Res =  0.2982E+02
 MRCHDU: Convergence failed at  43  side 2    Res =  0.2602E+02
 MRCHDU: Convergence failed at  44  side 2    Res =  0.3572E+03
 MRCHDU: Convergence failed at  45  side 2    Res =  0.4538E+02
 MRCHDU: Convergence failed at  46  side 2    Res =  0.7930E+02
 MRCHDU: Convergence failed at  47  side 2    Res =  0.1170E+04
 MRCHDU: Convergence failed at  48  side 2    Res =  0.1211E+03
 MRCHDU: Convergence failed at  49  side 2    Res =  0.4419E+02
 MRCHDU: Convergence failed at  50  side 2    Res =  0.2352E+02
 MRCHDU: Convergence failed at  51  side 2    Res =  0.5007E+02
 MRCHDU: Convergence failed at  52  side 2    Res =  0.2034E+02
 MRCHDU: Convergence failed at  53  side 2    Res =  0.1868E+02
 MRCHDU: Convergence failed at  54  side 2    Res =  0.2130E+02
 MRCHDU: Convergence failed at  55  side 2    Res =  0.2489E+02
 MRCHDU: Convergence failed at  56  side 2    Res =  0.7412E+02
 MRCHDU: Convergence failed at  57  side 2    Res =  0.7368E+02
 MRCHDU: Convergence failed at  58  side 2    Res =  0.5640E+02
 MRCHDU: Convergence failed at  59  side 2    Res =  0.2973E+02
 MRCHDU: Convergence failed at  60  side 2    Res =  0.4430E+02
 MRCHDU: Convergence failed at  61  side 2    Res =  0.3554E+03
 MRCHDU: Convergence failed at  62  side 2    Res =  0.1001E+03
 MRCHDU: Convergence failed at  63  side 2    Res =  0.5388E+02
 MRCHDU: Convergence failed at  64  side 2    Res =  0.4206E+02
 MRCHDU: Convergence failed at  65  side 2    Res =  0.3790E+02
 MRCHDU: Convergence failed at  66  side 2    Res =  0.3606E+02
 MRCHDU: Convergence failed at  67  side 2    Res =  0.3570E+02
 MRCHDU: Convergence failed at  68  side 2    Res =  0.3725E+02
 MRCHDU: Convergence failed at  69  side 2    Res =  0.4153E+02
 MRCHDU: Convergence failed at  70  side 2    Res =  0.5596E+02
 MRCHDU: Convergence failed at  71  side 2    Res =  0.1119E+03
 MRCHDU: Convergence failed at  72  side 2    Res =  0.1977E+03
 MRCHDU: Convergence failed at  73  side 2    Res =  0.3218E+02
 MRCHDU: Convergence failed at  74  side 2    Res =  0.3605E+02
 MRCHDU: Convergence failed at  75  side 2    Res =  0.1051E+03
 MRCHDU: Convergence failed at  76  side 2    Res =  0.1390E+03
 MRCHDU: Convergence failed at  77  side 2    Res =  0.3639E+02
 MRCHDU: Convergence failed at  78  side 2    Res =  0.2642E+02
 MRCHDU: Convergence failed at  79  side 2    Res =  0.2361E+02
 MRCHDU: Convergence failed at  80  side 2    Res =  0.2558E+02
 MRCHDU: Convergence failed at  81  side 2    Res =  0.2990E+02
 MRCHDU: Convergence failed at  82  side 2    Res =  0.2437E+02
 MRCHDU: Convergence failed at  83  side 2    Res =  0.5695E+02
 MRCHDU: Convergence failed at  84  side 2    Res =  0.1058E+03
 MRCHDU: Convergence failed at  85  side 2    Res =  0.7059E+02
 MRCHDU: Convergence failed at  86  side 2    Res =  0.2865E+02
 Side 1  free  transition at x/c =  0.8175   63
 Side 2  free  transition at x/c =  0.0467   26

   2   rms: 0.7926E+00   max: 0.2821E+01   D at   88  2   RLX: 0.401
       a = -4.000      CL = -0.2240
      Cm =  0.0333     CD =  0.00658   =>   CDf =  0.00288    CDp =  0.00370

 MRCHDU: Convergence failed at  44  side 2    Res =  0.1360E+00
 MRCHDU: Convergence failed at  46  side 2    Res =  0.2021E+00
 MRCHDU: Convergence failed at  87  side 2    Res =  0.6738E+01
 Side 1  free  transition at x/c =  0.8205   64
 Side 2  free  transition at x/c =  0.0495   25

   3   rms: 0.3809E+00   max: -.1209E+01   D at   26  2   RLX: 0.414
       a = -4.000      CL =  0.1637
      Cm = -0.1086     CD =  0.02174   =>   CDf =  0.00394    CDp =  0.01781

 MRCHDU: Convergence failed at  47  side 2    Res =  0.2304E+00
 MRCHDU: Convergence failed at  48  side 2    Res =  0.6682E+00
 MRCHDU: Convergence failed at  49  side 2    Res =  0.2167E+00
 MRCHDU: Convergence failed at  50  side 2    Res =  0.1864E+00
 MRCHDU: Convergence failed at  51  side 2    Res =  0.1513E+00
 MRCHDU: Convergence failed at  52  side 2    Res =  0.1152E+00
 MRCHDU: Convergence failed at  53  side 2    Res =  0.7821E-01
 MRCHDU: Convergence failed at  55  side 2    Res =  0.2129E+01
 MRCHDU: Convergence failed at  56  side 2    Res =  0.1703E+01
 MRCHDU: Convergence failed at  57  side 2    Res =  0.1641E+01
 MRCHDU: Convergence failed at  58  side 2    Res =  0.1422E+01
 MRCHDU: Convergence failed at  59  side 2    Res =  0.6739E+01
 Side 1  free  transition at x/c =  0.8215   64
 Side 2  free  transition at x/c =  0.0497   25

   4   rms: 0.7336E+00   max: -.5019E+01   D at   53  2   RLX: 0.100
       a = -4.000      CL =  0.2780
      Cm = -0.1456     CD =  0.01977   =>   CDf =  0.00464    CDp =  0.01513

 MRCHDU: Convergence failed at  53  side 2    Res =  0.4423E+00
 MRCHDU: Convergence failed at  54  side 2    Res =  0.4867E+00
 MRCHDU: Convergence failed at  55  side 2    Res =  0.4666E+00
 MRCHDU: Convergence failed at  56  side 2    Res =  0.4591E+00
 MRCHDU: Convergence failed at  57  side 2    Res =  0.4570E+00
 MRCHDU: Convergence failed at  58  side 2    Res =  0.4588E+00
 MRCHDU: Convergence failed at  59  side 2    Res =  0.4673E+00
 Side 1  free  transition at x/c =  0.8216   64
 Side 2  free  transition at x/c =  0.0503   25

   5   rms: 0.2321E+01   max: -.1343E+02   D at   60  2   RLX: 0.037
       a = -4.000      CL =  0.3767
      Cm = -0.1804     CD =  0.01999   =>   CDf =  0.00395    CDp =  0.01604

 MRCHDU: Convergence failed at  60  side 2    Res =  0.1613E+00
 MRCHDU: Convergence failed at  61  side 2    Res =  0.4408E+00
 Side 1  free  transition at x/c =  0.8221   64
 Side 2  free  transition at x/c =  0.0513   25

   6   rms: 0.6278E+01   max: 0.3099E+02   D at   40  2   RLX: 0.048
       a = -4.000      CL =  0.5325
      Cm = -0.2056     CD =  0.03742   =>   CDf =  0.00407    CDp =  0.03335

 MRCHDU: Convergence failed at  25  side 2    Res =  0.4533E+01
 MRCHDU: Convergence failed at  26  side 2    Res =  0.2404E+01
 Side 1  free  transition at x/c =  0.8288   66
 Side 2  free  transition at x/c =  0.0595   25
 idif Ue xi dudx           1  0.11055700      2.42781639E-03   45.537632    
 Uenew xinew           2  3.30596184E-03  7.25984573E-05

   7   rms: 0.9516E+00   max: -.5961E+01   D at   40  2   RLX: 0.084
       a = -4.000      CL =  0.5281
      Cm = -0.2175     CD =  0.02862   =>   CDf =  0.00376    CDp =  0.02486

 Side 1  free  transition at x/c =  0.8268   65
 Side 2  free  transition at x/c =  0.0555   26

   8   rms: 0.1497E+01   max: 0.1560E+02   T at    2  2   RLX: 0.064
       a = -4.000      CL =  0.4888
      Cm = -0.2104     CD =  0.02741   =>   CDf =  0.00422    CDp =  0.02319

 MRCHDU: Convergence failed at  41  side 2    Res =  0.3252E-01
 Side 1  free  transition at x/c =  0.8252   65
 Side 2  free  transition at x/c =  0.0529   25

   9   rms: 0.7742E+00   max: -.2592E+01   D at   38  2   RLX: 0.193
       a = -4.000      CL =  0.3956
      Cm = -0.1983     CD =  0.02249   =>   CDf =  0.00441    CDp =  0.01808

 Side 1  free  transition at x/c =  0.8210   64
 Side 2  free  transition at x/c =  0.0487   25
 idif Ue xi dudx           1  0.15789074      4.05263901E-03   38.959980    
 Uenew xinew           2  5.44136912E-02  1.39665604E-03

  10   rms: 0.1679E+01   max: -.5680E+01   D at   61  2   RLX: 0.088
       a = -4.000      CL =  0.3061
      Cm = -0.1929     CD =  0.01912   =>   CDf =  0.00433    CDp =  0.01479

 Side 1  free  transition at x/c =  0.8153   63
 Side 2  free  transition at x/c =  0.0459   26

  11   rms: 0.1230E+01   max: -.4451E+01   D at   73  2   RLX: 0.112
       a = -4.000      CL =  0.2164
      Cm = -0.1787     CD =  0.01778   =>   CDf =  0.00454    CDp =  0.01324

 Side 1  free  transition at x/c =  0.8099   63
 Side 2  free  transition at x/c =  0.0445   25
 idif Ue xi dudx           1  0.16633554      5.13863564E-03   32.369591    
 Uenew xinew           2  6.76825792E-02  2.09093094E-03

  12   rms: 0.1073E+01   max: -.3929E+01   D at   74  2   RLX: 0.127
       a = -4.000      CL =  0.1144
      Cm = -0.1568     CD =  0.01719   =>   CDf =  0.00455    CDp =  0.01264

 Side 1  free  transition at x/c =  0.8058   61
 Side 2  free  transition at x/c =  0.0435   26

  13   rms: 0.6120E+00   max: -.2469E+01   D at   76  2   RLX: 0.203
       a = -4.000      CL =  0.0615
      Cm = -0.1405     CD =  0.01464   =>   CDf =  0.00484    CDp =  0.00981

 Side 1  free  transition at x/c =  0.8032   61
 Side 2  free  transition at x/c =  0.0430   26

  14   rms: 0.4374E+00   max: -.1564E+01   D at   78  2   RLX: 0.320
       a = -4.000      CL =  0.0761
      Cm = -0.1328     CD =  0.01284   =>   CDf =  0.00509    CDp =  0.00775

 Side 1  free  transition at x/c =  0.8047   61
 Side 2  free  transition at x/c =  0.0433   26

  15   rms: 0.4518E+00   max: -.1932E+01   D at   48  2   RLX: 0.259
       a = -4.000      CL =  0.1136
      Cm = -0.1334     CD =  0.01177   =>   CDf =  0.00553    CDp =  0.00624

 Side 1  free  transition at x/c =  0.8071   62
 Side 2  free  transition at x/c =  0.0437   26

  16   rms: 0.2224E+00   max: -.9414E+00   D at   46  2   RLX: 0.531
       a = -4.000      CL =  0.1493
      Cm = -0.1288     CD =  0.01168   =>   CDf =  0.00603    CDp =  0.00565

 Side 1  free  transition at x/c =  0.8093   62
 Side 2  free  transition at x/c =  0.0443   26

  17   rms: 0.1140E+00   max: -.6249E+00   D at   46  2   RLX: 0.800
       a = -4.000      CL =  0.1887
      Cm = -0.1272     CD =  0.01168   =>   CDf =  0.00642    CDp =  0.00526

 Side 1  free  transition at x/c =  0.8111   63
 Side 2  free  transition at x/c =  0.0448   25

  18   rms: 0.3127E-01   max: -.2523E+00   D at   45  2
       a = -4.000      CL =  0.2001
      Cm = -0.1269     CD =  0.01175   =>   CDf =  0.00655    CDp =  0.00520

 Side 1  free  transition at x/c =  0.8117   63
 Side 2  free  transition at x/c =  0.0449   25

  19   rms: 0.1784E-02   max: -.2354E-01   D at   45  2
       a = -4.000      CL =  0.2000
      Cm = -0.1268     CD =  0.01176   =>   CDf =  0.00660    CDp =  0.00516

 Side 1  free  transition at x/c =  0.8117   63
 Side 2  free  transition at x/c =  0.0449   25

  20   rms: 0.1359E-04   max: -.1944E-03   D at   45  2
       a = -4.000      CL =  0.2000
      Cm = -0.1268     CD =  0.01176   =>   CDf =  0.00660    CDp =  0.00516
 plradd ia,ip,cpol            1           0  1.06683755E-02

 Point added to stored polar  1
 Point written to save file  goe505_Re500k.base.pol                          
 Dump file unspecified or not available
 Calculating wake trajectory ...
 Calculating source influence matrix ...

 Solving BL system ...

 Side 1  free  transition at x/c =  0.8117   63
 Side 2  free  transition at x/c =  0.0449   25

   1   rms: 0.8175E-01   max: -.1659E+00   T at   25  2
       a = -3.500      CL =  0.2535
      Cm = -0.1261     CD =  0.01126   =>   CDf =  0.00669    CDp =  0.00457

 Side 1  free  transition at x/c =  0.8030   63
 Side 2  free  transition at x/c =  0.0465   25

   2   rms: 0.1960E-01   max: -.1979E+00   D at   24  2
       a = -3.500      CL =  0.2502
      Cm = -0.1255     CD =  0.01122   =>   CDf =  0.00670    CDp =  0.00452

 Side 1  free  transition at x/c =  0.8031   63
 Side 2  free  transition at x/c =  0.0471   25

   3   rms: 0.1133E-02   max: 0.7700E-02   D at    4  1
       a = -3.500      CL =  0.2499
      Cm = -0.1254     CD =  0.01123   =>   CDf =  0.00668    CDp =  0.00454

 Side 1  free  transition at x/c =  0.8030   63
 Side 2  free  transition at x/c =  0.0470   25

   4   rms: 0.4560E-05   max: 0.3084E-04   D at   24  2
       a = -3.500      CL =  0.2499
      Cm = -0.1254     CD =  0.01123   =>   CDf =  0.00668    CDp =  0.00454
 plradd ia,ip,cpol            2           0  1.34629430E-02

 Point added to stored polar  1
 Point written to save file  goe505_Re500k.base.pol                          
 Dump file unspecified or not available
 Calculating wake trajectory ...
 Calculating source influence matrix ...

 Solving BL system ...

 Side 1  free  transition at x/c =  0.8030   63
 Side 2  free  transition at x/c =  0.0470   25

   1   rms: 0.8065E-01   max: -.2250E+00   T at   25  2
       a = -3.000      CL =  0.2916
      Cm = -0.1222     CD =  0.01075   =>   CDf =  0.00669    CDp =  0.00407

 Side 1  free  transition at x/c =  0.7913   63
 Side 2  free  transition at x/c =  0.0515   25

   2   rms: 0.1457E-01   max: -.1541E+00   D at   63  1
       a = -3.000      CL =  0.3006
      Cm = -0.1241     CD =  0.01079   =>   CDf =  0.00675    CDp =  0.00404

 Side 1  free  transition at x/c =  0.7935   63
 Side 2  free  transition at x/c =  0.0516   25

   3   rms: 0.1373E-02   max: 0.1061E-01   C at   25  2
       a = -3.000      CL =  0.2993
      Cm = -0.1238     CD =  0.01081   =>   CDf =  0.00671    CDp =  0.00410

 Side 1  free  transition at x/c =  0.7933   63
 Side 2  free  transition at x/c =  0.0515   25

   4   rms: 0.6744E-05   max: -.7465E-04   D at   63  1
       a = -3.000      CL =  0.2993
      Cm = -0.1238     CD =  0.01081   =>   CDf =  0.00671    CDp =  0.00410
 plradd ia,ip,cpol            3           0  1.34629430E-02

 Point added to stored polar  1
 Point written to save file  goe505_Re500k.base.pol                          
 Dump file unspecified or not available
 Calculating wake trajectory ...
 Calculating source influence matrix ...

 Solving BL system ...

 Side 1  free  transition at x/c =  0.7933   63
 Side 2  free  transition at x/c =  0.0515   25

   1   rms: 0.8640E-01   max: -.3302E+00   C at   25  2
       a = -2.500      CL =  0.3545
      Cm = -0.1235     CD =  0.01044   =>   CDf =  0.00677    CDp =  0.00367

 Side 1  free  transition at x/c =  0.7850   63
 Side 2  free  transition at x/c =  0.0600   25

   2   rms: 0.3675E-01   max: -.6916E+00   C at   25  2   RLX: 0.723
       a = -2.500      CL =  0.3489
      Cm = -0.1223     CD =  0.01044   =>   CDf =  0.00671    CDp =  0.00373

 Side 1  free  transition at x/c =  0.7839   63
 Side 2  free  transition at x/c =  0.0651   26

   3   rms: 0.2413E-01   max: -.3080E+00   C at   26  2
       a = -2.500      CL =  0.3464
      Cm = -0.1218     CD =  0.01036   =>   CDf =  0.00667    CDp =  0.00369

 Side 1  free  transition at x/c =  0.7835   63
 Side 2  free  transition at x/c =  0.0764   27

   4   rms: 0.1106E-01   max: -.1613E+00   D at   27  2
       a = -2.500      CL =  0.3467
      Cm = -0.1219     CD =  0.01042   =>   CDf =  0.00660    CDp =  0.00382

 Side 1  free  transition at x/c =  0.7835   63
 Side 2  free  transition at x/c =  0.0733   26

   5   rms: 0.1287E-02   max: -.2367E-01   D at   27  2
       a = -2.500      CL =  0.3466
      Cm = -0.1219     CD =  0.01040   =>   CDf =  0.00662    CDp =  0.00379

 Side 1  free  transition at x/c =  0.7835   63
 Side 2  free  transition at x/c =  0.0728   26

   6   rms: 0.8696E-05   max: -.1562E-03   D at   27  2
       a = -2.500      CL =  0.3466
      Cm = -0.1219     CD =  0.01040   =>   CDf =  0.00662    CDp =  0.00379
 plradd ia,ip,cpol            4           0  1.34629430E-02

 Point added to stored polar  1
 Point written to save file  goe505_Re500k.base.pol                          
 Dump file unspecified or not available
 Calculating wake trajectory ...
 Calculating source influence matrix ...

 Solving BL system ...

 Side 1  free  transition at x/c =  0.7835   63
 Side 2  free  transition at x/c =  0.0728   26

   1   rms: 0.1087E+00   max: -.1354E+01   C at   26  2   RLX: 0.369
       a = -2.000      CL =  0.3633
      Cm = -0.1209     CD =  0.01027   =>   CDf =  0.00662    CDp =  0.00365

 MRCHDU: Convergence failed at  29  side 2    Res =  0.1620E+01
 Side 1  free  transition at x/c =  0.7790   63
 Side 2  free  transition at x/c =  0.1117   29

   2   rms: 0.6426E-01   max: 0.3316E+00   D at   29  2
       a = -2.000      CL =  0.3956
      Cm = -0.1203     CD =  0.00998   =>   CDf =  0.00650    CDp =  0.00348

 Side 1  free  transition at x/c =  0.7725   63
 Side 2  free  transition at x/c =  0.1366   30

   3   rms: 0.1403E-01   max: -.1415E+00   D at   31  2
       a = -2.000      CL =  0.3977
      Cm = -0.1208     CD =  0.00997   =>   CDf =  0.00645    CDp =  0.00352

 Side 1  free  transition at x/c =  0.7732   63
 Side 2  free  transition at x/c =  0.1293   29

   4   rms: 0.1223E-02   max: -.1718E-01   D at   29  2
       a = -2.000      CL =  0.3977
      Cm = -0.1208     CD =  0.00998   =>   CDf =  0.00647    CDp =  0.00351

 Side 1  free  transition at x/c =  0.7732   63
 Side 2  free  transition at x/c =  0.1286   29

   5   rms: 0.1601E-04   max: -.2995E-03   C at   29  2
       a = -2.000      CL =  0.3977
      Cm = -0.1208     CD =  0.00998   =>   CDf =  0.00647    CDp =  0.00351
 plradd ia,ip,cpol            5           0  1.34629430E-02

 Point added to stored polar  1
 Point written to save file  goe505_Re500k.base.pol                          
 Dump file unspecified or not available
 Calculating wake trajectory ...
 Calculating source influence matrix ...

 Solving BL system ...

 Side 1  free  transition at x/c =  0.7732   63
 Side 2  free  transition at x/c =  0.1286   29

   1   rms: 0.8183E-01   max: -.7975E+00   C at   29  2   RLX: 0.627
       a = -1.500      CL =  0.4166
      Cm = -0.1172     CD =  0.00986   =>   CDf =  0.00647    CDp =  0.00339

 Side 1  free  transition at x/c =  0.7626   63
 Side 2  free  transition at x/c =  0.1468   31

   2   rms: 0.4810E-01   max: 0.4431E+00   D at   31  2
       a = -1.500      CL =  0.4395
      Cm = -0.1176     CD =  0.00970   =>   CDf =  0.00643    CDp =  0.00327

 Side 1  free  transition at x/c =  0.7594   63
 Side 2  free  transition at x/c =  0.1598   31

   3   rms: 0.1271E-01   max: -.1905E+00   C at   31  2
       a = -1.500      CL =  0.4402
      Cm = -0.1177     CD =  0.00978   =>   CDf =  0.00642    CDp =  0.00336

 Side 1  free  transition at x/c =  0.7596   63
 Side 2  free  transition at x/c =  0.1672   32

   4   rms: 0.6692E-02   max: 0.1174E+00   C at   32  2
       a = -1.500      CL =  0.4399
      Cm = -0.1177     CD =  0.00977   =>   CDf =  0.00634    CDp =  0.00342

 Side 1  free  transition at x/c =  0.7596   63
 Side 2  free  transition at x/c =  0.1646   32

   5   rms: 0.2722E-03   max: -.5737E-02   D at   33  2
       a = -1.500      CL =  0.4399
      Cm = -0.1177     CD =  0.00977   =>   CDf =  0.00636    CDp =  0.00341

 Side 1  free  transition at x/c =  0.7596   63
 Side 2  free  transition at x/c =  0.1646   32

   6   rms: 0.1530E-05   max: -.1994E-04   D at   33  2
       a = -1.500      CL =  0.4399
      Cm = -0.1177     CD =  0.00977   =>   CDf =  0.00636    CDp =  0.00341
 plradd ia,ip,cpol            6           0  1.34629430E-02

 Point added to stored polar  1
 Point written to save file  goe505_Re500k.base.pol                          
 Dump file unspecified or not available
 Calculating wake trajectory ...
 Calculating source influence matrix ...

 Solving BL system ...

 Side 1  free  transition at x/c =  0.7596   63
 Side 2  free  transition at x/c =  0.1646   32

   1   rms: 0.9846E-01   max: 0.7325E+00   D at   32  2   RLX: 0.828
       a = -1.000      CL =  0.4848
      Cm = -0.1173     CD =  0.00958   =>   CDf =  0.00637    CDp =  0.00321

 Side 1  free  transition at x/c =  0.7489   63
 Side 2  free  transition at x/c =  0.1786   32

   2   rms: 0.4944E-01   max: -.4242E+00   D at   31  2
       a = -1.000      CL =  0.4790
      Cm = -0.1139     CD =  0.00947   =>   CDf =  0.00645    CDp =  0.00302

 MRCHDU: Convergence failed at  33  side 2    Res =  0.1909E+02
 Side 1  free  transition at x/c =  0.7431   63
 Side 2  free  transition at x/c =  0.2030   33

   3   rms: 0.3118E-01   max: 0.3842E+00   C at   33  2
       a = -1.000      CL =  0.4821
      Cm = -0.1146     CD =  0.00955   =>   CDf =  0.00628    CDp =  0.00327

 Side 1  free  transition at x/c =  0.7442   63
 Side 2  free  transition at x/c =  0.1901   32

   4   rms: 0.6003E-02   max: -.8726E-01   C at   32  2
       a = -1.000      CL =  0.4833
      Cm = -0.1148     CD =  0.00964   =>   CDf =  0.00635    CDp =  0.00329

 Side 1  free  transition at x/c =  0.7441   63
 Side 2  free  transition at x/c =  0.1906   32

   5   rms: 0.2378E-03   max: 0.4053E-02   C at   32  2
       a = -1.000      CL =  0.4833
      Cm = -0.1148     CD =  0.00964   =>   CDf =  0.00634    CDp =  0.00330

 Side 1  free  transition at x/c =  0.7441   63
 Side 2  free  transition at x/c =  0.1905   32

   6   rms: 0.1235E-05   max: -.7820E-05   D at   33  2
       a = -1.000      CL =  0.4833
      Cm = -0.1148     CD =  0.00964   =>   CDf =  0.00634    CDp =  0.00330
 plradd ia,ip,cpol            7           0  0.20116073    

 Point added to stored polar  1
 Point written to save file  goe505_Re500k.base.pol                          
 Dump file unspecified or not available
 Calculating wake trajectory ...
 Calculating source influence matrix ...

 Solving BL system ...

 Side 1  free  transition at x/c =  0.7441   63
 Side 2  free  transition at x/c =  0.1905   32

   1   rms: 0.8076E-01   max: -.3172E+00   T at   32  2
       a = -0.500      CL =  0.5342
      Cm = -0.1135     CD =  0.00957   =>   CDf =  0.00634    CDp =  0.00322

 MRCHDU: Convergence failed at  33  side 2    Res =  0.2176E+01
 MRCHDU: Convergence failed at  34  side 2    Res =  0.2599E+01
 MRCHDU: Convergence failed at  35  side 2    Res =  0.3181E+02
 MRCHDU: Convergence failed at  36  side 2    Res =  0.2465E+02
 MRCHDU: Convergence failed at  37  side 2    Res =  0.3114E+02
 MRCHDU: Convergence failed at  38  side 2    Res =  0.5687E+03
 MRCHDU: Convergence failed at  39  side 2    Res =  0.2601E+02
 MRCHDU: Convergence failed at  40  side 2    Res =  0.1529E+02
 MRCHDU: Convergence failed at  41  side 2    Res =  0.1212E+02
 MRCHDU: Convergence failed at  42  side 2    Res =  0.1030E+02
 MRCHDU: Convergence failed at  43  side 2    Res =  0.9065E+01
 MRCHDU: Convergence failed at  44  side 2    Res =  0.8516E+01
 MRCHDU: Convergence failed at  45  side 2    Res =  0.8070E+01
 MRCHDU: Convergence failed at  46  side 2    Res =  0.7596E+01
 MRCHDU: Convergence failed at  47  side 2    Res =  0.7084E+01
 MRCHDU: Convergence failed at  48  side 2    Res =  0.6418E+01
 MRCHDU: Convergence failed at  49  side 2    Res =  0.5676E+01
 MRCHDU: Convergence failed at  50  side 2    Res =  0.4922E+01
 MRCHDU: Convergence failed at  51  side 2    Res =  0.4201E+01
 MRCHDU: Convergence failed at  52  side 2    Res =  0.3559E+01
 MRCHDU: Convergence failed at  53  side 2    Res =  0.3010E+01
 MRCHDU: Convergence failed at  54  side 2    Res =  0.2565E+01
 MRCHDU: Convergence failed at  55  side 2    Res =  0.2242E+01
 MRCHDU: Convergence failed at  56  side 2    Res =  0.1950E+01
 MRCHDU: Convergence failed at  57  side 2    Res =  0.1751E+01
 MRCHDU: Convergence failed at  58  side 2    Res =  0.1590E+01
 MRCHDU: Convergence failed at  59  side 2    Res =  0.1463E+01
 MRCHDU: Convergence failed at  60  side 2    Res =  0.1275E+01
 MRCHDU: Convergence failed at  61  side 2    Res =  0.1272E+01
 MRCHDU: Convergence failed at  62  side 2    Res =  0.1282E+01
 MRCHDU: Convergence failed at  63  side 2    Res =  0.1296E+01
 MRCHDU: Convergence failed at  64  side 2    Res =  0.1321E+01
 MRCHDU: Convergence failed at  65  side 2    Res =  0.1361E+01
 MRCHDU: Convergence failed at  66  side 2    Res =  0.1420E+01
 MRCHDU: Convergence failed at  67  side 2    Res =  0.1508E+01
 MRCHDU: Convergence failed at  68  side 2    Res =  0.1628E+01
 MRCHDU: Convergence failed at  69  side 2    Res =  0.1848E+01
 MRCHDU: Convergence failed at  70  side 2    Res =  0.2029E+01
 MRCHDU: Convergence failed at  71  side 2    Res =  0.2241E+01
 MRCHDU: Convergence failed at  72  side 2    Res =  0.2464E+01
 MRCHDU: Convergence failed at  73  side 2    Res =  0.2688E+01
 MRCHDU: Convergence failed at  74  side 2    Res =  0.2880E+01
 MRCHDU: Convergence failed at  75  side 2    Res =  0.3099E+01
 MRCHDU: Convergence failed at  76  side 2    Res =  0.3494E+01
 MRCHDU: Convergence failed at  77  side 2    Res =  0.4300E+01
 MRCHDU: Convergence failed at  78  side 2    Res =  0.5861E+01
 MRCHDU: Convergence failed at  79  side 2    Res =  0.9813E+01
 MRCHDU: Convergence failed at  80  side 2    Res =  0.3116E+02
 MRCHDU: Convergence failed at  81  side 2    Res =  0.1184E+02
 Side 1  free  transition at x/c =  0.7267   63
 Side 2  free  transition at x/c =  0.2172   33

   2   rms: 0.2968E+00   max: -.1257E+01   D at   61  2   RLX: 0.398
       a = -0.500      CL =  0.4771
      Cm = -0.0885     CD =  0.00678   =>   CDf =  0.00335    CDp =  0.00343

 Side 1  free  transition at x/c =  0.7256   63
 Side 2  free  transition at x/c =  0.2261   33

   3   rms: 0.1149E+00   max: 0.6922E+00   D at   81  2   RLX: 0.741
       a = -0.500      CL =  0.4784
      Cm = -0.0980     CD =  0.00875   =>   CDf =  0.00679    CDp =  0.00196

 Side 1  free  transition at x/c =  0.7267   63
 Side 2  free  transition at x/c =  0.2078   32

   4   rms: 0.3788E-01   max: 0.2257E+00   D at   80  2
       a = -0.500      CL =  0.5255
      Cm = -0.1117     CD =  0.00953   =>   CDf =  0.00650    CDp =  0.00303

 Side 1  free  transition at x/c =  0.7258   63
 Side 2  free  transition at x/c =  0.2123   33

   5   rms: 0.2897E-02   max: -.2861E-01   D at   80  2
       a = -0.500      CL =  0.5257
      Cm = -0.1117     CD =  0.00953   =>   CDf =  0.00637    CDp =  0.00316

 Side 1  free  transition at x/c =  0.7258   63
 Side 2  free  transition at x/c =  0.2130   33

   6   rms: 0.1063E-03   max: 0.9993E-03   T at   33  2
       a = -0.500      CL =  0.5257
      Cm = -0.1117     CD =  0.00953   =>   CDf =  0.00636    CDp =  0.00317

 Side 1  free  transition at x/c =  0.7258   63
 Side 2  free  transition at x/c =  0.2129   33

   7   rms: 0.8120E-06   max: -.2488E-05   C at   63  1
       a = -0.500      CL =  0.5257
      Cm = -0.1117     CD =  0.00953   =>   CDf =  0.00636    CDp =  0.00317
 plradd ia,ip,cpol            8           0  0.20116073    

 Point added to stored polar  1
 Point written to save file  goe505_Re500k.base.pol                          
 Dump file unspecified or not available
 Calculating wake trajectory ...
 Calculating source influence matrix ...

 Solving BL system ...

 Side 1  free  transition at x/c =  0.7258   63
 Side 2  free  transition at x/c =  0.2129   33

   1   rms: 0.9133E-01   max: 0.6171E+00   D at   33  2
       a =  0.000      CL =  0.5730
      Cm = -0.1098     CD =  0.00933   =>   CDf =  0.00635    CDp =  0.00297

 Side 1  free  transition at x/c =  0.7007   62
 Side 2  free  transition at x/c =  0.2274   32

   2   rms: 0.2879E-01   max: -.3264E+00   D at   32  2
       a =  0.000      CL =  0.5626
      Cm = -0.1074     CD =  0.00950   =>   CDf =  0.00647    CDp =  0.00304

 Side 1  free  transition at x/c =  0.6997   62
 Side 2  free  transition at x/c =  0.2322   33

   3   rms: 0.3137E-02   max: 0.5130E-01   D at   33  2
       a =  0.000      CL =  0.5610
      Cm = -0.1071     CD =  0.00944   =>   CDf =  0.00637    CDp =  0.00307

 Side 1  free  transition at x/c =  0.6995   62
 Side 2  free  transition at x/c =  0.2319   33

   4   rms: 0.1546E-03   max: 0.1640E-02   C at   33  2
       a =  0.000      CL =  0.5610
      Cm = -0.1071     CD =  0.00944   =>   CDf =  0.00636    CDp =  0.00307

 Side 1  free  transition at x/c =  0.6995   62
 Side 2  free  transition at x/c =  0.2318   33

   5   rms: 0.2405E-05   max: 0.2483E-04   D at    4  1
       a =  0.000      CL =  0.5610
      Cm = -0.1071     CD =  0.00944   =>   CDf =  0.00636    CDp =  0.00307
 plradd ia,ip,cpol            9           0  0.20116073    

 Point added to stored polar  1
 Point written to save file  goe505_Re500k.base.pol                          
 Dump file unspecified or not available
 Calculating wake trajectory ...
 Calculating source influence matrix ...

 Solving BL system ...

 Side 1  free  transition at x/c =  0.6995   62
 Side 2  free  transition at x/c =  0.2318   33

   1   rms: 0.8064E-01   max: 0.4287E+00   D at   33  2
       a =  0.500      CL =  0.5938
      Cm = -0.1020     CD =  0.00932   =>   CDf =  0.00637    CDp =  0.00295

 Side 1  free  transition at x/c =  0.6564   59
 Side 2  free  transition at x/c =  0.2444   33

   2   rms: 0.2165E-01   max: -.2430E+00   D at   33  2
       a =  0.500      CL =  0.5909
      Cm = -0.1013     CD =  0.00950   =>   CDf =  0.00662    CDp =  0.00287

 Side 1  free  transition at x/c =  0.6610   59
 Side 2  free  transition at x/c =  0.2487   34

   3   rms: 0.4827E-02   max: -.7376E-01   D at   33  2
       a =  0.500      CL =  0.5901
      Cm = -0.1012     CD =  0.00945   =>   CDf =  0.00651    CDp =  0.00294

 Side 1  free  transition at x/c =  0.6603   59
 Side 2  free  transition at x/c =  0.2491   34

   4   rms: 0.3852E-03   max: 0.4645E-02   C at   34  2
       a =  0.500      CL =  0.5902
      Cm = -0.1012     CD =  0.00945   =>   CDf =  0.00649    CDp =  0.00295

 Side 1  free  transition at x/c =  0.6603   59
 Side 2  free  transition at x/c =  0.2490   34

   5   rms: 0.2528E-05   max: -.1520E-04   D at   35  2
       a =  0.500      CL =  0.5902
      Cm = -0.1012     CD =  0.00945   =>   CDf =  0.00650    CDp =  0.00295
 plradd ia,ip,cpol           10           0  0.20116073    

 Point added to stored polar  1
 Point written to save file  goe505_Re500k.base.pol                          
 Dump file unspecified or not available
 Calculating wake trajectory ...
 Calculating source influence matrix ...

 Solving BL system ...

 Side 1  free  transition at x/c =  0.6603   59
 Side 2  free  transition at x/c =  0.2490   34

   1   rms: 0.8255E-01   max: 0.7857E+00   C at   59  1
       a =  1.000      CL =  0.6144
      Cm = -0.0943     CD =  0.00947   =>   CDf =  0.00646    CDp =  0.00301

 Side 1  free  transition at x/c =  0.5987   56
 Side 2  free  transition at x/c =  0.2600   33

   2   rms: 0.2936E-01   max: -.3252E+00   D at   33  2
       a =  1.000      CL =  0.6003
      Cm = -0.0912     CD =  0.00973   =>   CDf =  0.00691    CDp =  0.00283

 Side 1  free  transition at x/c =  0.6104   57
 Side 2  free  transition at x/c =  0.2646   34

   3   rms: 0.8409E-02   max: 0.1219E+00   C at   57  1
       a =  1.000      CL =  0.6038
      Cm = -0.0920     CD =  0.00968   =>   CDf =  0.00672    CDp =  0.00295

 Side 1  free  transition at x/c =  0.6068   57
 Side 2  free  transition at x/c =  0.2650   34

   4   rms: 0.4264E-03   max: 0.5156E-02   C at   34  2
       a =  1.000      CL =  0.6037
      Cm = -0.0920     CD =  0.00968   =>   CDf =  0.00673    CDp =  0.00295

 Side 1  free  transition at x/c =  0.6068   57
 Side 2  free  transition at x/c =  0.2649   34

   5   rms: 0.3697E-05   max: -.2455E-04   C at   57  1
       a =  1.000      CL =  0.6037
      Cm = -0.0920     CD =  0.00968   =>   CDf =  0.00673    CDp =  0.00295
 plradd ia,ip,cpol           11           0  0.20116073    

 Point added to stored polar  1
 Point written to save file  goe505_Re500k.base.pol                          
 Dump file unspecified or not available
 Calculating wake trajectory ...
 Calculating source influence matrix ...

 Solving BL system ...

 Side 1  free  transition at x/c =  0.6068   57
 Side 2  free  transition at x/c =  0.2649   34

   1   rms: 0.9932E-01   max: 0.1411E+01   C at   57  1
       a =  1.500      CL =  0.6141
      Cm = -0.0823     CD =  0.01002   =>   CDf =  0.00674    CDp =  0.00328

 Side 1  free  transition at x/c =  0.5461   53
 Side 2  free  transition at x/c =  0.2810   35

   2   rms: 0.2069E-01   max: 0.1694E+00   D at   56  1
       a =  1.500      CL =  0.6137
      Cm = -0.0824     CD =  0.01017   =>   CDf =  0.00706    CDp =  0.00311

 Side 1  free  transition at x/c =  0.5492   53
 Side 2  free  transition at x/c =  0.2851   35

   3   rms: 0.2330E-02   max: 0.3202E-01   C at   53  1
       a =  1.500      CL =  0.6142
      Cm = -0.0825     CD =  0.01019   =>   CDf =  0.00697    CDp =  0.00322

 Side 1  free  transition at x/c =  0.5481   53
 Side 2  free  transition at x/c =  0.2845   35

   4   rms: 0.2385E-04   max: -.4334E-03   D at   36  2
       a =  1.500      CL =  0.6142
      Cm = -0.0825     CD =  0.01019   =>   CDf =  0.00698    CDp =  0.00321
 plradd ia,ip,cpol           12           0  0.20116073    

 Point added to stored polar  1
 Point written to save file  goe505_Re500k.base.pol                          
 Dump file unspecified or not available
 Calculating wake trajectory ...
 Calculating source influence matrix ...

 Solving BL system ...

 Side 1  free  transition at x/c =  0.5481   53
 Side 2  free  transition at x/c =  0.2845   35

   1   rms: 0.1032E+00   max: 0.1426E+01   C at   53  1   RLX: 0.934
       a =  2.000      CL =  0.6309
      Cm = -0.0753     CD =  0.01061   =>   CDf =  0.00693    CDp =  0.00368

 Side 1  free  transition at x/c =  0.4886   51
 Side 2  free  transition at x/c =  0.3034   35

   2   rms: 0.2349E-01   max: -.2961E+00   C at   35  2
       a =  2.000      CL =  0.6263
      Cm = -0.0737     CD =  0.01082   =>   CDf =  0.00728    CDp =  0.00354

 Side 1  free  transition at x/c =  0.4897   51
 Side 2  free  transition at x/c =  0.3124   35

   3   rms: 0.5673E-02   max: -.1049E+00   C at   35  2
       a =  2.000      CL =  0.6263
      Cm = -0.0737     CD =  0.01085   =>   CDf =  0.00722    CDp =  0.00364

 Side 1  free  transition at x/c =  0.4887   51
 Side 2  free  transition at x/c =  0.3125   35

   4   rms: 0.7276E-02   max: -.1446E+00   C at   35  2
       a =  2.000      CL =  0.6262
      Cm = -0.0737     CD =  0.01086   =>   CDf =  0.00723    CDp =  0.00362

 Side 1  free  transition at x/c =  0.4887   51
 Side 2  free  transition at x/c =  0.3126   35

   5   rms: 0.7144E-02   max: -.1426E+00   C at   35  2
       a =  2.000      CL =  0.6262
      Cm = -0.0737     CD =  0.01085   =>   CDf =  0.00723    CDp =  0.00362

 Side 1  free  transition at x/c =  0.4887   51
 Side 2  free  transition at x/c =  0.3126   35

   6   rms: 0.7167E-02   max: -.1430E+00   C at   35  2
       a =  2.000      CL =  0.6262
      Cm = -0.0737     CD =  0.01085   =>   CDf =  0.00723    CDp =  0.00362

 Side 1  free  transition at x/c =  0.4887   51
 Side 2  free  transition at x/c =  0.3126   35

   7   rms: 0.7163E-02   max: -.1429E+00   C at   35  2
       a =  2.000      CL =  0.6262
      Cm = -0.0737     CD =  0.01085   =>   CDf =  0.00723    CDp =  0.00362

 Side 1  free  transition at x/c =  0.4887   51
 Side 2  free  transition at x/c =  0.3126   35

   8   rms: 0.7164E-02   max: -.1429E+00   C at   35  2
       a =  2.000      CL =  0.6262
      Cm = -0.0737     CD =  0.01085   =>   CDf =  0.00723    CDp =  0.00362

 Side 1  free  transition at x/c =  0.4887   51
 Side 2  free  transition at x/c =  0.3126   35

   9   rms: 0.7164E-02   max: -.1429E+00   C at   35  2
       a =  2.000      CL =  0.6262
      Cm = -0.0737     CD =  0.01085   =>   CDf =  0.00723    CDp =  0.00362

 Side 1  free  transition at x/c =  0.4887   51
 Side 2  free  transition at x/c =  0.3126   35

  10   rms: 0.7164E-02   max: -.1429E+00   C at   35  2
       a =  2.000      CL =  0.6262
      Cm = -0.0737     CD =  0.01085   =>   CDf =  0.00723    CDp =  0.00362

 Side 1  free  transition at x/c =  0.4887   51
 Side 2  free  transition at x/c =  0.3126   35

  11   rms: 0.7163E-02   max: -.1429E+00   C at   35  2
       a =  2.000      CL =  0.6262
      Cm = -0.0737     CD =  0.01085   =>   CDf =  0.00723    CDp =  0.00362

 Side 1  free  transition at x/c =  0.4887   51
 Side 2  free  transition at x/c =  0.3126   35

  12   rms: 0.7163E-02   max: -.1429E+00   C at   35  2
       a =  2.000      CL =  0.6262
      Cm = -0.0737     CD =  0.01085   =>   CDf =  0.00723    CDp =  0.00362

 Side 1  free  transition at x/c =  0.4887   51
 Side 2  free  transition at x/c =  0.3126   35

  13   rms: 0.7163E-02   max: -.1429E+00   C at   35  2
       a =  2.000      CL =  0.6262
      Cm = -0.0737     CD =  0.01085   =>   CDf =  0.00723    CDp =  0.00362

 Side 1  free  transition at x/c =  0.4887   51
 Side 2  free  transition at x/c =  0.3126   35

  14   rms: 0.7163E-02   max: -.1429E+00   C at   35  2
       a =  2.000      CL =  0.6262
      Cm = -0.0737     CD =  0.01085   =>   CDf =  0.00723    CDp =  0.00362

 Side 1  free  transition at x/c =  0.4887   51
 Side 2  free  transition at x/c =  0.3126   35

  15   rms: 0.7163E-02   max: -.1429E+00   C at   35  2
       a =  2.000      CL =  0.6262
      Cm = -0.0737     CD =  0.01085   =>   CDf =  0.00723    CDp =  0.00362

 Side 1  free  transition at x/c =  0.4887   51
 Side 2  free  transition at x/c =  0.3126   35

  16   rms: 0.7163E-02   max: -.1429E+00   C at   35  2
       a =  2.000      CL =  0.6262
      Cm = -0.0737     CD =  0.01085   =>   CDf =  0.00723    CDp =  0.00362

 Side 1  free  transition at x/c =  0.4887   51
 Side 2  free  transition at x/c =  0.3126   35

  17   rms: 0.7164E-02   max: -.1429E+00   C at   35  2
       a =  2.000      CL =  0.6262
      Cm = -0.0737     CD =  0.01085   =>   CDf =  0.00723    CDp =  0.00362

 Side 1  free  transition at x/c =  0.4887   51
 Side 2  free  transition at x/c =  0.3126   35

  18   rms: 0.7164E-02   max: -.1429E+00   C at   35  2
       a =  2.000      CL =  0.6262
      Cm = -0.0737     CD =  0.01085   =>   CDf =  0.00723    CDp =  0.00362

 Side 1  free  transition at x/c =  0.4887   51
 Side 2  free  transition at x/c =  0.3126   35

  19   rms: 0.7164E-02   max: -.1429E+00   C at   35  2
       a =  2.000      CL =  0.6262
      Cm = -0.0737     CD =  0.01085   =>   CDf =  0.00723    CDp =  0.00362

 Side 1  free  transition at x/c =  0.4887   51
 Side 2  free  transition at x/c =  0.3126   35

  20   rms: 0.7164E-02   max: -.1429E+00   C at   35  2
       a =  2.000      CL =  0.6262
      Cm = -0.0737     CD =  0.01085   =>   CDf =  0.00723    CDp =  0.00362

 Side 1  free  transition at x/c =  0.4887   51
 Side 2  free  transition at x/c =  0.3126   35

  21   rms: 0.7164E-02   max: -.1429E+00   C at   35  2
       a =  2.000      CL =  0.6262
      Cm = -0.0737     CD =  0.01085   =>   CDf =  0.00723    CDp =  0.00362

 Side 1  free  transition at x/c =  0.4887   51
 Side 2  free  transition at x/c =  0.3126   35

  22   rms: 0.7163E-02   max: -.1429E+00   C at   35  2
       a =  2.000      CL =  0.6262
      Cm = -0.0737     CD =  0.01085   =>   CDf =  0.00723    CDp =  0.00362

 Side 1  free  transition at x/c =  0.4887   51
 Side 2  free  transition at x/c =  0.3126   35

  23   rms: 0.7164E-02   max: -.1429E+00   C at   35  2
       a =  2.000      CL =  0.6262
      Cm = -0.0737     CD =  0.01085   =>   CDf =  0.00723    CDp =  0.00362

 Side 1  free  transition at x/c =  0.4887   51
 Side 2  free  transition at x/c =  0.3126   35

  24   rms: 0.7163E-02   max: -.1429E+00   C at   35  2
       a =  2.000      CL =  0.6262
      Cm = -0.0737     CD =  0.01085   =>   CDf =  0.00723    CDp =  0.00362

 Side 1  free  transition at x/c =  0.4887   51
 Side 2  free  transition at x/c =  0.3126   35

  25   rms: 0.7163E-02   max: -.1429E+00   C at   35  2
       a =  2.000      CL =  0.6262
      Cm = -0.0737     CD =  0.01085   =>   CDf =  0.00723    CDp =  0.00362

 Side 1  free  transition at x/c =  0.4887   51
 Side 2  free  transition at x/c =  0.3126   35

  26   rms: 0.7164E-02   max: -.1429E+00   C at   35  2
       a =  2.000      CL =  0.6262
      Cm = -0.0737     CD =  0.01085   =>   CDf =  0.00723    CDp =  0.00362

 Side 1  free  transition at x/c =  0.4887   51
 Side 2  free  transition at x/c =  0.3126   35

  27   rms: 0.7164E-02   max: -.1429E+00   C at   35  2
       a =  2.000      CL =  0.6262
      Cm = -0.0737     CD =  0.01085   =>   CDf =  0.00723    CDp =  0.00362

 Side 1  free  transition at x/c =  0.4887   51
 Side 2  free  transition at x/c =  0.3126   35

  28   rms: 0.7164E-02   max: -.1429E+00   C at   35  2
       a =  2.000      CL =  0.6262
      Cm = -0.0737     CD =  0.01085   =>   CDf =  0.00723    CDp =  0.00362

 Side 1  free  transition at x/c =  0.4887   51
 Side 2  free  transition at x/c =  0.3126   35

  29   rms: 0.7164E-02   max: -.1429E+00   C at   35  2
       a =  2.000      CL =  0.6262
      Cm = -0.0737     CD =  0.01085   =>   CDf =  0.00723    CDp =  0.00362

 Side 1  free  transition at x/c =  0.4887   51
 Side 2  free  transition at x/c =  0.3126   35

  30   rms: 0.7163E-02   max: -.1429E+00   C at   35  2
       a =  2.000      CL =  0.6262
      Cm = -0.0737     CD =  0.01085   =>   CDf =  0.00723    CDp =  0.00362

 Side 1  free  transition at x/c =  0.4887   51
 Side 2  free  transition at x/c =  0.3126   35

  31   rms: 0.7164E-02   max: -.1429E+00   C at   35  2
       a =  2.000      CL =  0.6262
      Cm = -0.0737     CD =  0.01085   =>   CDf =  0.00723    CDp =  0.00362

 Side 1  free  transition at x/c =  0.4887   51
 Side 2  free  transition at x/c =  0.3126   35

  32   rms: 0.7164E-02   max: -.1429E+00   C at   35  2
       a =  2.000      CL =  0.6262
      Cm = -0.0737     CD =  0.01085   =>   CDf =  0.00723    CDp =  0.00362

 Side 1  free  transition at x/c =  0.4887   51
 Side 2  free  transition at x/c =  0.3126   35

  33   rms: 0.7164E-02   max: -.1429E+00   C at   35  2
       a =  2.000      CL =  0.6262
      Cm = -0.0737     CD =  0.01085   =>   CDf =  0.00723    CDp =  0.00362

 Side 1  free  transition at x/c =  0.4887   51
 Side 2  free  transition at x/c =  0.3126   35

  34   rms: 0.7164E-02   max: -.1429E+00   C at   35  2
       a =  2.000      CL =  0.6262
      Cm = -0.0737     CD =  0.01085   =>   CDf =  0.00723    CDp =  0.00362

 Side 1  free  transition at x/c =  0.4887   51
 Side 2  free  transition at x/c =  0.3126   35

  35   rms: 0.7163E-02   max: -.1429E+00   C at   35  2
       a =  2.000      CL =  0.6262
      Cm = -0.0737     CD =  0.01085   =>   CDf =  0.00723    CDp =  0.00362

 Side 1  free  transition at x/c =  0.4887   51
 Side 2  free  transition at x/c =  0.3126   35

  36   rms: 0.7164E-02   max: -.1429E+00   C at   35  2
       a =  2.000      CL =  0.6262
      Cm = -0.0737     CD =  0.01085   =>   CDf =  0.00723    CDp =  0.00362

 Side 1  free  transition at x/c =  0.4887   51
 Side 2  free  transition at x/c =  0.3126   35

  37   rms: 0.7164E-02   max: -.1429E+00   C at   35  2
       a =  2.000      CL =  0.6262
      Cm = -0.0737     CD =  0.01085   =>   CDf =  0.00723    CDp =  0.00362

 Side 1  free  transition at x/c =  0.4887   51
 Side 2  free  transition at x/c =  0.3126   35

  38   rms: 0.7164E-02   max: -.1429E+00   C at   35  2
       a =  2.000      CL =  0.6262
      Cm = -0.0737     CD =  0.01085   =>   CDf =  0.00723    CDp =  0.00362

 Side 1  free  transition at x/c =  0.4887   51
 Side 2  free  transition at x/c =  0.3126   35

  39   rms: 0.7163E-02   max: -.1429E+00   C at   35  2
       a =  2.000      CL =  0.6262
      Cm = -0.0737     CD =  0.01085   =>   CDf =  0.00723    CDp =  0.00362

 Side 1  free  transition at x/c =  0.4887   51
 Side 2  free  transition at x/c =  0.3126   35

  40   rms: 0.7164E-02   max: -.1429E+00   C at   35  2
       a =  2.000      CL =  0.6262
      Cm = -0.0737     CD =  0.01085   =>   CDf =  0.00723    CDp =  0.00362

 Side 1  free  transition at x/c =  0.4887   51
 Side 2  free  transition at x/c =  0.3126   35

  41   rms: 0.7164E-02   max: -.1429E+00   C at   35  2
       a =  2.000      CL =  0.6262
      Cm = -0.0737     CD =  0.01085   =>   CDf =  0.00723    CDp =  0.00362

 Side 1  free  transition at x/c =  0.4887   51
 Side 2  free  transition at x/c =  0.3126   35

  42   rms: 0.7164E-02   max: -.1429E+00   C at   35  2
       a =  2.000      CL =  0.6262
      Cm = -0.0737     CD =  0.01085   =>   CDf =  0.00723    CDp =  0.00362

 Side 1  free  transition at x/c =  0.4887   51
 Side 2  free  transition at x/c =  0.3126   35

  43   rms: 0.7164E-02   max: -.1429E+00   C at   35  2
       a =  2.000      CL =  0.6262
      Cm = -0.0737     CD =  0.01085   =>   CDf =  0.00723    CDp =  0.00362

 Side 1  free  transition at x/c =  0.4887   51
 Side 2  free  transition at x/c =  0.3126   35

  44   rms: 0.7163E-02   max: -.1429E+00   C at   35  2
       a =  2.000      CL =  0.6262
      Cm = -0.0737     CD =  0.01085   =>   CDf =  0.00723    CDp =  0.00362

 Side 1  free  transition at x/c =  0.4887   51
 Side 2  free  transition at x/c =  0.3126   35

  45   rms: 0.7164E-02   max: -.1429E+00   C at   35  2
       a =  2.000      CL =  0.6262
      Cm = -0.0737     CD =  0.01085   =>   CDf =  0.00723    CDp =  0.00362

 Side 1  free  transition at x/c =  0.4887   51
 Side 2  free  transition at x/c =  0.3126   35

  46   rms: 0.7164E-02   max: -.1429E+00   C at   35  2
       a =  2.000      CL =  0.6262
      Cm = -0.0737     CD =  0.01085   =>   CDf =  0.00723    CDp =  0.00362

 Side 1  free  transition at x/c =  0.4887   51
 Side 2  free  transition at x/c =  0.3126   35

  47   rms: 0.7164E-02   max: -.1429E+00   C at   35  2
       a =  2.000      CL =  0.6262
      Cm = -0.0737     CD =  0.01085   =>   CDf =  0.00723    CDp =  0.00362

 Side 1  free  transition at x/c =  0.4887   51
 Side 2  free  transition at x/c =  0.3126   35

  48   rms: 0.7164E-02   max: -.1429E+00   C at   35  2
       a =  2.000      CL =  0.6262
      Cm = -0.0737     CD =  0.01085   =>   CDf =  0.00723    CDp =  0.00362

 Side 1  free  transition at x/c =  0.4887   51
 Side 2  free  transition at x/c =  0.3126   35

  49   rms: 0.7163E-02   max: -.1429E+00   C at   35  2
       a =  2.000      CL =  0.6262
      Cm = -0.0737     CD =  0.01085   =>   CDf =  0.00723    CDp =  0.00362

 Side 1  free  transition at x/c =  0.4887   51
 Side 2  free  transition at x/c =  0.3126   35

  50   rms: 0.7163E-02   max: -.1429E+00   C at   35  2
       a =  2.000      CL =  0.6262
      Cm = -0.0737     CD =  0.01085   =>   CDf =  0.00723    CDp =  0.00362

 Side 1  free  transition at x/c =  0.4887   51
 Side 2  free  transition at x/c =  0.3126   35

  51   rms: 0.7163E-02   max: -.1429E+00   C at   35  2
       a =  2.000      CL =  0.6262
      Cm = -0.0737     CD =  0.01085   =>   CDf =  0.00723    CDp =  0.00362

 Side 1  free  transition at x/c =  0.4887   51
 Side 2  free  transition at x/c =  0.3126   35

  52   rms: 0.7163E-02   max: -.1429E+00   C at   35  2
       a =  2.000      CL =  0.6262
      Cm = -0.0737     CD =  0.01085   =>   CDf =  0.00723    CDp =  0.00362

 Side 1  free  transition at x/c =  0.4887   51
 Side 2  free  transition at x/c =  0.3126   35

  53   rms: 0.7164E-02   max: -.1429E+00   C at   35  2
       a =  2.000      CL =  0.6262
      Cm = -0.0737     CD =  0.01085   =>   CDf =  0.00723    CDp =  0.00362

 Side 1  free  transition at x/c =  0.4887   51
 Side 2  free  transition at x/c =  0.3126   35

  54   rms: 0.7164E-02   max: -.1429E+00   C at   35  2
       a =  2.000      CL =  0.6262
      Cm = -0.0737     CD =  0.01085   =>   CDf =  0.00723    CDp =  0.00362

 Side 1  free  transition at x/c =  0.4887   51
 Side 2  free  transition at x/c =  0.3126   35

  55   rms: 0.7164E-02   max: -.1429E+00   C at   35  2
       a =  2.000      CL =  0.6262
      Cm = -0.0737     CD =  0.01085   =>   CDf =  0.00723    CDp =  0.00362

 Side 1  free  transition at x/c =  0.4887   51
 Side 2  free  transition at x/c =  0.3126   35

  56   rms: 0.7163E-02   max: -.1429E+00   C at   35  2
       a =  2.000      CL =  0.6262
      Cm = -0.0737     CD =  0.01085   =>   CDf =  0.00723    CDp =  0.00362

 Side 1  free  transition at x/c =  0.4887   51
 Side 2  free  transition at x/c =  0.3126   35

  57   rms: 0.7164E-02   max: -.1429E+00   C at   35  2
       a =  2.000      CL =  0.6262
      Cm = -0.0737     CD =  0.01085   =>   CDf =  0.00723    CDp =  0.00362

 Side 1  free  transition at x/c =  0.4887   51
 Side 2  free  transition at x/c =  0.3126   35

  58   rms: 0.7163E-02   max: -.1429E+00   C at   35  2
       a =  2.000      CL =  0.6262
      Cm = -0.0737     CD =  0.01085   =>   CDf =  0.00723    CDp =  0.00362

 Side 1  free  transition at x/c =  0.4887   51
 Side 2  free  transition at x/c =  0.3126   35

  59   rms: 0.7164E-02   max: -.1429E+00   C at   35  2
       a =  2.000      CL =  0.6262
      Cm = -0.0737     CD =  0.01085   =>   CDf =  0.00723    CDp =  0.00362

 Side 1  free  transition at x/c =  0.4887   51
 Side 2  free  transition at x/c =  0.3126   35

  60   rms: 0.7164E-02   max: -.1429E+00   C at   35  2
       a =  2.000      CL =  0.6262
      Cm = -0.0737     CD =  0.01085   =>   CDf =  0.00723    CDp =  0.00362

 Side 1  free  transition at x/c =  0.4887   51
 Side 2  free  transition at x/c =  0.3126   35

  61   rms: 0.7164E-02   max: -.1429E+00   C at   35  2
       a =  2.000      CL =  0.6262
      Cm = -0.0737     CD =  0.01085   =>   CDf =  0.00723    CDp =  0.00362

 Side 1  free  transition at x/c =  0.4887   51
 Side 2  free  transition at x/c =  0.3126   35

  62   rms: 0.7164E-02   max: -.1429E+00   C at   35  2
       a =  2.000      CL =  0.6262
      Cm = -0.0737     CD =  0.01085   =>   CDf =  0.00723    CDp =  0.00362

 Side 1  free  transition at x/c =  0.4887   51
 Side 2  free  transition at x/c =  0.3126   35

  63   rms: 0.7164E-02   max: -.1429E+00   C at   35  2
       a =  2.000      CL =  0.6262
      Cm = -0.0737     CD =  0.01085   =>   CDf =  0.00723    CDp =  0.00362

 Side 1  free  transition at x/c =  0.4887   51
 Side 2  free  transition at x/c =  0.3126   35

  64   rms: 0.7164E-02   max: -.1429E+00   C at   35  2
       a =  2.000      CL =  0.6262
      Cm = -0.0737     CD =  0.01085   =>   CDf =  0.00723    CDp =  0.00362

 Side 1  free  transition at x/c =  0.4887   51
 Side 2  free  transition at x/c =  0.3126   35

  65   rms: 0.7164E-02   max: -.1429E+00   C at   35  2
       a =  2.000      CL =  0.6262
      Cm = -0.0737     CD =  0.01085   =>   CDf =  0.00723    CDp =  0.00362

 Side 1  free  transition at x/c =  0.4887   51
 Side 2  free  transition at x/c =  0.3126   35

  66   rms: 0.7164E-02   max: -.1429E+00   C at   35  2
       a =  2.000      CL =  0.6262
      Cm = -0.0737     CD =  0.01085   =>   CDf =  0.00723    CDp =  0.00362

 Side 1  free  transition at x/c =  0.4887   51
 Side 2  free  transition at x/c =  0.3126   35

  67   rms: 0.7164E-02   max: -.1429E+00   C at   35  2
       a =  2.000      CL =  0.6262
      Cm = -0.0737     CD =  0.01085   =>   CDf =  0.00723    CDp =  0.00362

 Side 1  free  transition at x/c =  0.4887   51
 Side 2  free  transition at x/c =  0.3126   35

  68   rms: 0.7164E-02   max: -.1429E+00   C at   35  2
       a =  2.000      CL =  0.6262
      Cm = -0.0737     CD =  0.01085   =>   CDf =  0.00723    CDp =  0.00362

 Side 1  free  transition at x/c =  0.4887   51
 Side 2  free  transition at x/c =  0.3126   35

  69   rms: 0.7164E-02   max: -.1429E+00   C at   35  2
       a =  2.000      CL =  0.6262
      Cm = -0.0737     CD =  0.01085   =>   CDf =  0.00723    CDp =  0.00362

 Side 1  free  transition at x/c =  0.4887   51
 Side 2  free  transition at x/c =  0.3126   35

  70   rms: 0.7164E-02   max: -.1429E+00   C at   35  2
       a =  2.000      CL =  0.6262
      Cm = -0.0737     CD =  0.01085   =>   CDf =  0.00723    CDp =  0.00362

 Side 1  free  transition at x/c =  0.4887   51
 Side 2  free  transition at x/c =  0.3126   35

  71   rms: 0.7164E-02   max: -.1429E+00   C at   35  2
       a =  2.000      CL =  0.6262
      Cm = -0.0737     CD =  0.01085   =>   CDf =  0.00723    CDp =  0.00362

 Side 1  free  transition at x/c =  0.4887   51
 Side 2  free  transition at x/c =  0.3126   35

  72   rms: 0.7164E-02   max: -.1429E+00   C at   35  2
       a =  2.000      CL =  0.6262
      Cm = -0.0737     CD =  0.01085   =>   CDf =  0.00723    CDp =  0.00362

 Side 1  free  transition at x/c =  0.4887   51
 Side 2  free  transition at x/c =  0.3126   35

  73   rms: 0.7164E-02   max: -.1429E+00   C at   35  2
       a =  2.000      CL =  0.6262
      Cm = -0.0737     CD =  0.01085   =>   CDf =  0.00723    CDp =  0.00362

 Side 1  free  transition at x/c =  0.4887   51
 Side 2  free  transition at x/c =  0.3126   35

  74   rms: 0.7164E-02   max: -.1429E+00   C at   35  2
       a =  2.000      CL =  0.6262
      Cm = -0.0737     CD =  0.01085   =>   CDf =  0.00723    CDp =  0.00362

 Side 1  free  transition at x/c =  0.4887   51
 Side 2  free  transition at x/c =  0.3126   35

  75   rms: 0.7163E-02   max: -.1429E+00   C at   35  2
       a =  2.000      CL =  0.6262
      Cm = -0.0737     CD =  0.01085   =>   CDf =  0.00723    CDp =  0.00362

 Side 1  free  transition at x/c =  0.4887   51
 Side 2  free  transition at x/c =  0.3126   35

  76   rms: 0.7163E-02   max: -.1429E+00   C at   35  2
       a =  2.000      CL =  0.6262
      Cm = -0.0737     CD =  0.01085   =>   CDf =  0.00723    CDp =  0.00362

 Side 1  free  transition at x/c =  0.4887   51
 Side 2  free  transition at x/c =  0.3126   35

  77   rms: 0.7164E-02   max: -.1429E+00   C at   35  2
       a =  2.000      CL =  0.6262
      Cm = -0.0737     CD =  0.01085   =>   CDf =  0.00723    CDp =  0.00362

 Side 1  free  transition at x/c =  0.4887   51
 Side 2  free  transition at x/c =  0.3126   35

  78   rms: 0.7164E-02   max: -.1429E+00   C at   35  2
       a =  2.000      CL =  0.6262
      Cm = -0.0737     CD =  0.01085   =>   CDf =  0.00723    CDp =  0.00362

 Side 1  free  transition at x/c =  0.4887   51
 Side 2  free  transition at x/c =  0.3126   35

  79   rms: 0.7163E-02   max: -.1429E+00   C at   35  2
       a =  2.000      CL =  0.6262
      Cm = -0.0737     CD =  0.01085   =>   CDf =  0.00723    CDp =  0.00362

 Side 1  free  transition at x/c =  0.4887   51
 Side 2  free  transition at x/c =  0.3126   35

  80   rms: 0.7164E-02   max: -.1429E+00   C at   35  2
       a =  2.000      CL =  0.6262
      Cm = -0.0737     CD =  0.01085   =>   CDf =  0.00723    CDp =  0.00362

 Side 1  free  transition at x/c =  0.4887   51
 Side 2  free  transition at x/c =  0.3126   35

  81   rms: 0.7164E-02   max: -.1429E+00   C at   35  2
       a =  2.000      CL =  0.6262
      Cm = -0.0737     CD =  0.01085   =>   CDf =  0.00723    CDp =  0.00362

 Side 1  free  transition at x/c =  0.4887   51
 Side 2  free  transition at x/c =  0.3126   35

  82   rms: 0.7164E-02   max: -.1429E+00   C at   35  2
       a =  2.000      CL =  0.6262
      Cm = -0.0737     CD =  0.01085   =>   CDf =  0.00723    CDp =  0.00362

 Side 1  free  transition at x/c =  0.4887   51
 Side 2  free  transition at x/c =  0.3126   35

  83   rms: 0.7163E-02   max: -.1429E+00   C at   35  2
       a =  2.000      CL =  0.6262
      Cm = -0.0737     CD =  0.01085   =>   CDf =  0.00723    CDp =  0.00362

 Side 1  free  transition at x/c =  0.4887   51
 Side 2  free  transition at x/c =  0.3126   35

  84   rms: 0.7163E-02   max: -.1429E+00   C at   35  2
       a =  2.000      CL =  0.6262
      Cm = -0.0737     CD =  0.01085   =>   CDf =  0.00723    CDp =  0.00362

 Side 1  free  transition at x/c =  0.4887   51
 Side 2  free  transition at x/c =  0.3126   35

  85   rms: 0.7164E-02   max: -.1429E+00   C at   35  2
       a =  2.000      CL =  0.6262
      Cm = -0.0737     CD =  0.01085   =>   CDf =  0.00723    CDp =  0.00362

 Side 1  free  transition at x/c =  0.4887   51
 Side 2  free  transition at x/c =  0.3126   35

  86   rms: 0.7164E-02   max: -.1429E+00   C at   35  2
       a =  2.000      CL =  0.6262
      Cm = -0.0737     CD =  0.01085   =>   CDf =  0.00723    CDp =  0.00362

 Side 1  free  transition at x/c =  0.4887   51
 Side 2  free  transition at x/c =  0.3126   35

  87   rms: 0.7164E-02   max: -.1429E+00   C at   35  2
       a =  2.000      CL =  0.6262
      Cm = -0.0737     CD =  0.01085   =>   CDf =  0.00723    CDp =  0.00362

 Side 1  free  transition at x/c =  0.4887   51
 Side 2  free  transition at x/c =  0.3126   35

  88   rms: 0.7164E-02   max: -.1429E+00   C at   35  2
       a =  2.000      CL =  0.6262
      Cm = -0.0737     CD =  0.01085   =>   CDf =  0.00723    CDp =  0.00362

 Side 1  free  transition at x/c =  0.4887   51
 Side 2  free  transition at x/c =  0.3126   35

  89   rms: 0.7164E-02   max: -.1429E+00   C at   35  2
       a =  2.000      CL =  0.6262
      Cm = -0.0737     CD =  0.01085   =>   CDf =  0.00723    CDp =  0.00362

 Side 1  free  transition at x/c =  0.4887   51
 Side 2  free  transition at x/c =  0.3126   35

  90   rms: 0.7164E-02   max: -.1429E+00   C at   35  2
       a =  2.000      CL =  0.6262
      Cm = -0.0737     CD =  0.01085   =>   CDf =  0.00723    CDp =  0.00362

 Side 1  free  transition at x/c =  0.4887   51
 Side 2  free  transition at x/c =  0.3126   35

  91   rms: 0.7164E-02   max: -.1429E+00   C at   35  2
       a =  2.000      CL =  0.6262
      Cm = -0.0737     CD =  0.01085   =>   CDf =  0.00723    CDp =  0.00362

 Side 1  free  transition at x/c =  0.4887   51
 Side 2  free  transition at x/c =  0.3126   35

  92   rms: 0.7164E-02   max: -.1429E+00   C at   35  2
       a =  2.000      CL =  0.6262
      Cm = -0.0737     CD =  0.01085   =>   CDf =  0.00723    CDp =  0.00362

 Side 1  free  transition at x/c =  0.4887   51
 Side 2  free  transition at x/c =  0.3126   35

  93   rms: 0.7163E-02   max: -.1429E+00   C at   35  2
       a =  2.000      CL =  0.6262
      Cm = -0.0737     CD =  0.01085   =>   CDf =  0.00723    CDp =  0.00362

 Side 1  free  transition at x/c =  0.4887   51
 Side 2  free  transition at x/c =  0.3126   35

  94   rms: 0.7163E-02   max: -.1429E+00   C at   35  2
       a =  2.000      CL =  0.6262
      Cm = -0.0737     CD =  0.01085   =>   CDf =  0.00723    CDp =  0.00362

 Side 1  free  transition at x/c =  0.4887   51
 Side 2  free  transition at x/c =  0.3126   35

  95   rms: 0.7164E-02   max: -.1429E+00   C at   35  2
       a =  2.000      CL =  0.6262
      Cm = -0.0737     CD =  0.01085   =>   CDf =  0.00723    CDp =  0.00362

 Side 1  free  transition at x/c =  0.4887   51
 Side 2  free  transition at x/c =  0.3126   35

  96   rms: 0.7163E-02   max: -.1429E+00   C at   35  2
       a =  2.000      CL =  0.6262
      Cm = -0.0737     CD =  0.01085   =>   CDf =  0.00723    CDp =  0.00362

 Side 1  free  transition at x/c =  0.4887   51
 Side 2  free  transition at x/c =  0.3126   35

  97   rms: 0.7163E-02   max: -.1429E+00   C at   35  2
       a =  2.000      CL =  0.6262
      Cm = -0.0737     CD =  0.01085   =>   CDf =  0.00723    CDp =  0.00362

 Side 1  free  transition at x/c =  0.4887   51
 Side 2  free  transition at x/c =  0.3126   35

  98   rms: 0.7164E-02   max: -.1429E+00   C at   35  2
       a =  2.000      CL =  0.6262
      Cm = -0.0737     CD =  0.01085   =>   CDf =  0.00723    CDp =  0.00362

 Side 1  free  transition at x/c =  0.4887   51
 Side 2  free  transition at x/c =  0.3126   35

  99   rms: 0.7164E-02   max: -.1429E+00   C at   35  2
       a =  2.000      CL =  0.6262
      Cm = -0.0737     CD =  0.01085   =>   CDf =  0.00723    CDp =  0.00362

 Side 1  free  transition at x/c =  0.4887   51
 Side 2  free  transition at x/c =  0.3126   35

 100   rms: 0.7163E-02   max: -.1429E+00   C at   35  2
       a =  2.000      CL =  0.6262
      Cm = -0.0737     CD =  0.01085   =>   CDf =  0.00723    CDp =  0.00362

 Side 1  free  transition at x/c =  0.4887   51
 Side 2  free  transition at x/c =  0.3126   35

 101   rms: 0.7163E-02   max: -.1429E+00   C at   35  2
       a =  2.000      CL =  0.6262
      Cm = -0.0737     CD =  0.01085   =>   CDf =  0.00723    CDp =  0.00362

 Side 1  free  transition at x/c =  0.4887   51
 Side 2  free  transition at x/c =  0.3126   35

 102   rms: 0.7164E-02   max: -.1429E+00   C at   35  2
       a =  2.000      CL =  0.6262
      Cm = -0.0737     CD =  0.01085   =>   CDf =  0.00723    CDp =  0.00362

 Side 1  free  transition at x/c =  0.4887   51
 Side 2  free  transition at x/c =  0.3126   35

 103   rms: 0.7164E-02   max: -.1429E+00   C at   35  2
       a =  2.000      CL =  0.6262
      Cm = -0.0737     CD =  0.01085   =>   CDf =  0.00723    CDp =  0.00362

 Side 1  free  transition at x/c =  0.4887   51
 Side 2  free  transition at x/c =  0.3126   35

 104   rms: 0.7163E-02   max: -.1429E+00   C at   35  2
       a =  2.000      CL =  0.6262
      Cm = -0.0737     CD =  0.01085   =>   CDf =  0.00723    CDp =  0.00362

 Side 1  free  transition at x/c =  0.4887   51
 Side 2  free  transition at x/c =  0.3126   35

 105   rms: 0.7164E-02   max: -.1429E+00   C at   35  2
       a =  2.000      CL =  0.6262
      Cm = -0.0737     CD =  0.01085   =>   CDf =  0.00723    CDp =  0.00362

 Side 1  free  transition at x/c =  0.4887   51
 Side 2  free  transition at x/c =  0.3126   35

 106   rms: 0.7164E-02   max: -.1429E+00   C at   35  2
       a =  2.000      CL =  0.6262
      Cm = -0.0737     CD =  0.01085   =>   CDf =  0.00723    CDp =  0.00362

 Side 1  free  transition at x/c =  0.4887   51
 Side 2  free  transition at x/c =  0.3126   35

 107   rms: 0.7164E-02   max: -.1429E+00   C at   35  2
       a =  2.000      CL =  0.6262
      Cm = -0.0737     CD =  0.01085   =>   CDf =  0.00723    CDp =  0.00362

 Side 1  free  transition at x/c =  0.4887   51
 Side 2  free  transition at x/c =  0.3126   35

 108   rms: 0.7163E-02   max: -.1429E+00   C at   35  2
       a =  2.000      CL =  0.6262
      Cm = -0.0737     CD =  0.01085   =>   CDf =  0.00723    CDp =  0.00362

 Side 1  free  transition at x/c =  0.4887   51
 Side 2  free  transition at x/c =  0.3126   35

 109   rms: 0.7164E-02   max: -.1429E+00   C at   35  2
       a =  2.000      CL =  0.6262
      Cm = -0.0737     CD =  0.01085   =>   CDf =  0.00723    CDp =  0.00362

 Side 1  free  transition at x/c =  0.4887   51
 Side 2  free  transition at x/c =  0.3126   35

 110   rms: 0.7164E-02   max: -.1429E+00   C at   35  2
       a =  2.000      CL =  0.6262
      Cm = -0.0737     CD =  0.01085   =>   CDf =  0.00723    CDp =  0.00362

 Side 1  free  transition at x/c =  0.4887   51
 Side 2  free  transition at x/c =  0.3126   35

 111   rms: 0.7164E-02   max: -.1429E+00   C at   35  2
       a =  2.000      CL =  0.6262
      Cm = -0.0737     CD =  0.01085   =>   CDf =  0.00723    CDp =  0.00362

 Side 1  free  transition at x/c =  0.4887   51
 Side 2  free  transition at x/c =  0.3126   35

 112   rms: 0.7163E-02   max: -.1429E+00   C at   35  2
       a =  2.000      CL =  0.6262
      Cm = -0.0737     CD =  0.01085   =>   CDf =  0.00723    CDp =  0.00362

 Side 1  free  transition at x/c =  0.4887   51
 Side 2  free  transition at x/c =  0.3126   35

 113   rms: 0.7164E-02   max: -.1429E+00   C at   35  2
       a =  2.000      CL =  0.6262
      Cm = -0.0737     CD =  0.01085   =>   CDf =  0.00723    CDp =  0.00362

 Side 1  free  transition at x/c =  0.4887   51
 Side 2  free  transition at x/c =  0.3126   35

 114   rms: 0.7164E-02   max: -.1429E+00   C at   35  2
       a =  2.000      CL =  0.6262
      Cm = -0.0737     CD =  0.01085   =>   CDf =  0.00723    CDp =  0.00362

 Side 1  free  transition at x/c =  0.4887   51
 Side 2  free  transition at x/c =  0.3126   35

 115   rms: 0.7163E-02   max: -.1429E+00   C at   35  2
       a =  2.000      CL =  0.6262
      Cm = -0.0737     CD =  0.01085   =>   CDf =  0.00723    CDp =  0.00362

 Side 1  free  transition at x/c =  0.4887   51
 Side 2  free  transition at x/c =  0.3126   35

 116   rms: 0.7164E-02   max: -.1429E+00   C at   35  2
       a =  2.000      CL =  0.6262
      Cm = -0.0737     CD =  0.01085   =>   CDf =  0.00723    CDp =  0.00362

 Side 1  free  transition at x/c =  0.4887   51
 Side 2  free  transition at x/c =  0.3126   35

 117   rms: 0.7164E-02   max: -.1429E+00   C at   35  2
       a =  2.000      CL =  0.6262
      Cm = -0.0737     CD =  0.01085   =>   CDf =  0.00723    CDp =  0.00362

 Side 1  free  transition at x/c =  0.4887   51
 Side 2  free  transition at x/c =  0.3126   35

 118   rms: 0.7164E-02   max: -.1429E+00   C at   35  2
       a =  2.000      CL =  0.6262
      Cm = -0.0737     CD =  0.01085   =>   CDf =  0.00723    CDp =  0.00362

 Side 1  free  transition at x/c =  0.4887   51
 Side 2  free  transition at x/c =  0.3126   35

 119   rms: 0.7163E-02   max: -.1429E+00   C at   35  2
       a =  2.000      CL =  0.6262
      Cm = -0.0737     CD =  0.01085   =>   CDf =  0.00723    CDp =  0.00362

 Side 1  free  transition at x/c =  0.4887   51
 Side 2  free  transition at x/c =  0.3126   35

 120   rms: 0.7164E-02   max: -.1429E+00   C at   35  2
       a =  2.000      CL =  0.6262
      Cm = -0.0737     CD =  0.01085   =>   CDf =  0.00723    CDp =  0.00362

 Side 1  free  transition at x/c =  0.4887   51
 Side 2  free  transition at x/c =  0.3126   35

 121   rms: 0.7164E-02   max: -.1429E+00   C at   35  2
       a =  2.000      CL =  0.6262
      Cm = -0.0737     CD =  0.01085   =>   CDf =  0.00723    CDp =  0.00362

 Side 1  free  transition at x/c =  0.4887   51
 Side 2  free  transition at x/c =  0.3126   35

 122   rms: 0.7163E-02   max: -.1429E+00   C at   35  2
       a =  2.000      CL =  0.6262
      Cm = -0.0737     CD =  0.01085   =>   CDf =  0.00723    CDp =  0.00362

 Side 1  free  transition at x/c =  0.4887   51
 Side 2  free  transition at x/c =  0.3126   35

 123   rms: 0.7163E-02   max: -.1429E+00   C at   35  2
       a =  2.000      CL =  0.6262
      Cm = -0.0737     CD =  0.01085   =>   CDf =  0.00723    CDp =  0.00362

 Side 1  free  transition at x/c =  0.4887   51
 Side 2  free  transition at x/c =  0.3126   35

 124   rms: 0.7164E-02   max: -.1429E+00   C at   35  2
       a =  2.000      CL =  0.6262
      Cm = -0.0737     CD =  0.01085   =>   CDf =  0.00723    CDp =  0.00362

 Side 1  free  transition at x/c =  0.4887   51
 Side 2  free  transition at x/c =  0.3126   35

 125   rms: 0.7163E-02   max: -.1429E+00   C at   35  2
       a =  2.000      CL =  0.6262
      Cm = -0.0737     CD =  0.01085   =>   CDf =  0.00723    CDp =  0.00362

 Side 1  free  transition at x/c =  0.4887   51
 Side 2  free  transition at x/c =  0.3126   35

 126   rms: 0.7164E-02   max: -.1429E+00   C at   35  2
       a =  2.000      CL =  0.6262
      Cm = -0.0737     CD =  0.01085   =>   CDf =  0.00723    CDp =  0.00362

 Side 1  free  transition at x/c =  0.4887   51
 Side 2  free  transition at x/c =  0.3126   35

 127   rms: 0.7164E-02   max: -.1429E+00   C at   35  2
       a =  2.000      CL =  0.6262
      Cm = -0.0737     CD =  0.01085   =>   CDf =  0.00723    CDp =  0.00362

 Side 1  free  transition at x/c =  0.4887   51
 Side 2  free  transition at x/c =  0.3126   35

 128   rms: 0.7163E-02   max: -.1429E+00   C at   35  2
       a =  2.000      CL =  0.6262
      Cm = -0.0737     CD =  0.01085   =>   CDf =  0.00723    CDp =  0.00362

 Side 1  free  transition at x/c =  0.4887   51
 Side 2  free  transition at x/c =  0.3126   35

 129   rms: 0.7163E-02   max: -.1429E+00   C at   35  2
       a =  2.000      CL =  0.6262
      Cm = -0.0737     CD =  0.01085   =>   CDf =  0.00723    CDp =  0.00362

 Side 1  free  transition at x/c =  0.4887   51
 Side 2  free  transition at x/c =  0.3126   35

 130   rms: 0.7164E-02   max: -.1429E+00   C at   35  2
       a =  2.000      CL =  0.6262
      Cm = -0.0737     CD =  0.01085   =>   CDf =  0.00723    CDp =  0.00362

 Side 1  free  transition at x/c =  0.4887   51
 Side 2  free  transition at x/c =  0.3126   35

 131   rms: 0.7164E-02   max: -.1429E+00   C at   35  2
       a =  2.000      CL =  0.6262
      Cm = -0.0737     CD =  0.01085   =>   CDf =  0.00723    CDp =  0.00362

 Side 1  free  transition at x/c =  0.4887   51
 Side 2  free  transition at x/c =  0.3126   35

 132   rms: 0.7164E-02   max: -.1429E+00   C at   35  2
       a =  2.000      CL =  0.6262
      Cm = -0.0737     CD =  0.01085   =>   CDf =  0.00723    CDp =  0.00362

 Side 1  free  transition at x/c =  0.4887   51
 Side 2  free  transition at x/c =  0.3126   35

 133   rms: 0.7164E-02   max: -.1429E+00   C at   35  2
       a =  2.000      CL =  0.6262
      Cm = -0.0737     CD =  0.01085   =>   CDf =  0.00723    CDp =  0.00362

 Side 1  free  transition at x/c =  0.4887   51
 Side 2  free  transition at x/c =  0.3126   35

 134   rms: 0.7164E-02   max: -.1429E+00   C at   35  2
       a =  2.000      CL =  0.6262
      Cm = -0.0737     CD =  0.01085   =>   CDf =  0.00723    CDp =  0.00362

 Side 1  free  transition at x/c =  0.4887   51
 Side 2  free  transition at x/c =  0.3126   35

 135   rms: 0.7164E-02   max: -.1429E+00   C at   35  2
       a =  2.000      CL =  0.6262
      Cm = -0.0737     CD =  0.01085   =>   CDf =  0.00723    CDp =  0.00362

 Side 1  free  transition at x/c =  0.4887   51
 Side 2  free  transition at x/c =  0.3126   35

 136   rms: 0.7163E-02   max: -.1429E+00   C at   35  2
       a =  2.000      CL =  0.6262
      Cm = -0.0737     CD =  0.01085   =>   CDf =  0.00723    CDp =  0.00362

 Side 1  free  transition at x/c =  0.4887   51
 Side 2  free  transition at x/c =  0.3126   35

 137   rms: 0.7164E-02   max: -.1429E+00   C at   35  2
       a =  2.000      CL =  0.6262
      Cm = -0.0737     CD =  0.01085   =>   CDf =  0.00723    CDp =  0.00362

 Side 1  free  transition at x/c =  0.4887   51
 Side 2  free  transition at x/c =  0.3126   35

 138   rms: 0.7164E-02   max: -.1429E+00   C at   35  2
       a =  2.000      CL =  0.6262
      Cm = -0.0737     CD =  0.01085   =>   CDf =  0.00723    CDp =  0.00362

 Side 1  free  transition at x/c =  0.4887   51
 Side 2  free  transition at x/c =  0.3126   35

 139   rms: 0.7163E-02   max: -.1429E+00   C at   35  2
       a =  2.000      CL =  0.6262
      Cm = -0.0737     CD =  0.01085   =>   CDf =  0.00723    CDp =  0.00362

 Side 1  free  transition at x/c =  0.4887   51
 Side 2  free  transition at x/c =  0.3126   35

 140   rms: 0.7164E-02   max: -.1429E+00   C at   35  2
       a =  2.000      CL =  0.6262
      Cm = -0.0737     CD =  0.01085   =>   CDf =  0.00723    CDp =  0.00362

 Side 1  free  transition at x/c =  0.4887   51
 Side 2  free  transition at x/c =  0.3126   35

 141   rms: 0.7164E-02   max: -.1429E+00   C at   35  2
       a =  2.000      CL =  0.6262
      Cm = -0.0737     CD =  0.01085   =>   CDf =  0.00723    CDp =  0.00362

 Side 1  free  transition at x/c =  0.4887   51
 Side 2  free  transition at x/c =  0.3126   35

 142   rms: 0.7164E-02   max: -.1429E+00   C at   35  2
       a =  2.000      CL =  0.6262
      Cm = -0.0737     CD =  0.01085   =>   CDf =  0.00723    CDp =  0.00362

 Side 1  free  transition at x/c =  0.4887   51
 Side 2  free  transition at x/c =  0.3126   35

 143   rms: 0.7164E-02   max: -.1429E+00   C at   35  2
       a =  2.000      CL =  0.6262
      Cm = -0.0737     CD =  0.01085   =>   CDf =  0.00723    CDp =  0.00362

 Side 1  free  transition at x/c =  0.4887   51
 Side 2  free  transition at x/c =  0.3126   35

 144   rms: 0.7164E-02   max: -.1429E+00   C at   35  2
       a =  2.000      CL =  0.6262
      Cm = -0.0737     CD =  0.01085   =>   CDf =  0.00723    CDp =  0.00362

 Side 1  free  transition at x/c =  0.4887   51
 Side 2  free  transition at x/c =  0.3126   35

 145   rms: 0.7164E-02   max: -.1429E+00   C at   35  2
       a =  2.000      CL =  0.6262
      Cm = -0.0737     CD =  0.01085   =>   CDf =  0.00723    CDp =  0.00362

 Side 1  free  transition at x/c =  0.4887   51
 Side 2  free  transition at x/c =  0.3126   35

 146   rms: 0.7163E-02   max: -.1429E+00   C at   35  2
       a =  2.000      CL =  0.6262
      Cm = -0.0737     CD =  0.01085   =>   CDf =  0.00723    CDp =  0.00362

 Side 1  free  transition at x/c =  0.4887   51
 Side 2  free  transition at x/c =  0.3126   35

 147   rms: 0.7164E-02   max: -.1429E+00   C at   35  2
       a =  2.000      CL =  0.6262
      Cm = -0.0737     CD =  0.01085   =>   CDf =  0.00723    CDp =  0.00362

 Side 1  free  transition at x/c =  0.4887   51
 Side 2  free  transition at x/c =  0.3126   35

 148   rms: 0.7164E-02   max: -.1429E+00   C at   35  2
       a =  2.000      CL =  0.6262
      Cm = -0.0737     CD =  0.01085   =>   CDf =  0.00723    CDp =  0.00362

 Side 1  free  transition at x/c =  0.4887   51
 Side 2  free  transition at x/c =  0.3126   35

 149   rms: 0.7164E-02   max: -.1429E+00   C at   35  2
       a =  2.000      CL =  0.6262
      Cm = -0.0737     CD =  0.01085   =>   CDf =  0.00723    CDp =  0.00362

 Side 1  free  transition at x/c =  0.4887   51
 Side 2  free  transition at x/c =  0.3126   35

 150   rms: 0.7164E-02   max: -.1429E+00   C at   35  2
       a =  2.000      CL =  0.6262
      Cm = -0.0737     CD =  0.01085   =>   CDf =  0.00723    CDp =  0.00362

 Side 1  free  transition at x/c =  0.4887   51
 Side 2  free  transition at x/c =  0.3126   35

 151   rms: 0.7164E-02   max: -.1429E+00   C at   35  2
       a =  2.000      CL =  0.6262
      Cm = -0.0737     CD =  0.01085   =>   CDf =  0.00723    CDp =  0.00362

 Side 1  free  transition at x/c =  0.4887   51
 Side 2  free  transition at x/c =  0.3126   35

 152   rms: 0.7163E-02   max: -.1429E+00   C at   35  2
       a =  2.000      CL =  0.6262
      Cm = -0.0737     CD =  0.01085   =>   CDf =  0.00723    CDp =  0.00362

 Side 1  free  transition at x/c =  0.4887   51
 Side 2  free  transition at x/c =  0.3126   35

 153   rms: 0.7164E-02   max: -.1429E+00   C at   35  2
       a =  2.000      CL =  0.6262
      Cm = -0.0737     CD =  0.01085   =>   CDf =  0.00723    CDp =  0.00362

 Side 1  free  transition at x/c =  0.4887   51
 Side 2  free  transition at x/c =  0.3126   35

 154   rms: 0.7164E-02   max: -.1429E+00   C at   35  2
       a =  2.000      CL =  0.6262
      Cm = -0.0737     CD =  0.01085   =>   CDf =  0.00723    CDp =  0.00362

 Side 1  free  transition at x/c =  0.4887   51
 Side 2  free  transition at x/c =  0.3126   35

 155   rms: 0.7164E-02   max: -.1429E+00   C at   35  2
       a =  2.000      CL =  0.6262
      Cm = -0.0737     CD =  0.01085   =>   CDf =  0.00723    CDp =  0.00362
 VISCAL:  Convergence failed
 Calculating wake trajectory ...
 Calculating source influence matrix ...

 Solving BL system ...

 Side 1  free  transition at x/c =  0.4887   51
 Side 2  free  transition at x/c =  0.3126   35

[...]
      Cm = -0.0240     CD =  0.04243   =>   CDf =  0.00745    CDp =  0.03497

 Side 1  free  transition at x/c =  0.0168   25
 Side 2 forced transition at x/c =  1.0000   67

   4   rms: 0.3604E-04   max: 0.2492E-03   D at   80  2
       a = 13.000      CL =  1.3234
      Cm = -0.0240     CD =  0.04242   =>   CDf =  0.00745    CDp =  0.03497
 plradd ia,ip,cpol           26           0  2.82226683E-04

 Point added to stored polar  1
 Point written to save file  goe505_Re500k.base.pol                          
 Dump file unspecified or not available
 Calculating wake trajectory ...
 Calculating source influence matrix ...

 Solving BL system ...

 Side 1  free  transition at x/c =  0.0168   25
 Side 2 forced transition at x/c =  1.0000   67

   1   rms: 0.3622E-01   max: 0.1543E+00   T at   25  1   RLX: 0.536
       a = 13.250      CL =  1.3245
      Cm = -0.0234     CD =  0.04373   =>   CDf =  0.00715    CDp =  0.03658

 Side 1  free  transition at x/c =  0.0164   26
 Side 2 forced transition at x/c =  1.0000   66

   2   rms: 0.1897E-01   max: 0.7765E-01   T at    2  1
       a = 13.250      CL =  1.3227
      Cm = -0.0227     CD =  0.04505   =>   CDf =  0.00739    CDp =  0.03766

 Side 1  free  transition at x/c =  0.0160   26
 Side 2 forced transition at x/c =  1.0000   66

   3   rms: 0.1513E-02   max: 0.9031E-02   D at   73  1
       a = 13.250      CL =  1.3216
      Cm = -0.0226     CD =  0.04496   =>   CDf =  0.00734    CDp =  0.03762

 Side 1  free  transition at x/c =  0.0161   26
 Side 2 forced transition at x/c =  1.0000   66

   4   rms: 0.6739E-04   max: 0.4760E-03   D at   79  2
       a = 13.250      CL =  1.3216
      Cm = -0.0226     CD =  0.04495   =>   CDf =  0.00734    CDp =  0.03762
 plradd ia,ip,cpol           27           0  2.82226683E-04

 Point added to stored polar  1
 Point written to save file  goe505_Re500k.base.pol                          
 Dump file unspecified or not available
 Calculating wake trajectory ...
 Calculating source influence matrix ...

 Solving BL system ...

 Side 1  free  transition at x/c =  0.0161   26
 Side 2 forced transition at x/c =  1.0000   66

   1   rms: 0.3770E-01   max: 0.1482E+00   D at   71  1   RLX: 0.517
       a = 13.500      CL =  1.3209
      Cm = -0.0221     CD =  0.04649   =>   CDf =  0.00734    CDp =  0.03915

 Side 1  free  transition at x/c =  0.0158   26
 Side 2 forced transition at x/c =  1.0000   66

   2   rms: 0.1977E-01   max: 0.8498E-01   D at   72  1
       a = 13.500      CL =  1.3179
      Cm = -0.0214     CD =  0.04804   =>   CDf =  0.00728    CDp =  0.04076

 Side 1  free  transition at x/c =  0.0156   26
 Side 2 forced transition at x/c =  1.0000   66

   3   rms: 0.1885E-02   max: 0.1474E-01   D at   72  1
       a = 13.500      CL =  1.3167
      Cm = -0.0213     CD =  0.04792   =>   CDf =  0.00721    CDp =  0.04071

 Side 1  free  transition at x/c =  0.0156   26
 Side 2 forced transition at x/c =  1.0000   66

   4   rms: 0.7361E-04   max: 0.5606E-03   D at   79  2
       a = 13.500      CL =  1.3166
      Cm = -0.0213     CD =  0.04791   =>   CDf =  0.00721    CDp =  0.04070
 plradd ia,ip,cpol           28           0  2.82226683E-04

 Point added to stored polar  1
 Point written to save file  goe505_Re500k.base.pol                          
 Dump file unspecified or not available
 Calculating wake trajectory ...
 Calculating source influence matrix ...

 Solving BL system ...

 Side 1  free  transition at x/c =  0.0156   26
 Side 2 forced transition at x/c =  1.0000   66

   1   rms: 0.4000E-01   max: 0.1601E+00   D at   70  1   RLX: 0.498
       a = 13.750      CL =  1.3151
      Cm = -0.0209     CD =  0.04959   =>   CDf =  0.00721    CDp =  0.04238

 Side 1  free  transition at x/c =  0.0154   25
 Side 2 forced transition at x/c =  1.0000   66

   2   rms: 0.1731E-01   max: 0.6594E-01   D at   71  1
       a = 13.750      CL =  1.3158
      Cm = -0.0205     CD =  0.05079   =>   CDf =  0.00715    CDp =  0.04363

 Side 1  free  transition at x/c =  0.0154   25
 Side 2 forced transition at x/c =  1.0000   66

   3   rms: 0.2193E-02   max: 0.1730E-01   D at   71  1
       a = 13.750      CL =  1.3143
      Cm = -0.0204     CD =  0.05076   =>   CDf =  0.00711    CDp =  0.04365

 Side 1  free  transition at x/c =  0.0154   25
 Side 2 forced transition at x/c =  1.0000   66

   4   rms: 0.1480E-03   max: 0.7991E-03   D at   79  2
       a = 13.750      CL =  1.3141
      Cm = -0.0204     CD =  0.05075   =>   CDf =  0.00710    CDp =  0.04364

 Side 1  free  transition at x/c =  0.0154   25
 Side 2 forced transition at x/c =  1.0000   66

   5   rms: 0.5455E-05   max: 0.3953E-04   D at   79  2
       a = 13.750      CL =  1.3141
      Cm = -0.0204     CD =  0.05074   =>   CDf =  0.00710    CDp =  0.04364
 plradd ia,ip,cpol           29           0  5.53109749E-06

 Point added to stored polar  1
 Point written to save file  goe505_Re500k.base.pol                          
 Dump file unspecified or not available
 Calculating wake trajectory ...
 Calculating source influence matrix ...

 Solving BL system ...

 Side 1  free  transition at x/c =  0.0154   25
 Side 2 forced transition at x/c =  1.0000   66

   1   rms: 0.3513E-01   max: 0.1493E+00   T at   25  1   RLX: 0.485
       a = 14.000      CL =  1.3149
      Cm = -0.0201     CD =  0.05217   =>   CDf =  0.00711    CDp =  0.04506

 Side 1  free  transition at x/c =  0.0152   25
 Side 2 forced transition at x/c =  1.0000   66

   2   rms: 0.1858E-01   max: 0.7469E-01   D at   70  1
       a = 14.000      CL =  1.3143
      Cm = -0.0198     CD =  0.05367   =>   CDf =  0.00706    CDp =  0.04662

 Side 1  free  transition at x/c =  0.0150   25
 Side 2 forced transition at x/c =  1.0000   66

   3   rms: 0.2716E-02   max: 0.2134E-01   D at   70  1
       a = 14.000      CL =  1.3124
      Cm = -0.0197     CD =  0.05366   =>   CDf =  0.00700    CDp =  0.04666

 Side 1  free  transition at x/c =  0.0151   25
 Side 2 forced transition at x/c =  1.0000   66

   4   rms: 0.1468E-03   max: 0.1047E-02   D at   80  2
       a = 14.000      CL =  1.3123
      Cm = -0.0197     CD =  0.05364   =>   CDf =  0.00699    CDp =  0.04664

 Side 1  free  transition at x/c =  0.0151   25
 Side 2 forced transition at x/c =  1.0000   66

   5   rms: 0.2711E-05   max: 0.2017E-04   D at   80  2
       a = 14.000      CL =  1.3123
      Cm = -0.0197     CD =  0.05364   =>   CDf =  0.00699    CDp =  0.04664
 plradd ia,ip,cpol           30           0  2.82226683E-04

 Point added to stored polar  1
 Point written to save file  goe505_Re500k.base.pol                          
 Dump file unspecified or not available
 Calculating wake trajectory ...
 Calculating source influence matrix ...

 Solving BL system ...

 Side 1  free  transition at x/c =  0.0151   25
 Side 2 forced transition at x/c =  1.0000   66

   1   rms: 0.3406E-01   max: 0.1388E+00   D at   68  1   RLX: 0.470
       a = 14.250      CL =  1.3124
      Cm = -0.0195     CD =  0.05517   =>   CDf =  0.00700    CDp =  0.04817

 Side 1  free  transition at x/c =  0.0150   25
 Side 2 forced transition at x/c =  1.0000   66

   2   rms: 0.1893E-01   max: 0.8437E-01   D at   69  1
       a = 14.250      CL =  1.3110
      Cm = -0.0193     CD =  0.05691   =>   CDf =  0.00695    CDp =  0.04996

 Side 1  free  transition at x/c =  0.0150   25
 Side 2 forced transition at x/c =  1.0000   66

   3   rms: 0.2095E-02   max: 0.1220E-01   D at   69  1
       a = 14.250      CL =  1.3095
      Cm = -0.0192     CD =  0.05677   =>   CDf =  0.00689    CDp =  0.04988

 Side 1  free  transition at x/c =  0.0150   25
 Side 2 forced transition at x/c =  1.0000   66

   4   rms: 0.1008E-03   max: 0.8141E-03   D at   80  2
       a = 14.250      CL =  1.3094
      Cm = -0.0191     CD =  0.05675   =>   CDf =  0.00689    CDp =  0.04986

 Side 1  free  transition at x/c =  0.0150   25
 Side 2 forced transition at x/c =  1.0000   66

   5   rms: 0.2440E-05   max: 0.1430E-04   D at   83  2
       a = 14.250      CL =  1.3094
      Cm = -0.0191     CD =  0.05675   =>   CDf =  0.00689    CDp =  0.04986
 plradd ia,ip,cpol           31           0  2.82226683E-04

 Point added to stored polar  1
 Point written to save file  goe505_Re500k.base.pol                          
 Dump file unspecified or not available
 Calculating wake trajectory ...
 Calculating source influence matrix ...

 Solving BL system ...

 Side 1  free  transition at x/c =  0.0150   25
 Side 2 forced transition at x/c =  1.0000   66

   1   rms: 0.3524E-01   max: 0.1481E+00   D at   67  1   RLX: 0.456
       a = 14.500      CL =  1.3089
      Cm = -0.0191     CD =  0.05840   =>   CDf =  0.00689    CDp =  0.05151

 Side 1  free  transition at x/c =  0.0148   25
 Side 2 forced transition at x/c =  1.0000   66

   2   rms: 0.2083E-01   max: 0.1001E+00   D at   68  1
       a = 14.500      CL =  1.3059
      Cm = -0.0189     CD =  0.06047   =>   CDf =  0.00684    CDp =  0.05363

 Side 1  free  transition at x/c =  0.0147   25
 Side 2 forced transition at x/c =  1.0000   66

   3   rms: 0.2426E-02   max: 0.1612E-01   D at   80  2
       a = 14.500      CL =  1.3042
      Cm = -0.0188     CD =  0.06028   =>   CDf =  0.00678    CDp =  0.05350

 Side 1  free  transition at x/c =  0.0147   25
 Side 2 forced transition at x/c =  1.0000   66

   4   rms: 0.1742E-03   max: 0.1299E-02   D at   80  2
       a = 14.500      CL =  1.3041
      Cm = -0.0188     CD =  0.06026   =>   CDf =  0.00677    CDp =  0.05349

 Side 1  free  transition at x/c =  0.0147   25
 Side 2 forced transition at x/c =  1.0000   66

   5   rms: 0.8669E-05   max: 0.6537E-04   D at   80  2
       a = 14.500      CL =  1.3041
      Cm = -0.0188     CD =  0.06026   =>   CDf =  0.00677    CDp =  0.05349
 plradd ia,ip,cpol           32           0  2.82226683E-04

 Point added to stored polar  1
 Point written to save file  goe505_Re500k.base.pol                          
 Dump file unspecified or not available
 Calculating wake trajectory ...
 Calculating source influence matrix ...

 Solving BL system ...

 Side 1  free  transition at x/c =  0.0147   25
 Side 2 forced transition at x/c =  1.0000   66

   1   rms: 0.3784E-01   max: 0.1683E+00   D at   66  1   RLX: 0.441
       a = 14.750      CL =  1.3023
      Cm = -0.0188     CD =  0.06214   =>   CDf =  0.00678    CDp =  0.05537

 Side 1  free  transition at x/c =  0.0146   25
 Side 2 forced transition at x/c =  1.0000   66

   2   rms: 0.2186E-01   max: 0.1015E+00   D at   66  1
       a = 14.750      CL =  1.2986
      Cm = -0.0188     CD =  0.06441   =>   CDf =  0.00672    CDp =  0.05769

 Side 1  free  transition at x/c =  0.0144   25
 Side 2 forced transition at x/c =  1.0000   66

   3   rms: 0.3359E-02   max: 0.2799E-01   D at   66  1
       a = 14.750      CL =  1.2964
      Cm = -0.0187     CD =  0.06426   =>   CDf =  0.00666    CDp =  0.05760

 Side 1  free  transition at x/c =  0.0144   25
 Side 2 forced transition at x/c =  1.0000   66

   4   rms: 0.1732E-03   max: 0.1104E-02   D at   80  2
       a = 14.750      CL =  1.2962
      Cm = -0.0186     CD =  0.06421   =>   CDf =  0.00665    CDp =  0.05756

 Side 1  free  transition at x/c =  0.0144   25
 Side 2 forced transition at x/c =  1.0000   66

   5   rms: 0.2780E-05   max: 0.2795E-04   D at   80  2
       a = 14.750      CL =  1.2962
      Cm = -0.0186     CD =  0.06421   =>   CDf =  0.00665    CDp =  0.05755
 plradd ia,ip,cpol           33           0  2.82226683E-04

 Point added to stored polar  1
 Point written to save file  goe505_Re500k.base.pol                          
 Dump file unspecified or not available
 Calculating wake trajectory ...
 Calculating source influence matrix ...

 Solving BL system ...

 Side 1  free  transition at x/c =  0.0144   25
 Side 2 forced transition at x/c =  1.0000   66

   1   rms: 0.3524E-01   max: 0.1596E+00   D at   64  1   RLX: 0.427
       a = 15.000      CL =  1.2950
      Cm = -0.0188     CD =  0.06602   =>   CDf =  0.00666    CDp =  0.05937

 Side 1  free  transition at x/c =  0.0144   25
 Side 2 forced transition at x/c =  1.0000   66

   2   rms: 0.2157E-01   max: 0.1061E+00   D at   65  1
       a = 15.000      CL =  1.2916
      Cm = -0.0189     CD =  0.06846   =>   CDf =  0.00661    CDp =  0.06185

 Side 1  free  transition at x/c =  0.0144   25
 Side 2 forced transition at x/c =  1.0000   66

   3   rms: 0.2789E-02   max: 0.1589E-01   D at   64  1
       a = 15.000      CL =  1.2896
      Cm = -0.0188     CD =  0.06819   =>   CDf =  0.00654    CDp =  0.06164

 Side 1  free  transition at x/c =  0.0144   25
 Side 2 forced transition at x/c =  1.0000   66

   4   rms: 0.2041E-03   max: 0.1332E-02   D at   64  1
       a = 15.000      CL =  1.2895
      Cm = -0.0187     CD =  0.06815   =>   CDf =  0.00654    CDp =  0.06161

 Side 1  free  transition at x/c =  0.0144   25
 Side 2 forced transition at x/c =  1.0000   66

   5   rms: 0.1228E-04   max: 0.7734E-04   D at   81  2
       a = 15.000      CL =  1.2894
      Cm = -0.0187     CD =  0.06815   =>   CDf =  0.00654    CDp =  0.06161
 plradd ia,ip,cpol           34           0  5.53109749E-06

 Point added to stored polar  1
 Point written to save file  goe505_Re500k.base.pol                          
 Dump file unspecified or not available
 Calculating wake trajectory ...
 Calculating source influence matrix ...

 Solving BL system ...

 Side 1  free  transition at x/c =  0.0144   25
 Side 2 forced transition at x/c =  1.0000   66

   1   rms: 0.3839E-01   max: 0.1819E+00   D at   63  1   RLX: 0.414
       a = 15.250      CL =  1.2870
      Cm = -0.0190     CD =  0.07020   =>   CDf =  0.00654    CDp =  0.06366

 Side 1  free  transition at x/c =  0.0144   25
 Side 2 forced transition at x/c =  1.0000   66

   2   rms: 0.2317E-01   max: 0.1131E+00   D at   63  1
       a = 15.250      CL =  1.2825
      Cm = -0.0193     CD =  0.07294   =>   CDf =  0.00649    CDp =  0.06644

 Side 1  free  transition at x/c =  0.0143   25
 Side 2 forced transition at x/c =  1.0000   66

   3   rms: 0.3935E-02   max: 0.3067E-01   D at   63  1
       a = 15.250      CL =  1.2798
      Cm = -0.0191     CD =  0.07270   =>   CDf =  0.00642    CDp =  0.06628

 Side 1  free  transition at x/c =  0.0144   25
 Side 2 forced transition at x/c =  1.0000   66

   4   rms: 0.2561E-03   max: 0.1999E-02   D at   81  2
       a = 15.250      CL =  1.2796
      Cm = -0.0191     CD =  0.07263   =>   CDf =  0.00641    CDp =  0.06621

 Side 1  free  transition at x/c =  0.0144   25
 Side 2 forced transition at x/c =  1.0000   66

   5   rms: 0.5873E-05   max: 0.6778E-04   D at   81  2
       a = 15.250      CL =  1.2796
      Cm = -0.0191     CD =  0.07262   =>   CDf =  0.00641    CDp =  0.06621
 plradd ia,ip,cpol           35           0  5.53109749E-06

 Point added to stored polar  1
 Point written to save file  goe505_Re500k.base.pol                          
 Dump file unspecified or not available
 Calculating wake trajectory ...
 Calculating source influence matrix ...

 Solving BL system ...

 Side 1  free  transition at x/c =  0.0144   25
 Side 2 forced transition at x/c =  1.0000   66

   1   rms: 0.3917E-01   max: 0.1830E+00   D at   61  1   RLX: 0.401
       a = 15.500      CL =  1.2772
      Cm = -0.0194     CD =  0.07471   =>   CDf =  0.00642    CDp =  0.06829

 Side 1  free  transition at x/c =  0.0143   25
 Side 2 forced transition at x/c =  1.0000   66

   2   rms: 0.2541E-01   max: 0.1290E+00   D at   62  1
       a = 15.500      CL =  1.2713
      Cm = -0.0199     CD =  0.07784   =>   CDf =  0.00604    CDp =  0.07180

 Side 1  free  transition at x/c =  0.0141   26
 Side 2 forced transition at x/c =  1.0000   65

   3   rms: 0.4452E-02   max: -.3893E-01   T at    2  1
       a = 15.500      CL =  1.2686
      Cm = -0.0196     CD =  0.07746   =>   CDf =  0.00629    CDp =  0.07117

 Side 1  free  transition at x/c =  0.0142   26
 Side 2 forced transition at x/c =  1.0000   65

   4   rms: 0.6145E-03   max: -.6313E-02   D at    4  1
       a = 15.500      CL =  1.2684
      Cm = -0.0196     CD =  0.07741   =>   CDf =  0.00628    CDp =  0.07112

 Side 1  free  transition at x/c =  0.0142   26
 Side 2 forced transition at x/c =  1.0000   65

   5   rms: 0.2194E-04   max: 0.1452E-03   D at   80  2
       a = 15.500      CL =  1.2684
      Cm = -0.0196     CD =  0.07740   =>   CDf =  0.00628    CDp =  0.07112
 plradd ia,ip,cpol           36           0  5.53109749E-06

 Point added to stored polar  1
 Point written to save file  goe505_Re500k.base.pol                          
 Dump file unspecified or not available
 Calculating wake trajectory ...
 Calculating source influence matrix ...

 Solving BL system ...

 Side 1  free  transition at x/c =  0.0142   26
 Side 2 forced transition at x/c =  1.0000   65

   1   rms: 0.4151E-01   max: 0.2093E+00   D at   61  1   RLX: 0.387
       a = 15.750      CL =  1.2647
      Cm = -0.0201     CD =  0.07978   =>   CDf =  0.00629    CDp =  0.07349

 Side 1  free  transition at x/c =  0.0141   26
 Side 2 forced transition at x/c =  1.0000   65

   2   rms: 0.2568E-01   max: 0.1320E+00   D at   61  1
       a = 15.750      CL =  1.2579
      Cm = -0.0207     CD =  0.08319   =>   CDf =  0.00624    CDp =  0.07695

 Side 1  free  transition at x/c =  0.0140   26
 Side 2 forced transition at x/c =  1.0000   65

   3   rms: 0.5908E-02   max: -.3866E-01   D at   26  1
       a = 15.750      CL =  1.2548
      Cm = -0.0204     CD =  0.08274   =>   CDf =  0.00616    CDp =  0.07658

 Side 1  free  transition at x/c =  0.0140   26
 Side 2 forced transition at x/c =  1.0000   65

   4   rms: 0.2042E-03   max: 0.1551E-02   D at   60  1
       a = 15.750      CL =  1.2547
      Cm = -0.0204     CD =  0.08265   =>   CDf =  0.00615    CDp =  0.07650

 Side 1  free  transition at x/c =  0.0140   26
 Side 2 forced transition at x/c =  1.0000   65

   5   rms: 0.5826E-05   max: -.2036E-04   T at   82  2
       a = 15.750      CL =  1.2547
      Cm = -0.0204     CD =  0.08265   =>   CDf =  0.00615    CDp =  0.07649
 plradd ia,ip,cpol           37           0  2.82226683E-04

 Point added to stored polar  1
 Point written to save file  goe505_Re500k.base.pol                          
 Dump file unspecified or not available
 Calculating wake trajectory ...
 Calculating source influence matrix ...

 Solving BL system ...

 Side 1  free  transition at x/c =  0.0140   26
 Side 2 forced transition at x/c =  1.0000   65

   1   rms: 0.3980E-01   max: 0.1966E+00   D at   59  1   RLX: 0.375
       a = 16.000      CL =  1.2517
      Cm = -0.0209     CD =  0.08491   =>   CDf =  0.00616    CDp =  0.07875

 Side 1  free  transition at x/c =  0.0140   26
 Side 2 forced transition at x/c =  1.0000   65

   2   rms: 0.2547E-01   max: 0.1285E+00   D at   59  1
       a = 16.000      CL =  1.2454
      Cm = -0.0216     CD =  0.08842   =>   CDf =  0.00611    CDp =  0.08231

 Side 1  free  transition at x/c =  0.0138   26
 Side 2 forced transition at x/c =  1.0000   65

   3   rms: 0.5405E-02   max: 0.3406E-01   D at   59  1
       a = 16.000      CL =  1.2421
      Cm = -0.0214     CD =  0.08798   =>   CDf =  0.00604    CDp =  0.08194

 Side 1  free  transition at x/c =  0.0138   26
 Side 2 forced transition at x/c =  1.0000   65

   4   rms: 0.2599E-03   max: 0.2031E-02   D at   81  2
       a = 16.000      CL =  1.2420
      Cm = -0.0213     CD =  0.08786   =>   CDf =  0.00603    CDp =  0.08183

 Side 1  free  transition at x/c =  0.0138   26
 Side 2 forced transition at x/c =  1.0000   65

   5   rms: 0.2078E-04   max: -.8448E-04   D at   82  2
       a = 16.000      CL =  1.2420
      Cm = -0.0213     CD =  0.08786   =>   CDf =  0.00603    CDp =  0.08183
 plradd ia,ip,cpol           38           0  5.53109749E-06

 Point added to stored polar  1
 Point written to save file  goe505_Re500k.base.pol                          
 Dump file unspecified or not available

.OPERva   c>  
 Polar accumulation disabled

.OPERv   c>  
 XFOIL   c>  
 XFOIL   c>  