
 ===================================================
  XFOIL Version 6.99
  Copyright (C) 2000   Mark Drela, Harold Youngren

  This software comes with ABSOLUTELY NO WARRANTY,
    subject to the GNU General Public License.

  Caveat computor
 ===================================================

 File  xfoil.def  not found

   QUIT    Exit program

  .OPER    Direct operating point(s)
  .MDES    Complex mapping design routine
  .QDES    Surface speed design routine
  .GDES    Geometry design routine

   SAVE f  Write airfoil to labeled coordinate file
   PSAV f  Write airfoil to plain coordinate file
   ISAV f  Write airfoil to ISES coordinate file
   MSAV f  Write airfoil to MSES coordinate file
   REVE    Reverse written-airfoil node ordering

   LOAD f  Read buffer airfoil from coordinate file
   NACA i  Set NACA 4,5-digit airfoil and buffer airfoil
   INTE    Set buffer airfoil by interpolating two airfoils
   NORM    Buffer airfoil normalization toggle
   XYCM rr Change CM reference location, currently  0.25000 0.00000

   BEND    Display structural properties of current airfoil

   PCOP    Set current-airfoil panel nodes directly from buffer airfoil points
   PANE    Set current-airfoil panel nodes ( 160 ) based on curvature
  .PPAR    Show/change paneling

  .PLOP    Plotting options

   WDEF f  Write  current-settings file
   RDEF f  Reread current-settings file
   NAME s  Specify new airfoil name
   NINC    Increment name version number

   Z       Zoom    | (available in all menus)
   U       Unzoom  | 

 XFOIL   c>  
 Labeled airfoil file.  Name:  GOE 575 AIRFOIL                                 

 Number of input coordinate points:  33
 Counterclockwise ordering
 Max thickness =     0.133505  at x =   0.301
 Max camber    =     0.034115  at x =   0.398

  LE  x,y  =  -0.00031   0.00325  |   Chord =   1.00031
  TE  x,y  =   1.00000   0.00000  |

 Current airfoil nodes set from buffer airfoil nodes (  33 )

 WARNING: Poor input coordinate distribution
          Excessive panel angle   60.4  at i =  17
          Repaneling with PANE and/or PPAR suggested
           (doing GDES,CADD before repaneling _may_
            improve excessively coarse LE spacing

 XFOIL   c>  
 XFOIL   c>  
 Sharp trailing edge

 Paneling parameters used...
   Number of panel nodes       160
   Panel bunching parameter    1.000
   TE/LE panel density ratio   0.150
   Refined-area/LE panel density ratio    0.200
   Top    side refined area x/c limits  1.000 1.000
   Bottom side refined area x/c limits  1.000 1.000

 XFOIL   c>  
.OPERi   c>  
 Xtr/c     =  1.0000    top    side
 Xtr/c     =  1.0000    bottom side
 Ncrit     =    9.00   ( 0.070 % turb. level )
 Vacc      =  0.0100

 Klag  =  5.6000     Uxwt  =    1.00
 A     =  6.7000     B     =  0.7500       KCt = 0.01485
 CtiniK=  1.8000     CtiniX=  3.3000

..VPAR   c>  
..VPAR   c>  
.OPERi   c>  
 M  =    0.0000
 Re =    300000

.OPERv   c>  
.OPERv   c>  
.OPERv   c>  
 Polar  1 newly created for accumulation
 Airfoil archived with polar: GOE 575 AIRFOIL                                 

Enter  polar save filename  OR  <return> for no file   s>  
 New polar save file available

Enter  polar dump filename  OR  <return> for no file   s>  
 Polar dump file will NOT be written

 Polar accumulation enabled

.OPERva   c>   Calculating unit vorticity distributions ...
 Calculating wake trajectory ...
 Calculating source influence matrix ...

 Solving BL system ...

 Initializing BL ...
    side            1  ...
 MRCHUE: Inverse mode at  71     Hk =   3.800
 MRCHUE: Convergence failed at  72  side 1    Res =  0.3049E+02
 MRCHUE: Convergence failed at  73  side 1    Res =  0.2770E+02
 MRCHUE: Convergence failed at  74  side 1    Res =  0.1275E+02
 MRCHUE: Convergence failed at  75  side 1    Res =  0.1024E+02
 MRCHUE: Inverse mode at  76     Hk =   3.969
    side            2  ...
 MRCHUE: Inverse mode at  24     Hk =   3.800
 MRCHUE: Inverse mode at  25     Hk =   4.512
 MRCHUE: Inverse mode at  26     Hk =   5.230
 MRCHUE: Convergence failed at  27  side 2    Res =  0.4734E+01
 MRCHUE: Inverse mode at  28     Hk =   6.036
 MRCHUE: Inverse mode at  29     Hk =   6.867
 MRCHUE: Inverse mode at  30     Hk =   7.717
 MRCHUE: Inverse mode at  31     Hk =   8.584
 MRCHUE: Inverse mode at  32     Hk =   9.487
 MRCHUE: Inverse mode at  33     Hk =   5.326
 MRCHUE: Inverse mode at  34     Hk =   2.592
 MRCHUE: Inverse mode at  84     Hk =   2.500
 MRCHUE: Convergence failed at  85  side 2    Res =  0.3795E+01
 MRCHUE: Convergence failed at  86  side 2    Res =  0.1156E+02
 MRCHUE: Convergence failed at  88  side 2    Res =  0.2083E+00

 MRCHDU: Convergence failed at  72  side 1    Res =  0.1567E+01
 MRCHDU: Convergence failed at  73  side 1    Res =  0.1580E+03
 MRCHDU: Convergence failed at  74  side 1    Res =  0.1335E+02
 MRCHDU: Convergence failed at  75  side 1    Res =  0.2841E+02
 MRCHDU: Convergence failed at  76  side 1    Res =  0.6134E+03
 MRCHDU: Convergence failed at  34  side 2    Res =  0.1125E+01
 MRCHDU: Convergence failed at  35  side 2    Res =  0.7408E+00
 MRCHDU: Convergence failed at  36  side 2    Res =  0.1430E+01
 MRCHDU: Convergence failed at  37  side 2    Res =  0.2408E+01
 MRCHDU: Convergence failed at  38  side 2    Res =  0.3844E+01
 MRCHDU: Convergence failed at  39  side 2    Res =  0.5953E+01
 MRCHDU: Convergence failed at  40  side 2    Res =  0.8928E+01
 MRCHDU: Convergence failed at  41  side 2    Res =  0.1223E+02
 MRCHDU: Convergence failed at  42  side 2    Res =  0.1730E+02
 MRCHDU: Convergence failed at  43  side 2    Res =  0.2021E+02
 MRCHDU: Convergence failed at  44  side 2    Res =  0.1780E+02
 MRCHDU: Convergence failed at  45  side 2    Res =  0.1289E+02
 MRCHDU: Convergence failed at  46  side 2    Res =  0.1166E+02
 MRCHDU: Convergence failed at  47  side 2    Res =  0.1058E+02
 MRCHDU: Convergence failed at  48  side 2    Res =  0.9746E+01
 MRCHDU: Convergence failed at  49  side 2    Res =  0.9077E+01
 MRCHDU: Convergence failed at  50  side 2    Res =  0.8550E+01
 MRCHDU: Convergence failed at  51  side 2    Res =  0.5555E+01
 MRCHDU: Convergence failed at  52  side 2    Res =  0.5414E+01
 MRCHDU: Convergence failed at  53  side 2    Res =  0.5286E+01
 MRCHDU: Convergence failed at  54  side 2    Res =  0.5172E+01
 MRCHDU: Convergence failed at  55  side 2    Res =  0.5074E+01
 MRCHDU: Convergence failed at  56  side 2    Res =  0.4992E+01
 MRCHDU: Convergence failed at  57  side 2    Res =  0.4928E+01
 MRCHDU: Convergence failed at  58  side 2    Res =  0.4871E+01
 MRCHDU: Convergence failed at  59  side 2    Res =  0.4813E+01
 MRCHDU: Convergence failed at  60  side 2    Res =  0.4754E+01
 MRCHDU: Convergence failed at  61  side 2    Res =  0.1942E+02
 MRCHDU: Convergence failed at  62  side 2    Res =  0.2132E+02
 MRCHDU: Convergence failed at  63  side 2    Res =  0.2393E+02
 MRCHDU: Convergence failed at  64  side 2    Res =  0.2722E+02
 MRCHDU: Convergence failed at  65  side 2    Res =  0.3143E+02
 MRCHDU: Convergence failed at  66  side 2    Res =  0.3699E+02
 MRCHDU: Convergence failed at  67  side 2    Res =  0.4337E+02
 MRCHDU: Convergence failed at  68  side 2    Res =  0.4624E+02
 MRCHDU: Convergence failed at  69  side 2    Res =  0.5030E+02
 MRCHDU: Convergence failed at  70  side 2    Res =  0.5315E+02
 MRCHDU: Convergence failed at  71  side 2    Res =  0.5886E+02
 MRCHDU: Convergence failed at  72  side 2    Res =  0.5786E+02
 MRCHDU: Convergence failed at  73  side 2    Res =  0.5307E+02
 MRCHDU: Convergence failed at  74  side 2    Res =  0.4879E+02
 MRCHDU: Convergence failed at  75  side 2    Res =  0.4678E+02
 MRCHDU: Convergence failed at  76  side 2    Res =  0.5085E+02
 MRCHDU: Convergence failed at  77  side 2    Res =  0.7300E+02
 MRCHDU: Convergence failed at  78  side 2    Res =  0.1054E+03
 MRCHDU: Convergence failed at  79  side 2    Res =  0.1618E+05
 MRCHDU: Convergence failed at  80  side 2    Res =  0.5737E+02
 MRCHDU: Convergence failed at  81  side 2    Res =  0.2448E+02
 MRCHDU: Convergence failed at  82  side 2    Res =  0.3210E+02
 MRCHDU: Convergence failed at  83  side 2    Res =  0.1132E+03
 MRCHDU: Convergence failed at  84  side 2    Res =  0.3787E+02
 MRCHDU: Convergence failed at  85  side 2    Res =  0.3606E+02
 MRCHDU: Convergence failed at  86  side 2    Res =  0.1580E+02
 MRCHDU: Convergence failed at  88  side 2    Res =  0.6350E+00
 MRCHDU: Convergence failed at  89  side 2    Res =  0.1168E+01
 MRCHDU: Convergence failed at  90  side 2    Res =  0.1183E+01
 MRCHDU: Convergence failed at  91  side 2    Res =  0.1127E+01
 MRCHDU: Convergence failed at  92  side 2    Res =  0.1032E+01
 MRCHDU: Convergence failed at  93  side 2    Res =  0.9093E+00
 MRCHDU: Convergence failed at  94  side 2    Res =  0.7681E+00
 MRCHDU: Convergence failed at  95  side 2    Res =  0.6156E+00
 MRCHDU: Convergence failed at  96  side 2    Res =  0.4600E+00
 MRCHDU: Convergence failed at  97  side 2    Res =  0.3130E+00
 MRCHDU: Convergence failed at  98  side 2    Res =  0.1888E+00
 MRCHDU: Convergence failed at  99  side 2    Res =  0.9854E-01
 MRCHDU: Convergence failed at 101  side 2    Res =  0.3952E-03
 MRCHDU: Convergence failed at 103  side 2    Res =  0.1911E-03
 MRCHDU: Convergence failed at 104  side 2    Res =  0.4513E+00
 MRCHDU: Convergence failed at 105  side 2    Res =  0.2615E+00
 MRCHDU: Convergence failed at 106  side 2    Res =  0.5933E+00
 MRCHDU: Convergence failed at 107  side 2    Res =  0.3109E+00
 MRCHDU: Convergence failed at 108  side 2    Res =         NaN
 Side 1 forced transition at x/c =  1.0000   76
 Side 2  free  transition at x/c =  0.0873   33

   1   rms: 0.1706E+01   max: 0.1494E+02   C at  108  2   RLX: 0.100
       a = -4.000      CL = -0.6960
      Cm =  0.1335     CD =  0.00051   =>   CDf =  0.00345    CDp = -0.00293

 MRCHDU: Convergence failed at  99  side 2    Res =  0.1835E-01
 MRCHDU: Convergence failed at 103  side 2    Res =  0.3974E+00
 MRCHDU: Convergence failed at 105  side 2    Res =  0.3743E+00
 MRCHDU: Convergence failed at 106  side 2    Res =  0.4648E+00
 MRCHDU: Convergence failed at 107  side 2    Res =  0.2800E+00
 MRCHDU: Convergence failed at 108  side 2    Res =  0.2473E+00
 Side 1 forced transition at x/c =  1.0000   76
 Side 2  free  transition at x/c =  0.0846   33
 idif Ue xi dudx           1  0.15964833      4.26125526E-03   37.465096    
 Uenew xinew           2  5.71850650E-02  1.52635574E-03

   2   rms: 0.1424E+01   max: 0.6130E+01   C at   76  1   RLX: 0.245
       a = -4.000      CL = -0.6418
      Cm =  0.1008     CD =  0.00205   =>   CDf =  0.01094    CDp = -0.00889

 MRCHDU: Convergence failed at  34  side 2    Res =  0.1223E+02
 Side 1 forced transition at x/c =  1.0000   75
 Side 2  free  transition at x/c =  0.0750   32
 idif Ue xi dudx           1  0.12497170      3.70264053E-03   33.752045    
 Uenew xinew           2  2.46322174E-02  7.29799271E-04

   3   rms: 0.7794E+00   max: 0.3942E+01   D at   68  1   RLX: 0.237
       a = -4.000      CL = -0.6394
      Cm =  0.0830     CD =  0.00382   =>   CDf =  0.01030    CDp = -0.00648

 Side 1 forced transition at x/c =  1.0000   74
 Side 2  free  transition at x/c =  0.0710   33
 idif Ue xi dudx           1  0.20206299      6.54566288E-03   30.869753    
 Uenew xinew           2  0.10197908      3.30352783E-03

   4   rms: 0.7092E+00   max: 0.3340E+01   D at   66  1   RLX: 0.449
       a = -4.000      CL = -0.7716
      Cm =  0.0940     CD =  0.00845   =>   CDf =  0.00927    CDp = -0.00082

 MRCHDU: Convergence failed at  86  side 2    Res =  0.4523E+00
 MRCHDU: Convergence failed at  87  side 2    Res =  0.3454E+00
 MRCHDU: Convergence failed at  88  side 2    Res =  0.4286E+00
 MRCHDU: Convergence failed at  89  side 2    Res =  0.3144E+00
 Side 1  free  transition at x/c =  0.9362   67
 Side 2  free  transition at x/c =  0.0666   33
 idif Ue xi dudx           1  0.15278193      5.90252876E-03   25.884150    
 Uenew xinew           2  6.13516010E-02  2.37023830E-03

   5   rms: 0.3355E+00   max: 0.3089E+01   T at   67  1   RLX: 0.486
       a = -4.000      CL = -0.8075
      Cm =  0.1025     CD =  0.01124   =>   CDf =  0.00887    CDp =  0.00237

 Side 1  free  transition at x/c =  0.9140   64
 Side 2  free  transition at x/c =  0.0649   34

   6   rms: 0.2435E+00   max: 0.6952E+00   D at  104  2   RLX: 0.592
       a = -4.000      CL = -0.6366
      Cm =  0.0536     CD =  0.01635   =>   CDf =  0.00834    CDp =  0.00801

 Side 1  free  transition at x/c =  0.9063   63
 Side 2  free  transition at x/c =  0.0662   34

   7   rms: 0.2150E+00   max: -.1339E+01   T at   63  1   RLX: 0.373
       a = -4.000      CL = -0.5366
      Cm =  0.0292     CD =  0.01905   =>   CDf =  0.00815    CDp =  0.01090

 Side 1  free  transition at x/c =  0.9212   65
 Side 2  free  transition at x/c =  0.0669   34

   8   rms: 0.1101E+00   max: -.5328E+00   D at   36  2   RLX: 0.938
       a = -4.000      CL = -0.4225
      Cm = -0.0003     CD =  0.02054   =>   CDf =  0.00807    CDp =  0.01247

 Side 1  free  transition at x/c =  0.9107   66
 Side 2  free  transition at x/c =  0.0679   33

   9   rms: 0.2023E+00   max: -.3595E+01   D at    2  1   RLX: 0.139
       a = -4.000      CL = -0.4226
      Cm = -0.0004     CD =  0.02141   =>   CDf =  0.00778    CDp =  0.01362

 Side 1  free  transition at x/c =  0.9109   66
 Side 2  free  transition at x/c =  0.0679   33

  10   rms: 0.1543E-01   max: 0.1135E+00   D at   33  2
       a = -4.000      CL = -0.4145
      Cm = -0.0021     CD =  0.02131   =>   CDf =  0.00779    CDp =  0.01353

 Side 1  free  transition at x/c =  0.9121   66
 Side 2  free  transition at x/c =  0.0678   33

  11   rms: 0.2572E-02   max: -.1274E-01   D at    4  1
       a = -4.000      CL = -0.4120
      Cm = -0.0027     CD =  0.02129   =>   CDf =  0.00779    CDp =  0.01350

 Side 1  free  transition at x/c =  0.9125   66
 Side 2  free  transition at x/c =  0.0678   33

  12   rms: 0.8109E-04   max: -.5130E-03   T at   66  1
       a = -4.000      CL = -0.4119
      Cm = -0.0027     CD =  0.02129   =>   CDf =  0.00779    CDp =  0.01350
 plradd ia,ip,cpol            1           0  1.35240015E-02

 Point added to stored polar  1
 Point written to save file  goe575_Re300k.base.pol                          
 Dump file unspecified or not available
 Calculating wake trajectory ...
 Calculating source influence matrix ...

 Solving BL system ...

 Side 1  free  transition at x/c =  0.9125   66
 Side 2  free  transition at x/c =  0.0678   33

   1   rms: 0.1174E+00   max: -.3229E+00   T at   33  2
       a = -3.500      CL = -0.3222
      Cm = -0.0096     CD =  0.01937   =>   CDf =  0.00779    CDp =  0.01159

 Side 1  free  transition at x/c =  0.9069   65
 Side 2  free  transition at x/c =  0.0709   33

   2   rms: 0.1575E-01   max: -.1620E+00   T at   65  1
       a = -3.500      CL = -0.3151
      Cm = -0.0108     CD =  0.01970   =>   CDf =  0.00771    CDp =  0.01199

 Side 1  free  transition at x/c =  0.9121   66
 Side 2  free  transition at x/c =  0.0708   33

   3   rms: 0.2685E-01   max: 0.1685E+00   D at   68  1
       a = -3.500      CL = -0.3159
      Cm = -0.0108     CD =  0.01966   =>   CDf =  0.00772    CDp =  0.01194

 Side 1  free  transition at x/c =  0.9091   65
 Side 2  free  transition at x/c =  0.0707   33

   4   rms: 0.4982E-02   max: -.2228E-01   D at   66  1
       a = -3.500      CL = -0.3196
      Cm = -0.0099     CD =  0.01970   =>   CDf =  0.00771    CDp =  0.01198

 Side 1  free  transition at x/c =  0.9095   66
 Side 2  free  transition at x/c =  0.0707   33

   5   rms: 0.1156E-01   max: 0.1015E+00   D at   65  1
       a = -3.500      CL = -0.3172
      Cm = -0.0105     CD =  0.01968   =>   CDf =  0.00772    CDp =  0.01196

 Side 1  free  transition at x/c =  0.9095   66
 Side 2  free  transition at x/c =  0.0707   33

   6   rms: 0.2187E-02   max: 0.1252E-01   T at   66  1
       a = -3.500      CL = -0.3194
      Cm = -0.0100     CD =  0.01970   =>   CDf =  0.00772    CDp =  0.01198

 SETBL: Xtr???  n1 n2:    8.3893414       8.9999943    
 Side 1  free  transition at x/c =  0.9095   65
 Side 2  free  transition at x/c =  0.0707   33

   7   rms: 0.2567E-01   max: 0.3911E+00   C at   65  1
       a = -3.500      CL = -0.3091
      Cm = -0.0125     CD =  0.02003   =>   CDf =  0.00772    CDp =  0.01231

 Side 1  free  transition at x/c =  0.9080   65
 Side 2  free  transition at x/c =  0.0709   33

   8   rms: 0.1469E-01   max: -.2641E+00   D at   66  1
       a = -3.500      CL = -0.3133
      Cm = -0.0113     CD =  0.01978   =>   CDf =  0.00770    CDp =  0.01207

 Side 1  free  transition at x/c =  0.9120   66
 Side 2  free  transition at x/c =  0.0708   33

   9   rms: 0.2756E-01   max: 0.1773E+00   D at   68  1
       a = -3.500      CL = -0.3154
      Cm = -0.0109     CD =  0.01966   =>   CDf =  0.00771    CDp =  0.01195

 Side 1  free  transition at x/c =  0.9092   65
 Side 2  free  transition at x/c =  0.0707   33

  10   rms: 0.5364E-02   max: -.2335E-01   D at   96  2
       a = -3.500      CL = -0.3197
      Cm = -0.0099     CD =  0.01970   =>   CDf =  0.00771    CDp =  0.01199

 Side 1  free  transition at x/c =  0.9095   66
 Side 2  free  transition at x/c =  0.0707   33

  11   rms: 0.1153E-01   max: 0.1015E+00   D at   65  1
       a = -3.500      CL = -0.3172
      Cm = -0.0105     CD =  0.01968   =>   CDf =  0.00772    CDp =  0.01196

 Side 1  free  transition at x/c =  0.9095   66
 Side 2  free  transition at x/c =  0.0707   33

  12   rms: 0.2182E-02   max: 0.1253E-01   T at   66  1
       a = -3.500      CL = -0.3194
      Cm = -0.0100     CD =  0.01970   =>   CDf =  0.00772    CDp =  0.01198

 SETBL: Xtr???  n1 n2:    8.3893480       8.9999990    
 Side 1  free  transition at x/c =  0.9095   65
 Side 2  free  transition at x/c =  0.0707   33

  13   rms: 0.2567E-01   max: 0.3911E+00   C at   65  1
       a = -3.500      CL = -0.3091
      Cm = -0.0125     CD =  0.02003   =>   CDf =  0.00772    CDp =  0.01231

 Side 1  free  transition at x/c =  0.9080   65
 Side 2  free  transition at x/c =  0.0709   33

  14   rms: 0.1470E-01   max: -.2641E+00   D at   66  1
       a = -3.500      CL = -0.3133
      Cm = -0.0113     CD =  0.01978   =>   CDf =  0.00770    CDp =  0.01207

 Side 1  free  transition at x/c =  0.9120   66
 Side 2  free  transition at x/c =  0.0708   33

  15   rms: 0.2756E-01   max: 0.1773E+00   D at   68  1
       a = -3.500      CL = -0.3154
      Cm = -0.0109     CD =  0.01966   =>   CDf =  0.00771    CDp =  0.01195

 Side 1  free  transition at x/c =  0.9092   65
 Side 2  free  transition at x/c =  0.0707   33

  16   rms: 0.5365E-02   max: -.2336E-01   D at   96  2
       a = -3.500      CL = -0.3197
      Cm = -0.0099     CD =  0.01970   =>   CDf =  0.00771    CDp =  0.01199

 Side 1  free  transition at x/c =  0.9095   66
 Side 2  free  transition at x/c =  0.0707   33

  17   rms: 0.1153E-01   max: 0.1015E+00   D at   65  1
       a = -3.500      CL = -0.3172
      Cm = -0.0105     CD =  0.01968   =>   CDf =  0.00772    CDp =  0.01196

 Side 1  free  transition at x/c =  0.9095   66
 Side 2  free  transition at x/c =  0.0707   33

  18   rms: 0.2182E-02   max: 0.1253E-01   T at   66  1
       a = -3.500      CL = -0.3194
      Cm = -0.0100     CD =  0.01970   =>   CDf =  0.00772    CDp =  0.01198

 SETBL: Xtr???  n1 n2:    8.3893404       8.9999933    
 Side 1  free  transition at x/c =  0.9095   65
 Side 2  free  transition at x/c =  0.0707   33

  19   rms: 0.2567E-01   max: 0.3911E+00   C at   65  1
       a = -3.500      CL = -0.3091
      Cm = -0.0125     CD =  0.02003   =>   CDf =  0.00772    CDp =  0.01231

 Side 1  free  transition at x/c =  0.9080   65
 Side 2  free  transition at x/c =  0.0709   33

  20   rms: 0.1470E-01   max: -.2641E+00   D at   66  1
       a = -3.500      CL = -0.3133
      Cm = -0.0113     CD =  0.01978   =>   CDf =  0.00770    CDp =  0.01207

 Side 1  free  transition at x/c =  0.9120   66
 Side 2  free  transition at x/c =  0.0708   33

  21   rms: 0.2756E-01   max: 0.1773E+00   D at   68  1
       a = -3.500      CL = -0.3154
      Cm = -0.0109     CD =  0.01966   =>   CDf =  0.00771    CDp =  0.01195

 Side 1  free  transition at x/c =  0.9092   65
 Side 2  free  transition at x/c =  0.0707   33

  22   rms: 0.5365E-02   max: -.2336E-01   D at   96  2
       a = -3.500      CL = -0.3197
      Cm = -0.0099     CD =  0.01970   =>   CDf =  0.00771    CDp =  0.01199

 Side 1  free  transition at x/c =  0.9095   66
 Side 2  free  transition at x/c =  0.0707   33

  23   rms: 0.1153E-01   max: 0.1015E+00   D at   65  1
       a = -3.500      CL = -0.3172
      Cm = -0.0105     CD =  0.01968   =>   CDf =  0.00772    CDp =  0.01196

 Side 1  free  transition at x/c =  0.9095   66
 Side 2  free  transition at x/c =  0.0707   33

  24   rms: 0.2181E-02   max: 0.1253E-01   T at   66  1
       a = -3.500      CL = -0.3194
      Cm = -0.0100     CD =  0.01970   =>   CDf =  0.00772    CDp =  0.01198

 SETBL: Xtr???  n1 n2:    8.3893452       8.9999962    
 Side 1  free  transition at x/c =  0.9095   65
 Side 2  free  transition at x/c =  0.0707   33

  25   rms: 0.2567E-01   max: 0.3911E+00   C at   65  1
       a = -3.500      CL = -0.3091
      Cm = -0.0125     CD =  0.02003   =>   CDf =  0.00772    CDp =  0.01231

 Side 1  free  transition at x/c =  0.9080   65
 Side 2  free  transition at x/c =  0.0709   33

  26   rms: 0.1470E-01   max: -.2641E+00   D at   66  1
       a = -3.500      CL = -0.3133
      Cm = -0.0113     CD =  0.01978   =>   CDf =  0.00770    CDp =  0.01207

 Side 1  free  transition at x/c =  0.9120   66
 Side 2  free  transition at x/c =  0.0708   33

  27   rms: 0.2756E-01   max: 0.1773E+00   D at   68  1
       a = -3.500      CL = -0.3154
      Cm = -0.0109     CD =  0.01966   =>   CDf =  0.00771    CDp =  0.01195

 Side 1  free  transition at x/c =  0.9092   65
 Side 2  free  transition at x/c =  0.0707   33

  28   rms: 0.5365E-02   max: -.2336E-01   D at   96  2
       a = -3.500      CL = -0.3197
      Cm = -0.0099     CD =  0.01970   =>   CDf =  0.00771    CDp =  0.01199

 Side 1  free  transition at x/c =  0.9095   66
 Side 2  free  transition at x/c =  0.0707   33

  29   rms: 0.1153E-01   max: 0.1015E+00   D at   65  1
       a = -3.500      CL = -0.3172
      Cm = -0.0105     CD =  0.01968   =>   CDf =  0.00772    CDp =  0.01196

 Side 1  free  transition at x/c =  0.9095   66
 Side 2  free  transition at x/c =  0.0707   33

  30   rms: 0.2181E-02   max: 0.1252E-01   T at   66  1
       a = -3.500      CL = -0.3194
      Cm = -0.0100     CD =  0.01970   =>   CDf =  0.00772    CDp =  0.01198

 SETBL: Xtr???  n1 n2:    8.3893394       8.9999924    
 Side 1  free  transition at x/c =  0.9095   65
 Side 2  free  transition at x/c =  0.0707   33

  31   rms: 0.2567E-01   max: 0.3911E+00   C at   65  1
       a = -3.500      CL = -0.3091
      Cm = -0.0125     CD =  0.02003   =>   CDf =  0.00772    CDp =  0.01231

 Side 1  free  transition at x/c =  0.9080   65
 Side 2  free  transition at x/c =  0.0709   33

  32   rms: 0.1470E-01   max: -.2641E+00   D at   66  1
       a = -3.500      CL = -0.3133
      Cm = -0.0113     CD =  0.01978   =>   CDf =  0.00770    CDp =  0.01207

 Side 1  free  transition at x/c =  0.9120   66
 Side 2  free  transition at x/c =  0.0708   33

  33   rms: 0.2756E-01   max: 0.1773E+00   D at   68  1
       a = -3.500      CL = -0.3154
      Cm = -0.0109     CD =  0.01966   =>   CDf =  0.00771    CDp =  0.01195

 Side 1  free  transition at x/c =  0.9092   65
 Side 2  free  transition at x/c =  0.0707   33

  34   rms: 0.5365E-02   max: -.2335E-01   D at   96  2
       a = -3.500      CL = -0.3197
      Cm = -0.0099     CD =  0.01970   =>   CDf =  0.00771    CDp =  0.01199

 Side 1  free  transition at x/c =  0.9095   66
 Side 2  free  transition at x/c =  0.0707   33

  35   rms: 0.1153E-01   max: 0.1015E+00   D at   65  1
       a = -3.500      CL = -0.3172
      Cm = -0.0105     CD =  0.01968   =>   CDf =  0.00772    CDp =  0.01196

 Side 1  free  transition at x/c =  0.9095   66
 Side 2  free  transition at x/c =  0.0707   33

  36   rms: 0.2181E-02   max: 0.1253E-01   T at   66  1
       a = -3.500      CL = -0.3194
      Cm = -0.0100     CD =  0.01970   =>   CDf =  0.00772    CDp =  0.01198

 SETBL: Xtr???  n1 n2:    8.3893385       8.9999905    
 Side 1  free  transition at x/c =  0.9095   65
 Side 2  free  transition at x/c =  0.0707   33

  37   rms: 0.2567E-01   max: 0.3911E+00   C at   65  1
       a = -3.500      CL = -0.3091
      Cm = -0.0125     CD =  0.02003   =>   CDf =  0.00772    CDp =  0.01231

 Side 1  free  transition at x/c =  0.9080   65
 Side 2  free  transition at x/c =  0.0709   33

  38   rms: 0.1469E-01   max: -.2641E+00   D at   66  1
       a = -3.500      CL = -0.3133
      Cm = -0.0113     CD =  0.01978   =>   CDf =  0.00770    CDp =  0.01207

 Side 1  free  transition at x/c =  0.9120   66
 Side 2  free  transition at x/c =  0.0708   33

  39   rms: 0.2756E-01   max: 0.1773E+00   D at   68  1
       a = -3.500      CL = -0.3154
      Cm = -0.0109     CD =  0.01966   =>   CDf =  0.00771    CDp =  0.01195

 Side 1  free  transition at x/c =  0.9092   65
 Side 2  free  transition at x/c =  0.0707   33

  40   rms: 0.5364E-02   max: -.2335E-01   D at   96  2
       a = -3.500      CL = -0.3197
      Cm = -0.0099     CD =  0.01970   =>   CDf =  0.00771    CDp =  0.01199

 Side 1  free  transition at x/c =  0.9095   66
 Side 2  free  transition at x/c =  0.0707   33

  41   rms: 0.1153E-01   max: 0.1015E+00   D at   65  1
       a = -3.500      CL = -0.3172
      Cm = -0.0105     CD =  0.01968   =>   CDf =  0.00772    CDp =  0.01196

 Side 1  free  transition at x/c =  0.9095   66
 Side 2  free  transition at x/c =  0.0707   33

  42   rms: 0.2182E-02   max: 0.1253E-01   T at   66  1
       a = -3.500      CL = -0.3194
      Cm = -0.0100     CD =  0.01970   =>   CDf =  0.00772    CDp =  0.01198

 SETBL: Xtr???  n1 n2:    8.3893423       8.9999952    
 Side 1  free  transition at x/c =  0.9095   65
 Side 2  free  transition at x/c =  0.0707   33

  43   rms: 0.2567E-01   max: 0.3911E+00   C at   65  1
       a = -3.500      CL = -0.3091
      Cm = -0.0125     CD =  0.02003   =>   CDf =  0.00772    CDp =  0.01231

 Side 1  free  transition at x/c =  0.9080   65
 Side 2  free  transition at x/c =  0.0709   33

  44   rms: 0.1470E-01   max: -.2641E+00   D at   66  1
       a = -3.500      CL = -0.3133
      Cm = -0.0113     CD =  0.01978   =>   CDf =  0.00770    CDp =  0.01207

 Side 1  free  transition at x/c =  0.9120   66
 Side 2  free  transition at x/c =  0.0708   33

  45   rms: 0.2756E-01   max: 0.1773E+00   D at   68  1
       a = -3.500      CL = -0.3154
      Cm = -0.0109     CD =  0.01966   =>   CDf =  0.00771    CDp =  0.01195

 Side 1  free  transition at x/c =  0.9092   65
 Side 2  free  transition at x/c =  0.0707   33

  46   rms: 0.5365E-02   max: -.2336E-01   D at   96  2
       a = -3.500      CL = -0.3197
      Cm = -0.0099     CD =  0.01970   =>   CDf =  0.00771    CDp =  0.01199

 Side 1  free  transition at x/c =  0.9095   66
 Side 2  free  transition at x/c =  0.0707   33

  47   rms: 0.1153E-01   max: 0.1015E+00   D at   65  1
       a = -3.500      CL = -0.3172
      Cm = -0.0105     CD =  0.01968   =>   CDf =  0.00772    CDp =  0.01196

 Side 1  free  transition at x/c =  0.9095   66
 Side 2  free  transition at x/c =  0.0707   33

  48   rms: 0.2181E-02   max: 0.1253E-01   T at   66  1
       a = -3.500      CL = -0.3194
      Cm = -0.0100     CD =  0.01970   =>   CDf =  0.00772    CDp =  0.01198

 Side 1  free  transition at x/c =  0.9093   65
 Side 2  free  transition at x/c =  0.0707   33

  49   rms: 0.9207E-04   max: -.4425E-03   D at   95  2
       a = -3.500      CL = -0.3195
      Cm = -0.0100     CD =  0.01970   =>   CDf =  0.00772    CDp =  0.01198
 plradd ia,ip,cpol            2           0  1.62965134E-02

 Point added to stored polar  1
 Point written to save file  goe575_Re300k.base.pol                          
 Dump file unspecified or not available
 Calculating wake trajectory ...
 Calculating source influence matrix ...

 Solving BL system ...

 Side 1  free  transition at x/c =  0.9094   66
 Side 2  free  transition at x/c =  0.0707   33

   1   rms: 0.1130E+00   max: -.3518E+00   T at   33  2
       a = -3.000      CL = -0.2248
      Cm = -0.0175     CD =  0.01812   =>   CDf =  0.00774    CDp =  0.01038

 Side 1  free  transition at x/c =  0.9082   66
 Side 2  free  transition at x/c =  0.0750   32

   2   rms: 0.6217E-01   max: -.5961E+00   T at   66  1   RLX: 0.839
       a = -3.000      CL = -0.1775
      Cm = -0.0276     CD =  0.01784   =>   CDf =  0.00776    CDp =  0.01008

 Side 1  free  transition at x/c =  0.9290   69
 Side 2  free  transition at x/c =  0.0760   32

   3   rms: 0.1198E+00   max: 0.9263E+00   D at   70  1
       a = -3.000      CL = -0.1706
      Cm = -0.0296     CD =  0.01762   =>   CDf =  0.00773    CDp =  0.00989

 Side 1  free  transition at x/c =  0.9190   68
 Side 2  free  transition at x/c =  0.0768   32
 idif Ue xi dudx           1  0.13974039      3.49664688E-03   39.964115    
 Uenew xinew           2  3.04425601E-02  7.61747360E-04

   4   rms: 0.9673E+00   max: 0.9956E+01   T at   68  1   RLX: 0.081
       a = -3.000      CL = -0.2397
      Cm = -0.0162     CD =  0.01749   =>   CDf =  0.00762    CDp =  0.00987

 Side 1  free  transition at x/c =  0.8938   66
 Side 2  free  transition at x/c =  0.0747   32

   5   rms: 0.3478E-01   max: -.3671E+00   D at   66  1
       a = -3.000      CL = -0.2645
      Cm = -0.0086     CD =  0.01853   =>   CDf =  0.00772    CDp =  0.01081

 Side 1  free  transition at x/c =  0.8962   66
 Side 2  free  transition at x/c =  0.0742   32

   6   rms: 0.1629E-01   max: 0.6941E-01   D at   92  2
       a = -3.000      CL = -0.2494
      Cm = -0.0122     CD =  0.01836   =>   CDf =  0.00775    CDp =  0.01060

 Side 1  free  transition at x/c =  0.8963   66
 Side 2  free  transition at x/c =  0.0745   32

   7   rms: 0.9857E-03   max: -.5116E-02   D at   87  2
       a = -3.000      CL = -0.2503
      Cm = -0.0120     CD =  0.01836   =>   CDf =  0.00773    CDp =  0.01063

 Side 1  free  transition at x/c =  0.8962   66
 Side 2  free  transition at x/c =  0.0745   32

   8   rms: 0.1419E-04   max: 0.5266E-04   D at   87  2
       a = -3.000      CL = -0.2503
      Cm = -0.0120     CD =  0.01836   =>   CDf =  0.00773    CDp =  0.01063
 plradd ia,ip,cpol            3           0  1.62965134E-02

 Point added to stored polar  1
 Point written to save file  goe575_Re300k.base.pol                          
 Dump file unspecified or not available
 Calculating wake trajectory ...
 Calculating source influence matrix ...

 Solving BL system ...

 Side 1  free  transition at x/c =  0.8962   66
 Side 2  free  transition at x/c =  0.0745   32

   1   rms: 0.1078E+00   max: -.2641E+00   T at   32  2
       a = -2.500      CL = -0.1633
      Cm = -0.0178     CD =  0.01696   =>   CDf =  0.00775    CDp =  0.00922

 Side 1  free  transition at x/c =  0.8952   67
 Side 2  free  transition at x/c =  0.0794   32

   2   rms: 0.2842E-01   max: 0.2487E+00   D at    3  1
       a = -2.500      CL = -0.1568
      Cm = -0.0195     CD =  0.01693   =>   CDf =  0.00767    CDp =  0.00926

 Side 1  free  transition at x/c =  0.8933   66
 Side 2  free  transition at x/c =  0.0803   32

   3   rms: 0.1039E-01   max: -.1062E+00   T at   66  1
       a = -2.500      CL = -0.1493
      Cm = -0.0210     CD =  0.01686   =>   CDf =  0.00761    CDp =  0.00925

 Side 1  free  transition at x/c =  0.8986   67
 Side 2  free  transition at x/c =  0.0806   32

   4   rms: 0.4217E-01   max: 0.2772E+00   D at   69  1
       a = -2.500      CL = -0.1527
      Cm = -0.0205     CD =  0.01689   =>   CDf =  0.00761    CDp =  0.00928

 Side 1  free  transition at x/c =  0.8926   66
 Side 2  free  transition at x/c =  0.0804   32

   5   rms: 0.1477E-01   max: -.1543E+00   T at   66  1
       a = -2.500      CL = -0.1474
      Cm = -0.0214     CD =  0.01685   =>   CDf =  0.00760    CDp =  0.00924

 Side 1  free  transition at x/c =  0.9003   67
 Side 2  free  transition at x/c =  0.0807   32

   6   rms: 0.5143E-01   max: 0.3465E+00   D at   69  1
       a = -2.500      CL = -0.1526
      Cm = -0.0206     CD =  0.01690   =>   CDf =  0.00761    CDp =  0.00929

 Side 1  free  transition at x/c =  0.8921   66
 Side 2  free  transition at x/c =  0.0804   32

   7   rms: 0.1840E-01   max: -.1919E+00   T at   66  1
       a = -2.500      CL = -0.1454
      Cm = -0.0218     CD =  0.01684   =>   CDf =  0.00760    CDp =  0.00923

 Side 1  free  transition at x/c =  0.9018   67
 Side 2  free  transition at x/c =  0.0808   32

   8   rms: 0.5923E-01   max: 0.4058E+00   D at   69  1
       a = -2.500      CL = -0.1528
      Cm = -0.0206     CD =  0.01692   =>   CDf =  0.00761    CDp =  0.00931

 Side 1  free  transition at x/c =  0.8915   66
 Side 2  free  transition at x/c =  0.0803   32

   9   rms: 0.2343E-01   max: -.2442E+00   T at   66  1
       a = -2.500      CL = -0.1421
      Cm = -0.0225     CD =  0.01681   =>   CDf =  0.00760    CDp =  0.00921

 Side 1  free  transition at x/c =  0.9041   67
 Side 2  free  transition at x/c =  0.0809   32

  10   rms: 0.7182E-01   max: 0.5030E+00   D at   69  1
       a = -2.500      CL = -0.1541
      Cm = -0.0203     CD =  0.01696   =>   CDf =  0.00761    CDp =  0.00935

 Side 1  free  transition at x/c =  0.8904   66
 Side 2  free  transition at x/c =  0.0803   32

  11   rms: 0.4081E-01   max: -.4217E+00   T at   66  1
       a = -2.500      CL = -0.1284
      Cm = -0.0253     CD =  0.01673   =>   CDf =  0.00760    CDp =  0.00913

 Side 1  free  transition at x/c =  0.9129   68
 Side 2  free  transition at x/c =  0.0816   32

  12   rms: 0.9224E-01   max: 0.6901E+00   D at   69  1
       a = -2.500      CL = -0.1097
      Cm = -0.0300     CD =  0.01653   =>   CDf =  0.00761    CDp =  0.00892

 Side 1  free  transition at x/c =  0.9065   67
 Side 2  free  transition at x/c =  0.0826   32

  13   rms: 0.1965E+00   max: -.1959E+01   T at   67  1   RLX: 0.255
       a = -2.500      CL = -0.0638
      Cm = -0.0406     CD =  0.01595   =>   CDf =  0.00757    CDp =  0.00838

 Side 1  free  transition at x/c =  0.9325   69
 Side 2  free  transition at x/c =  0.0850   33

  14   rms: 0.1589E+00   max: 0.1211E+01   D at   72  1
       a = -2.500      CL = -0.0442
      Cm = -0.0447     CD =  0.01556   =>   CDf =  0.00755    CDp =  0.00801

 Side 1  free  transition at x/c =  0.9239   70
 Side 2  free  transition at x/c =  0.0890   32
 idif Ue xi dudx           1  7.53098577E-02  2.62320042E-03   28.709152    
 Uenew xinew           2  2.69000465E-03  9.36985016E-05

  15   rms: 0.1089E+00   max: -.1309E+01   D at    2  1   RLX: 0.382
       a = -2.500      CL = -0.0611
      Cm = -0.0425     CD =  0.01554   =>   CDf =  0.00747    CDp =  0.00808

 Side 1  free  transition at x/c =  0.9189   68
 Side 2  free  transition at x/c =  0.0864   33

  16   rms: 0.4490E+01   max: -.7219E+02   D at    2  2   RLX: 0.007
       a = -2.500      CL = -0.0708
      Cm = -0.0409     CD =  0.01525   =>   CDf =  0.00749    CDp =  0.00776

 Side 1  free  transition at x/c =  0.9141   68
 Side 2  free  transition at x/c =  0.0854   33

  17   rms: 0.9944E-01   max: 0.7469E+00   T at   68  1
       a = -2.500      CL = -0.1617
      Cm = -0.0187     CD =  0.01720   =>   CDf =  0.00751    CDp =  0.00969

 Side 1  free  transition at x/c =  0.8884   66
 Side 2  free  transition at x/c =  0.0800   32

  18   rms: 0.9195E-01   max: 0.8063E+00   T at   66  1   RLX: 0.812
       a = -2.500      CL = -0.2322
      Cm = -0.0038     CD =  0.01753   =>   CDf =  0.00761    CDp =  0.00993

 Side 1  free  transition at x/c =  0.8618   65
 Side 2  free  transition at x/c =  0.0770   32

  19   rms: 0.7076E-01   max: -.4534E+00   T at   65  1
       a = -2.500      CL = -0.2068
      Cm = -0.0081     CD =  0.01715   =>   CDf =  0.00769    CDp =  0.00946

 Side 1  free  transition at x/c =  0.8870   66
 Side 2  free  transition at x/c =  0.0781   32

  20   rms: 0.3576E-01   max: 0.1895E+00   D at   67  1
       a = -2.500      CL = -0.1802
      Cm = -0.0145     CD =  0.01709   =>   CDf =  0.00769    CDp =  0.00940

 Side 1  free  transition at x/c =  0.8835   66
 Side 2  free  transition at x/c =  0.0791   32

  21   rms: 0.2820E-02   max: -.1335E-01   D at   86  2
       a = -2.500      CL = -0.1822
      Cm = -0.0140     CD =  0.01709   =>   CDf =  0.00763    CDp =  0.00946

 Side 1  free  transition at x/c =  0.8837   66
 Side 2  free  transition at x/c =  0.0791   32

  22   rms: 0.5884E-03   max: 0.3158E-02   D at   86  2
       a = -2.500      CL = -0.1815
      Cm = -0.0141     CD =  0.01709   =>   CDf =  0.00764    CDp =  0.00945

 Side 1  free  transition at x/c =  0.8838   66
 Side 2  free  transition at x/c =  0.0791   32

  23   rms: 0.1568E-04   max: -.6565E-04   T at   66  1
       a = -2.500      CL = -0.1815
      Cm = -0.0141     CD =  0.01709   =>   CDf =  0.00764    CDp =  0.00945
 plradd ia,ip,cpol            4           0  1.93343163E-02

 Point added to stored polar  1
 Point written to save file  goe575_Re300k.base.pol                          
 Dump file unspecified or not available
 Calculating wake trajectory ...
 Calculating source influence matrix ...

 Solving BL system ...

 Side 1  free  transition at x/c =  0.8838   66
 Side 2  free  transition at x/c =  0.0791   32

   1   rms: 0.9875E-01   max: -.3455E+00   T at   32  2
       a = -2.000      CL = -0.1054
      Cm = -0.0178     CD =  0.01597   =>   CDf =  0.00763    CDp =  0.00834

 Side 1  free  transition at x/c =  0.8748   66
 Side 2  free  transition at x/c =  0.0864   32

   2   rms: 0.2278E-01   max: -.1913E+00   D at   31  2
       a = -2.000      CL = -0.1190
      Cm = -0.0150     CD =  0.01611   =>   CDf =  0.00759    CDp =  0.00852

 Side 1  free  transition at x/c =  0.8673   66
 Side 2  free  transition at x/c =  0.0875   32

   3   rms: 0.1469E-01   max: -.9069E-01   D at   70  1
       a = -2.000      CL = -0.1126
      Cm = -0.0162     CD =  0.01605   =>   CDf =  0.00755    CDp =  0.00851

 Side 1  free  transition at x/c =  0.8724   66
 Side 2  free  transition at x/c =  0.0878   32

   4   rms: 0.2715E-01   max: -.2016E+00   T at   66  1
       a = -2.000      CL = -0.0875
      Cm = -0.0215     CD =  0.01578   =>   CDf =  0.00755    CDp =  0.00824

 Side 1  free  transition at x/c =  0.8864   67
 Side 2  free  transition at x/c =  0.0907   32

   5   rms: 0.4516E-01   max: 0.3135E+00   D at   69  1
       a = -2.000      CL = -0.0886
      Cm = -0.0216     CD =  0.01589   =>   CDf =  0.00751    CDp =  0.00837

 Side 1  free  transition at x/c =  0.8772   67
 Side 2  free  transition at x/c =  0.0907   32

   6   rms: 0.1259E-01   max: -.6067E-01   D at   68  1
       a = -2.000      CL = -0.0973
      Cm = -0.0195     CD =  0.01590   =>   CDf =  0.00750    CDp =  0.00840

 Side 1  free  transition at x/c =  0.8783   67
 Side 2  free  transition at x/c =  0.0896   32

   7   rms: 0.1606E-02   max: 0.8522E-02   D at   85  2
       a = -2.000      CL = -0.0955
      Cm = -0.0199     CD =  0.01589   =>   CDf =  0.00752    CDp =  0.00837

 Side 1  free  transition at x/c =  0.8784   67
 Side 2  free  transition at x/c =  0.0898   32

   8   rms: 0.4048E-04   max: -.2301E-03   D at   85  2
       a = -2.000      CL = -0.0956
      Cm = -0.0199     CD =  0.01589   =>   CDf =  0.00752    CDp =  0.00838
 plradd ia,ip,cpol            5           0  1.93343163E-02

 Point added to stored polar  1
 Point written to save file  goe575_Re300k.base.pol                          
 Dump file unspecified or not available
 Calculating wake trajectory ...
 Calculating source influence matrix ...

 Solving BL system ...

 Side 1  free  transition at x/c =  0.8784   67
 Side 2  free  transition at x/c =  0.0898   32

   1   rms: 0.1169E+00   max: -.5570E+00   C at   32  2   RLX: 0.898
       a = -1.500      CL = -0.0204
      Cm = -0.0245     CD =  0.01476   =>   CDf =  0.00748    CDp =  0.00729

 MRCHDU: Convergence failed at  33  side 2    Res =  0.5014E+03
 MRCHDU: Convergence failed at  34  side 2    Res =  0.1245E+01
 MRCHDU: Convergence failed at  35  side 2    Res =  0.1195E+01
 MRCHDU: Convergence failed at  36  side 2    Res =  0.1124E+02
 MRCHDU: Convergence failed at  37  side 2    Res =  0.2277E+01
 MRCHDU: Convergence failed at  38  side 2    Res =  0.2687E+01
 MRCHDU: Convergence failed at  39  side 2    Res =  0.3094E+01
 MRCHDU: Convergence failed at  40  side 2    Res =  0.3719E+01
 MRCHDU: Convergence failed at  41  side 2    Res =  0.3981E+01
 MRCHDU: Convergence failed at  42  side 2    Res =  0.4138E+01
 MRCHDU: Convergence failed at  43  side 2    Res =  0.4185E+01
 MRCHDU: Convergence failed at  44  side 2    Res =  0.4128E+01
 MRCHDU: Convergence failed at  45  side 2    Res =  0.3995E+01
 MRCHDU: Convergence failed at  46  side 2    Res =  0.3841E+01
 MRCHDU: Convergence failed at  47  side 2    Res =  0.3745E+01
 MRCHDU: Convergence failed at  48  side 2    Res =  0.3718E+01
 MRCHDU: Convergence failed at  49  side 2    Res =  0.3655E+01
 MRCHDU: Convergence failed at  50  side 2    Res =  0.3613E+01
 MRCHDU: Convergence failed at  51  side 2    Res =  0.3622E+01
 MRCHDU: Convergence failed at  52  side 2    Res =  0.3580E+01
 MRCHDU: Convergence failed at  53  side 2    Res =  0.3572E+01
 MRCHDU: Convergence failed at  54  side 2    Res =  0.3585E+01
 MRCHDU: Convergence failed at  55  side 2    Res =  0.3579E+01
 MRCHDU: Convergence failed at  56  side 2    Res =  0.3570E+01
 MRCHDU: Convergence failed at  57  side 2    Res =  0.3560E+01
 MRCHDU: Convergence failed at  58  side 2    Res =  0.3534E+01
 MRCHDU: Convergence failed at  59  side 2    Res =  0.3480E+01
 MRCHDU: Convergence failed at  60  side 2    Res =  0.3418E+01
 MRCHDU: Convergence failed at  61  side 2    Res =  0.3360E+01
 MRCHDU: Convergence failed at  62  side 2    Res =  0.3298E+01
 MRCHDU: Convergence failed at  63  side 2    Res =  0.3257E+01
 MRCHDU: Convergence failed at  64  side 2    Res =  0.3214E+01
 MRCHDU: Convergence failed at  65  side 2    Res =  0.3184E+01
 MRCHDU: Convergence failed at  66  side 2    Res =  0.3165E+01
 MRCHDU: Convergence failed at  67  side 2    Res =  0.3148E+01
 MRCHDU: Convergence failed at  68  side 2    Res =  0.3136E+01
 MRCHDU: Convergence failed at  69  side 2    Res =  0.3122E+01
 MRCHDU: Convergence failed at  70  side 2    Res =  0.3109E+01
 MRCHDU: Convergence failed at  71  side 2    Res =  0.3093E+01
 MRCHDU: Convergence failed at  72  side 2    Res =  0.3058E+01
 MRCHDU: Convergence failed at  73  side 2    Res =  0.3007E+01
 MRCHDU: Convergence failed at  74  side 2    Res =  0.2949E+01
 MRCHDU: Convergence failed at  75  side 2    Res =  0.2892E+01
 MRCHDU: Convergence failed at  76  side 2    Res =  0.2844E+01
 MRCHDU: Convergence failed at  77  side 2    Res =  0.2797E+01
 MRCHDU: Convergence failed at  78  side 2    Res =  0.2642E+01
 MRCHDU: Convergence failed at  79  side 2    Res =  0.3499E+01
 MRCHDU: Convergence failed at  80  side 2    Res =  0.6005E+01
 MRCHDU: Convergence failed at  81  side 2    Res =  0.2520E+02
 MRCHDU: Convergence failed at  82  side 2    Res =  0.8620E+01
 MRCHDU: Convergence failed at  83  side 2    Res =  0.2460E+02
 MRCHDU: Convergence failed at  84  side 2    Res =  0.1552E+02
 Side 1  free  transition at x/c =  0.8749   67
 Side 2  free  transition at x/c =  0.1563   36

   2   rms: 0.4219E+00   max: 0.3424E+01   D at   84  2   RLX: 0.367
       a = -1.500      CL = -0.3059
      Cm =  0.0757     CD =  0.00832   =>   CDf =  0.00418    CDp =  0.00414

 MRCHDU: Convergence failed at  70  side 1    Res =  0.4304E+01
 MRCHDU: Convergence failed at  71  side 1    Res =  0.1004E+02
 MRCHDU: Convergence failed at  72  side 1    Res =  0.1216E+02
 MRCHDU: Convergence failed at  73  side 1    Res =  0.4298E+01
 MRCHDU: Convergence failed at  74  side 1    Res =  0.2010E+02
 MRCHDU: Convergence failed at  75  side 1    Res =  0.3909E+01
 MRCHDU: Convergence failed at  76  side 1    Res =  0.7017E+01
 MRCHDU: Convergence failed at  77  side 1    Res =  0.1280E+02
 MRCHDU: Convergence failed at  78  side 1    Res =  0.7119E+01
 Side 1  free  transition at x/c =  0.9222   70
 Side 2  free  transition at x/c =  0.2393   40

   3   rms: 0.5556E+00   max: 0.6257E+01   D at   78  1   RLX: 0.154
       a = -1.500      CL = -0.2361
      Cm =  0.0404     CD =  0.00701   =>   CDf =  0.00846    CDp = -0.00146

 Side 1  free  transition at x/c =  0.8965   69
 Side 2  free  transition at x/c =  0.2150   39
 idif Ue xi dudx           1  0.10806613      2.43306160E-03   44.415695    
 Uenew xinew           2  3.49983876E-03  7.87973404E-05

   4   rms: 0.2598E+00   max: 0.3084E+01   C at   39  2   RLX: 0.486
       a = -1.500      CL = -0.1727
      Cm =  0.0225     CD =  0.01123   =>   CDf =  0.00833    CDp =  0.00290

 Side 1  free  transition at x/c =  0.8798   67
 Side 2  free  transition at x/c =  0.1359   35

   5   rms: 0.1188E+00   max: 0.3823E+00   D at   93  2
       a = -1.500      CL = -0.0380
      Cm = -0.0193     CD =  0.01422   =>   CDf =  0.00793    CDp =  0.00629

 Side 1  free  transition at x/c =  0.8633   67
 Side 2  free  transition at x/c =  0.1251   34

   6   rms: 0.1558E+00   max: 0.2758E+01   D at    2  1   RLX: 0.437
       a = -1.500      CL = -0.0350
      Cm = -0.0198     CD =  0.01475   =>   CDf =  0.00732    CDp =  0.00742

 Side 1  free  transition at x/c =  0.8632   67
 Side 2  free  transition at x/c =  0.1254   34

   7   rms: 0.1052E-01   max: -.1273E+00   D at   67  1
       a = -1.500      CL = -0.0299
      Cm = -0.0212     CD =  0.01479   =>   CDf =  0.00731    CDp =  0.00748

 Side 1  free  transition at x/c =  0.8628   67
 Side 2  free  transition at x/c =  0.1256   34

   8   rms: 0.3189E-03   max: 0.4139E-02   D at   89  2
       a = -1.500      CL = -0.0300
      Cm = -0.0212     CD =  0.01479   =>   CDf =  0.00730    CDp =  0.00749

 Side 1  free  transition at x/c =  0.8628   67
 Side 2  free  transition at x/c =  0.1255   34

   9   rms: 0.2367E-04   max: -.1888E-03   D at   34  2
       a = -1.500      CL = -0.0300
      Cm = -0.0212     CD =  0.01479   =>   CDf =  0.00730    CDp =  0.00749
 plradd ia,ip,cpol            6           0  1.93343163E-02

 Point added to stored polar  1
 Point written to save file  goe575_Re300k.base.pol                          
 Dump file unspecified or not available
 Calculating wake trajectory ...
 Calculating source influence matrix ...

 Solving BL system ...

 Side 1  free  transition at x/c =  0.8628   67
 Side 2  free  transition at x/c =  0.1255   34

   1   rms: 0.1545E+00   max: -.1282E+01   C at   34  2   RLX: 0.390
       a = -1.000      CL =  0.0008
      Cm = -0.0229     CD =  0.01426   =>   CDf =  0.00731    CDp =  0.00696

 Side 1  free  transition at x/c =  0.8597   67
 Side 2  free  transition at x/c =  0.1461   35

   2   rms: 0.7642E-01   max: -.3969E+00   T at   35  2
       a = -1.000      CL =  0.0501
      Cm = -0.0255     CD =  0.01372   =>   CDf =  0.00721    CDp =  0.00651

 Side 1  free  transition at x/c =  0.8546   66
 Side 2  free  transition at x/c =  0.1723   37

   3   rms: 0.9370E-01   max: 0.5261E+00   D at   71  1
       a = -1.000      CL = -0.0227
      Cm = -0.0104     CD =  0.01492   =>   CDf =  0.00716    CDp =  0.00776

 Side 1  free  transition at x/c =  0.8141   64
 Side 2  free  transition at x/c =  0.1599   36

   4   rms: 0.1320E+00   max: -.6999E+00   D at   69  1   RLX: 0.714
       a = -1.000      CL =  0.0329
      Cm = -0.0199     CD =  0.01390   =>   CDf =  0.00717    CDp =  0.00673

 MRCHDU: Convergence failed at  67  side 1    Res =  0.1057E+01
 MRCHDU: Convergence failed at  68  side 1    Res =  0.3750E+01
 MRCHDU: Convergence failed at  69  side 1    Res =  0.3339E+01
 MRCHDU: Convergence failed at  70  side 1    Res =  0.1044E+02
 MRCHDU: Convergence failed at  71  side 1    Res =  0.4281E+01
 MRCHDU: Convergence failed at  72  side 1    Res =  0.5460E+01
 MRCHDU: Convergence failed at  73  side 1    Res =  0.5360E+01
 MRCHDU: Convergence failed at  74  side 1    Res =  0.4247E+01
 MRCHDU: Convergence failed at  75  side 1    Res =  0.4189E+03
 MRCHDU: Convergence failed at  76  side 1    Res =  0.3220E+01
 MRCHDU: Convergence failed at  77  side 1    Res =  0.4615E+01
 MRCHDU: Convergence failed at  78  side 1    Res =  0.5119E+01
 Side 1  free  transition at x/c =  0.8725   67
 Side 2  free  transition at x/c =  0.1698   37

   5   rms: 0.3396E+00   max: 0.4843E+01   D at   78  1   RLX: 0.310
       a = -1.000      CL =  0.1227
      Cm = -0.0544     CD =  0.01002   =>   CDf =  0.00714    CDp =  0.00287

 Side 1  free  transition at x/c =  0.8751   68
 Side 2  free  transition at x/c =  0.1841   36

   6   rms: 0.3337E+00   max: 0.3267E+01   T at    2  1   RLX: 0.338
       a = -1.000      CL =  0.2215
      Cm = -0.0709     CD =  0.01081   =>   CDf =  0.00723    CDp =  0.00358

 MRCHDU: Convergence failed at  78  side 1    Res =  0.1316E+01
 MRCHDU: Convergence failed at  79  side 1    Res =  0.9898E+00
 Side 1  free  transition at x/c =  0.9350   73
 Side 2  free  transition at x/c =  0.2034   36

   7   rms: 0.2474E+00   max: 0.3304E+01   D at   79  1   RLX: 0.454
       a = -1.000      CL =  0.2238
      Cm = -0.0708     CD =  0.01014   =>   CDf =  0.00707    CDp =  0.00306

 Side 1  free  transition at x/c =  0.9077   71
 Side 2  free  transition at x/c =  0.2041   36
 idif Ue xi dudx           1  0.19059530      2.89976597E-03   65.727821    
 Uenew xinew           2  5.33666834E-02  8.11934471E-04

   8   rms: 0.5873E+00   max: 0.3850E+01   D at   79  1   RLX: 0.173
       a = -1.000      CL =  0.1298
      Cm = -0.0491     CD =  0.01159   =>   CDf =  0.00706    CDp =  0.00453

 Side 1  free  transition at x/c =  0.8673   68
 Side 2  free  transition at x/c =  0.1875   37
 idif Ue xi dudx           1  8.93720314E-02  2.52354145E-03   35.415321    
 Uenew xinew           2  1.11963069E-02  3.16143036E-04

   9   rms: 0.1110E+00   max: 0.6456E+00   T at    2  2   RLX: 0.793
       a = -1.000      CL =  0.0389
      Cm = -0.0239     CD =  0.01416   =>   CDf =  0.00712    CDp =  0.00705

 Side 1  free  transition at x/c =  0.8402   65
 Side 2  free  transition at x/c =  0.1722   37

  10   rms: 0.1526E+00   max: -.1550E+01   T at    2  2   RLX: 0.323
       a = -1.000      CL =  0.0057
      Cm = -0.0161     CD =  0.01499   =>   CDf =  0.00711    CDp =  0.00788

 Side 1  free  transition at x/c =  0.8221   64
 Side 2  free  transition at x/c =  0.1668   36

  11   rms: 0.8811E+01   max: -.4933E+02   T at   64  1   RLX: 0.010
       a = -1.000      CL =  0.0691
      Cm = -0.0258     CD =  0.01453   =>   CDf =  0.00706    CDp =  0.00748

 MRCHDU: Convergence failed at  68  side 1    Res =  0.2356E+01
 MRCHDU: Convergence failed at  69  side 1    Res =  0.6434E+01
 MRCHDU: Convergence failed at  70  side 1    Res =  0.1018E+02
 MRCHDU: Convergence failed at  71  side 1    Res =  0.1019E+02
 MRCHDU: Convergence failed at  72  side 1    Res =  0.4172E+01
 MRCHDU: Convergence failed at  73  side 1    Res =  0.4711E+02
 MRCHDU: Convergence failed at  74  side 1    Res =  0.4208E+01
 MRCHDU: Convergence failed at  75  side 1    Res =  0.9057E+01
 MRCHDU: Convergence failed at  76  side 1    Res =  0.8918E+01
 MRCHDU: Convergence failed at  77  side 1    Res =  0.4439E+01
 MRCHDU: Convergence failed at  78  side 1    Res =  0.1196E+02
 MRCHDU: Convergence failed at  79  side 1    Res =  0.5890E+01
 Side 1 forced transition at x/c =  1.0000   79
 Side 2  free  transition at x/c =  0.1852   36

  12   rms: 0.6553E+00   max: 0.1188E+02   C at   79  1   RLX: 0.126
       a = -1.000      CL =  0.1488
      Cm = -0.0661     CD =  0.00970   =>   CDf =  0.00734    CDp =  0.00236

 Side 1  free  transition at x/c =  0.9938   78
 Side 2  free  transition at x/c =  0.1916   37

  13   rms: 0.3580E+00   max: 0.3099E+01   D at   79  1   RLX: 0.484
       a = -1.000      CL =  0.2872
      Cm = -0.0903     CD =  0.00970   =>   CDf =  0.00714    CDp =  0.00256

 Side 1  free  transition at x/c =  0.9485   75
 Side 2  free  transition at x/c =  0.2116   37
 idif Ue xi dudx           1  0.17658758      2.60126591E-03   67.885246    
 Uenew xinew           2  3.48546207E-02  5.13434410E-04

  14   rms: 0.2741E+00   max: 0.2025E+01   D at   79  1   RLX: 0.669
       a = -1.000      CL =  0.1459
      Cm = -0.0518     CD =  0.01162   =>   CDf =  0.00700    CDp =  0.00462

 MRCHDU: Convergence failed at  74  side 1    Res =  0.4536E+01
 MRCHDU: Convergence failed at  75  side 1    Res =  0.5723E+02
 Side 1  free  transition at x/c =  0.8723   68
 Side 2  free  transition at x/c =  0.1926   37
 idif Ue xi dudx           1  9.22402442E-02  2.32708454E-03   39.637684    
 Uenew xinew           2  4.74408083E-03  1.19686127E-04

  15   rms: 0.3240E+00   max: 0.2966E+01   T at    2  2   RLX: 0.305
       a = -1.000      CL =  0.0637
      Cm = -0.0339     CD =  0.01311   =>   CDf =  0.00706    CDp =  0.00606

 Side 1  free  transition at x/c =  0.8329   65
 Side 2  free  transition at x/c =  0.1793   37

  16   rms: 0.1256E+00   max: -.1484E+01   T at    2  2   RLX: 0.337
       a = -1.000      CL =  0.0392
      Cm = -0.0250     CD =  0.01485   =>   CDf =  0.00704    CDp =  0.00781

 Side 1  free  transition at x/c =  0.8342   65
 Side 2  free  transition at x/c =  0.1739   37

  17   rms: 0.5893E-01   max: -.4468E+00   D at   70  1
       a = -1.000      CL =  0.0142
      Cm = -0.0176     CD =  0.01420   =>   CDf =  0.00708    CDp =  0.00712

 Side 1  free  transition at x/c =  0.8426   66
 Side 2  free  transition at x/c =  0.1669   36

  18   rms: 0.1807E-01   max: 0.6553E-01   D at   84  2
       a = -1.000      CL =  0.0356
      Cm = -0.0225     CD =  0.01394   =>   CDf =  0.00718    CDp =  0.00676

 Side 1  free  transition at x/c =  0.8442   66
 Side 2  free  transition at x/c =  0.1696   36

  19   rms: 0.9840E-03   max: 0.6628E-02   T at   36  2
       a = -1.000      CL =  0.0348
      Cm = -0.0223     CD =  0.01394   =>   CDf =  0.00717    CDp =  0.00678

 Side 1  free  transition at x/c =  0.8442   66
 Side 2  free  transition at x/c =  0.1692   36

  20   rms: 0.3867E-04   max: 0.2079E-03   D at   84  2
       a = -1.000      CL =  0.0349
      Cm = -0.0223     CD =  0.01394   =>   CDf =  0.00717    CDp =  0.00677
 plradd ia,ip,cpol            7           0  2.26525236E-02

 Point added to stored polar  1
 Point written to save file  goe575_Re300k.base.pol                          
 Dump file unspecified or not available
 Calculating wake trajectory ...
 Calculating source influence matrix ...

 Solving BL system ...

 Side 1  free  transition at x/c =  0.8442   66
 Side 2  free  transition at x/c =  0.1692   36

   1   rms: 0.1190E+00   max: -.7138E+00   D at    3  2   RLX: 0.701
       a = -0.500      CL =  0.0892
      Cm = -0.0247     CD =  0.01336   =>   CDf =  0.00711    CDp =  0.00625

 MRCHDU: Convergence failed at  37  side 2    Res =  0.2485E+01
 MRCHDU: Convergence failed at  38  side 2    Res =  0.5828E+01
 MRCHDU: Convergence failed at  39  side 2    Res =  0.3038E+02
 MRCHDU: Convergence failed at  40  side 2    Res =  0.1583E+02
 MRCHDU: Convergence failed at  41  side 2    Res =  0.3069E+02
 MRCHDU: Convergence failed at  42  side 2    Res =  0.1147E+03
 MRCHDU: Convergence failed at  43  side 2    Res =  0.1947E+02
 MRCHDU: Convergence failed at  44  side 2    Res =  0.9853E+01
 MRCHDU: Convergence failed at  45  side 2    Res =  0.7051E+01
 MRCHDU: Convergence failed at  46  side 2    Res =  0.5755E+01
 MRCHDU: Convergence failed at  47  side 2    Res =  0.4850E+01
 MRCHDU: Convergence failed at  48  side 2    Res =  0.4408E+01
 MRCHDU: Convergence failed at  49  side 2    Res =  0.4120E+01
 MRCHDU: Convergence failed at  50  side 2    Res =  0.3880E+01
 MRCHDU: Convergence failed at  51  side 2    Res =  0.3681E+01
 MRCHDU: Convergence failed at  52  side 2    Res =  0.3524E+01
 MRCHDU: Convergence failed at  53  side 2    Res =  0.3365E+01
 MRCHDU: Convergence failed at  54  side 2    Res =  0.3205E+01
 MRCHDU: Convergence failed at  55  side 2    Res =  0.3050E+01
 MRCHDU: Convergence failed at  56  side 2    Res =  0.2941E+01
 MRCHDU: Convergence failed at  57  side 2    Res =  0.2793E+01
 MRCHDU: Convergence failed at  58  side 2    Res =  0.2675E+01
 MRCHDU: Convergence failed at  59  side 2    Res =  0.2586E+01
 MRCHDU: Convergence failed at  60  side 2    Res =  0.2521E+01
 MRCHDU: Convergence failed at  61  side 2    Res =  0.2466E+01
 MRCHDU: Convergence failed at  62  side 2    Res =  0.2428E+01
 MRCHDU: Convergence failed at  63  side 2    Res =  0.2391E+01
 MRCHDU: Convergence failed at  64  side 2    Res =  0.2350E+01
 MRCHDU: Convergence failed at  65  side 2    Res =  0.2301E+01
 MRCHDU: Convergence failed at  66  side 2    Res =  0.2241E+01
 MRCHDU: Convergence failed at  67  side 2    Res =  0.2169E+01
 MRCHDU: Convergence failed at  68  side 2    Res =  0.2077E+01
 MRCHDU: Convergence failed at  69  side 2    Res =  0.1960E+01
 MRCHDU: Convergence failed at  70  side 2    Res =  0.1695E+01
 MRCHDU: Convergence failed at  71  side 2    Res =  0.1614E+01
 MRCHDU: Convergence failed at  72  side 2    Res =  0.1546E+01
 MRCHDU: Convergence failed at  73  side 2    Res =  0.1508E+01
 MRCHDU: Convergence failed at  74  side 2    Res =  0.1514E+01
 MRCHDU: Convergence failed at  75  side 2    Res =  0.1528E+01
 MRCHDU: Convergence failed at  76  side 2    Res =  0.1628E+01
 MRCHDU: Convergence failed at  77  side 2    Res =  0.1915E+01
 MRCHDU: Convergence failed at  78  side 2    Res =  0.2560E+01
 MRCHDU: Convergence failed at  79  side 2    Res =  0.4143E+01
 MRCHDU: Convergence failed at  80  side 2    Res =  0.1002E+02
 MRCHDU: Convergence failed at  81  side 2    Res =  0.2187E+02
 MRCHDU: Convergence failed at  82  side 2    Res =  0.8257E+01
 MRCHDU: Convergence failed at  83  side 2    Res =  0.7368E+01
 Side 1  free  transition at x/c =  0.8345   66
 Side 2  free  transition at x/c =  0.1932   37

   2   rms: 0.4146E+00   max: 0.2716E+01   D at   83  2   RLX: 0.367
       a = -0.500      CL =  0.0630
      Cm = -0.0052     CD =  0.00888   =>   CDf =  0.00300    CDp =  0.00589

 Side 1  free  transition at x/c =  0.8368   67
 Side 2  free  transition at x/c =  0.2183   37
 idif Ue xi dudx           1  0.10419907      2.15458870E-03   48.361465    
 Uenew xinew           2  3.22847604E-03  6.67572021E-05

   3   rms: 0.1036E+00   max: -.5983E+00   D at   79  2   RLX: 0.836
       a = -0.500      CL =  0.1178
      Cm = -0.0268     CD =  0.01303   =>   CDf =  0.00743    CDp =  0.00559

 Side 1  free  transition at x/c =  0.8152   65
 Side 2  free  transition at x/c =  0.2021   37

   4   rms: 0.6608E-01   max: -.8071E+00   T at    2  2   RLX: 0.620
       a = -0.500      CL =  0.1058
      Cm = -0.0239     CD =  0.01330   =>   CDf =  0.00716    CDp =  0.00614

 Side 1  free  transition at x/c =  0.8178   65
 Side 2  free  transition at x/c =  0.1990   37

   5   rms: 0.1689E-01   max: -.2175E+00   D at   80  2
       a = -0.500      CL =  0.1030
      Cm = -0.0241     CD =  0.01306   =>   CDf =  0.00712    CDp =  0.00594

 Side 1  free  transition at x/c =  0.8178   65
 Side 2  free  transition at x/c =  0.1969   37

   6   rms: 0.4682E-02   max: -.2473E-01   D at   80  2
       a = -0.500      CL =  0.1081
      Cm = -0.0253     CD =  0.01308   =>   CDf =  0.00710    CDp =  0.00598

 Side 1  free  transition at x/c =  0.8181   65
 Side 2  free  transition at x/c =  0.1979   37

   7   rms: 0.1621E-03   max: -.9860E-03   C at   37  2
       a = -0.500      CL =  0.1083
      Cm = -0.0253     CD =  0.01308   =>   CDf =  0.00709    CDp =  0.00599

 Side 1  free  transition at x/c =  0.8181   65
 Side 2  free  transition at x/c =  0.1980   37

   8   rms: 0.4082E-05   max: 0.1525E-04   D at   80  2
       a = -0.500      CL =  0.1083
      Cm = -0.0253     CD =  0.01308   =>   CDf =  0.00709    CDp =  0.00599
 plradd ia,ip,cpol            8           0  2.26525236E-02

 Point added to stored polar  1
 Point written to save file  goe575_Re300k.base.pol                          
 Dump file unspecified or not available
 Calculating wake trajectory ...
 Calculating source influence matrix ...

 Solving BL system ...

 Side 1  free  transition at x/c =  0.8181   65
 Side 2  free  transition at x/c =  0.1980   37

   1   rms: 0.1031E+00   max: -.3957E+00   T at   37  2
       a =  0.000      CL =  0.1769
      Cm = -0.0274     CD =  0.01237   =>   CDf =  0.00697    CDp =  0.00541

 Side 1  free  transition at x/c =  0.7731   65
 Side 2  free  transition at x/c =  0.2207   36

   2   rms: 0.1062E+00   max: -.1509E+01   T at    2  1   RLX: 0.331
       a =  0.000      CL =  0.1871
      Cm = -0.0284     CD =  0.01265   =>   CDf =  0.00732    CDp =  0.00533

 Side 1  free  transition at x/c =  0.7769   65
 Side 2  free  transition at x/c =  0.2247   37

   3   rms: 0.4771E-01   max: -.2724E+00   C at   37  2
       a =  0.000      CL =  0.2194
      Cm = -0.0368     CD =  0.01179   =>   CDf =  0.00724    CDp =  0.00455

 Side 1  free  transition at x/c =  0.7867   65
 Side 2  free  transition at x/c =  0.2406   37

   4   rms: 0.7572E-02   max: 0.5130E-01   D at   76  1
       a =  0.000      CL =  0.2158
      Cm = -0.0360     CD =  0.01196   =>   CDf =  0.00705    CDp =  0.00492

 Side 1  free  transition at x/c =  0.7837   65
 Side 2  free  transition at x/c =  0.2382   37

   5   rms: 0.8592E-03   max: -.5313E-02   D at   81  2
       a =  0.000      CL =  0.2151
      Cm = -0.0358     CD =  0.01197   =>   CDf =  0.00705    CDp =  0.00492

 Side 1  free  transition at x/c =  0.7839   65
 Side 2  free  transition at x/c =  0.2380   37

   6   rms: 0.2318E-04   max: 0.1262E-03   D at   81  2
       a =  0.000      CL =  0.2151
      Cm = -0.0358     CD =  0.01197   =>   CDf =  0.00705    CDp =  0.00492
 plradd ia,ip,cpol            9           0  2.62796767E-02

 Point added to stored polar  1
 Point written to save file  goe575_Re300k.base.pol                          
 Dump file unspecified or not available
 Calculating wake trajectory ...
 Calculating source influence matrix ...

 Solving BL system ...

 Side 1  free  transition at x/c =  0.7839   65
 Side 2  free  transition at x/c =  0.2380   37

   1   rms: 0.1543E+00   max: -.1027E+01   D at    3  1   RLX: 0.487
       a =  0.500      CL =  0.2673
      Cm = -0.0410     CD =  0.01153   =>   CDf =  0.00706    CDp =  0.00447

 Side 1  free  transition at x/c =  0.7566   64
 Side 2  free  transition at x/c =  0.2622   39

   2   rms: 0.1373E+00   max: -.1235E+01   C at   39  2   RLX: 0.405
       a =  0.500      CL =  0.3003
      Cm = -0.0455     CD =  0.01131   =>   CDf =  0.00712    CDp =  0.00419

 Side 1  free  transition at x/c =  0.7477   64
 Side 2  free  transition at x/c =  0.2863   39

   3   rms: 0.1550E+00   max: -.2182E+01   C at   39  2   RLX: 0.229
       a =  0.500      CL =  0.3089
      Cm = -0.0467     CD =  0.01127   =>   CDf =  0.00709    CDp =  0.00418

 Side 1  free  transition at x/c =  0.7437   64
 Side 2  free  transition at x/c =  0.2957   39

   4   rms: 0.5551E-01   max: -.6514E+00   C at   39  2   RLX: 0.768
       a =  0.500      CL =  0.3271
      Cm = -0.0486     CD =  0.01121   =>   CDf =  0.00709    CDp =  0.00412

 Side 1  free  transition at x/c =  0.7342   63
 Side 2  free  transition at x/c =  0.4296   47

   5   rms: 0.2038E+00   max: -.3992E+01   C at   47  2   RLX: 0.125
       a =  0.500      CL =  0.3263
      Cm = -0.0486     CD =  0.01074   =>   CDf =  0.00665    CDp =  0.00408

 Side 1  free  transition at x/c =  0.7340   63
 Side 2  free  transition at x/c =  0.4489   48

   6   rms: 0.4201E+00   max: -.8306E+01   C at   48  2   RLX: 0.060
       a =  0.500      CL =  0.3268
      Cm = -0.0487     CD =  0.01064   =>   CDf =  0.00652    CDp =  0.00412

 Side 1  free  transition at x/c =  0.7339   63
 Side 2  free  transition at x/c =  0.4704   49

   7   rms: 0.8160E+00   max: -.1550E+02   C at   49  2   RLX: 0.032
       a =  0.500      CL =  0.3267
      Cm = -0.0487     CD =  0.01055   =>   CDf =  0.00642    CDp =  0.00413

 Side 1  free  transition at x/c =  0.7339   63
 Side 2  free  transition at x/c =  0.4948   50

   8   rms: 0.1006E+01   max: -.1845E+02   C at   50  2   RLX: 0.027
       a =  0.500      CL =  0.3262
      Cm = -0.0487     CD =  0.01048   =>   CDf =  0.00633    CDp =  0.00414

 Side 1  free  transition at x/c =  0.7339   63
 Side 2  free  transition at x/c =  0.5200   51

   9   rms: 0.1142E+01   max: -.2014E+02   C at   51  2   RLX: 0.025
       a =  0.500      CL =  0.3256
      Cm = -0.0485     CD =  0.01040   =>   CDf =  0.00625    CDp =  0.00415

 Side 1  free  transition at x/c =  0.7340   63
 Side 2  free  transition at x/c =  0.5420   52

  10   rms: 0.1167E+01   max: -.1993E+02   C at   52  2   RLX: 0.025
       a =  0.500      CL =  0.3248
      Cm = -0.0484     CD =  0.01032   =>   CDf =  0.00617    CDp =  0.00416

 Side 1  free  transition at x/c =  0.7341   63
 Side 2  free  transition at x/c =  0.5621   54

  11   rms: 0.8590E+00   max: -.1586E+02   C at   54  2   RLX: 0.032
       a =  0.500      CL =  0.3237
      Cm = -0.0481     CD =  0.01024   =>   CDf =  0.00609    CDp =  0.00415

 Side 1  free  transition at x/c =  0.7341   63
 Side 2  free  transition at x/c =  0.5840   55

  12   rms: 0.9389E+00   max: -.1694E+02   C at   55  2   RLX: 0.030
       a =  0.500      CL =  0.3228
      Cm = -0.0479     CD =  0.01016   =>   CDf =  0.00601    CDp =  0.00416

 Side 1  free  transition at x/c =  0.7342   63
 Side 2  free  transition at x/c =  0.6077   56

  13   rms: 0.1135E+01   max: -.1998E+02   C at   56  2   RLX: 0.025
       a =  0.500      CL =  0.3220
      Cm = -0.0478     CD =  0.01008   =>   CDf =  0.00592    CDp =  0.00416

 Side 1  free  transition at x/c =  0.7343   63
 Side 2  free  transition at x/c =  0.6332   57

  14   rms: 0.2608E+01   max: -.4476E+02   C at   57  2   RLX: 0.011
       a =  0.500      CL =  0.3219
      Cm = -0.0478     CD =  0.01000   =>   CDf =  0.00583    CDp =  0.00417

 Side 1  free  transition at x/c =  0.7344   63
 Side 2  free  transition at x/c =  0.6585   59

  15   rms: 0.3317E+01   max: 0.6067E+02   C at   59  2   RLX: 0.025
       a =  0.500      CL =  0.3196
      Cm = -0.0472     CD =  0.01025   =>   CDf =  0.00574    CDp =  0.00450

 Side 1  free  transition at x/c =  0.7342   63
 Side 2  free  transition at x/c =  0.5909   55

  16   rms: 0.8707E+00   max: -.1526E+02   C at   55  2   RLX: 0.033
       a =  0.500      CL =  0.3188
      Cm = -0.0470     CD =  0.01011   =>   CDf =  0.00598    CDp =  0.00412

 Side 1  free  transition at x/c =  0.7342   63
 Side 2  free  transition at x/c =  0.6137   56

  17   rms: 0.1124E+01   max: -.1929E+02   C at   56  2   RLX: 0.026
       a =  0.500      CL =  0.3181
      Cm = -0.0469     CD =  0.01003   =>   CDf =  0.00590    CDp =  0.00413

 Side 1  free  transition at x/c =  0.7343   63
 Side 2  free  transition at x/c =  0.6366   58

  18   rms: 0.1951E+01   max: -.3569E+02   C at   58  2   RLX: 0.014
       a =  0.500      CL =  0.3179
      Cm = -0.0468     CD =  0.00994   =>   CDf =  0.00581    CDp =  0.00413

 Side 1  free  transition at x/c =  0.7344   63
 Side 2  free  transition at x/c =  0.6588   59

  19   rms: 0.1482E+01   max: 0.2660E+02   C at   59  2   RLX: 0.056
       a =  0.500      CL =  0.3147
      Cm = -0.0460     CD =  0.01018   =>   CDf =  0.00573    CDp =  0.00446

 Side 1  free  transition at x/c =  0.7342   63
 Side 2  free  transition at x/c =  0.5861   55

  20   rms: 0.6505E+00   max: -.1173E+02   C at   55  2   RLX: 0.043
       a =  0.500      CL =  0.3139
      Cm = -0.0459     CD =  0.01007   =>   CDf =  0.00600    CDp =  0.00407

 Side 1  free  transition at x/c =  0.7343   63
 Side 2  free  transition at x/c =  0.6094   56

  21   rms: 0.7336E+00   max: -.1290E+02   C at   56  2   RLX: 0.039
       a =  0.500      CL =  0.3131
      Cm = -0.0457     CD =  0.01000   =>   CDf =  0.00591    CDp =  0.00409

 Side 1  free  transition at x/c =  0.7343   63
 Side 2  free  transition at x/c =  0.6325   57

  22   rms: 0.1468E+01   max: -.2504E+02   C at   57  2   RLX: 0.020
       a =  0.500      CL =  0.3128
      Cm = -0.0456     CD =  0.00992   =>   CDf =  0.00582    CDp =  0.00410

 Side 1  free  transition at x/c =  0.7344   63
 Side 2  free  transition at x/c =  0.6531   58

  23   rms: 0.1934E+01   max: 0.3194E+02   C at   58  2   RLX: 0.047
       a =  0.500      CL =  0.3106
      Cm = -0.0451     CD =  0.01012   =>   CDf =  0.00573    CDp =  0.00439

 Side 1  free  transition at x/c =  0.7342   63
 Side 2  free  transition at x/c =  0.6056   56

  24   rms: 0.6018E+00   max: -.1080E+02   C at   56  2   RLX: 0.046
       a =  0.500      CL =  0.3098
      Cm = -0.0449     CD =  0.00998   =>   CDf =  0.00593    CDp =  0.00405

 Side 1  free  transition at x/c =  0.7343   63
 Side 2  free  transition at x/c =  0.6200   57

  25   rms: 0.5924E+00   max: -.1082E+02   C at   57  2   RLX: 0.046
       a =  0.500      CL =  0.3095
      Cm = -0.0448     CD =  0.00993   =>   CDf =  0.00587    CDp =  0.00406

 Side 1  free  transition at x/c =  0.7343   63
 Side 2  free  transition at x/c =  0.6227   57

  26   rms: 0.4809E+00   max: -.8687E+01   C at   57  2   RLX: 0.058
       a =  0.500      CL =  0.3095
      Cm = -0.0449     CD =  0.00992   =>   CDf =  0.00586    CDp =  0.00406

 Side 1  free  transition at x/c =  0.7344   63
 Side 2  free  transition at x/c =  0.6453   58

  27   rms: 0.6017E+01   max: -.1044E+03   C at   58  2   RLX: 0.005
       a =  0.500      CL =  0.3097
      Cm = -0.0449     CD =  0.00984   =>   CDf =  0.00576    CDp =  0.00407

 Side 1  free  transition at x/c =  0.7344   63
 Side 2  free  transition at x/c =  0.6632   59

  28   rms: 0.6109E+00   max: 0.1053E+02   C at   59  2   RLX: 0.142
       a =  0.500      CL =  0.3068
      Cm = -0.0442     CD =  0.01008   =>   CDf =  0.00569    CDp =  0.00439

 Side 1  free  transition at x/c =  0.7342   63
 Side 2  free  transition at x/c =  0.6056   56

  29   rms: 0.3786E+00   max: -.6839E+01   C at   56  2   RLX: 0.073
       a =  0.500      CL =  0.3065
      Cm = -0.0442     CD =  0.00995   =>   CDf =  0.00593    CDp =  0.00402

 Side 1  free  transition at x/c =  0.7342   63
 Side 2  free  transition at x/c =  0.6259   57

  30   rms: 0.5158E+00   max: -.9190E+01   C at   57  2   RLX: 0.054
       a =  0.500      CL =  0.3065
      Cm = -0.0442     CD =  0.00989   =>   CDf =  0.00585    CDp =  0.00404

 Side 1  free  transition at x/c =  0.7342   63
 Side 2  free  transition at x/c =  0.6439   58

  31   rms: 0.1727E+01   max: -.3035E+02   C at   58  2   RLX: 0.016
       a =  0.500      CL =  0.3068
      Cm = -0.0443     CD =  0.00982   =>   CDf =  0.00577    CDp =  0.00405

 Side 1  free  transition at x/c =  0.7343   63
 Side 2  free  transition at x/c =  0.6620   59

  32   rms: 0.5826E+00   max: 0.1010E+02   C at   59  2   RLX: 0.148
       a =  0.500      CL =  0.3049
      Cm = -0.0438     CD =  0.01006   =>   CDf =  0.00569    CDp =  0.00437

 Side 1  free  transition at x/c =  0.7340   63
 Side 2  free  transition at x/c =  0.6043   56

  33   rms: 0.3103E+00   max: -.5650E+01   C at   56  2   RLX: 0.088
       a =  0.500      CL =  0.3050
      Cm = -0.0438     CD =  0.00994   =>   CDf =  0.00593    CDp =  0.00401

 Side 1  free  transition at x/c =  0.7340   63
 Side 2  free  transition at x/c =  0.6292   57

  34   rms: 0.4982E+00   max: -.8735E+01   C at   57  2   RLX: 0.057
       a =  0.500      CL =  0.3051
      Cm = -0.0438     CD =  0.00987   =>   CDf =  0.00584    CDp =  0.00403

 Side 1  free  transition at x/c =  0.7341   63
 Side 2  free  transition at x/c =  0.6495   58

  35   rms: 0.2694E+01   max: 0.4548E+02   C at   58  2   RLX: 0.033
       a =  0.500      CL =  0.3040
      Cm = -0.0435     CD =  0.01007   =>   CDf =  0.00575    CDp =  0.00432

 Side 1  free  transition at x/c =  0.7338   63
 Side 2  free  transition at x/c =  0.6035   56

  36   rms: 0.2861E+00   max: -.5233E+01   C at   56  2   RLX: 0.096
       a =  0.500      CL =  0.3042
      Cm = -0.0435     CD =  0.00993   =>   CDf =  0.00594    CDp =  0.00400

 Side 1  free  transition at x/c =  0.7339   63
 Side 2  free  transition at x/c =  0.6233   57

  37   rms: 0.3684E+00   max: -.6655E+01   C at   57  2   RLX: 0.075
       a =  0.500      CL =  0.3045
      Cm = -0.0436     CD =  0.00988   =>   CDf =  0.00586    CDp =  0.00402

 Side 1  free  transition at x/c =  0.7339   63
 Side 2  free  transition at x/c =  0.6431   58

  38   rms: 0.1170E+01   max: -.2063E+02   C at   58  2   RLX: 0.024
       a =  0.500      CL =  0.3048
      Cm = -0.0437     CD =  0.00981   =>   CDf =  0.00578    CDp =  0.00403

 Side 1  free  transition at x/c =  0.7340   63
 Side 2  free  transition at x/c =  0.6611   59

  39   rms: 0.5380E+00   max: 0.9349E+01   C at   59  2   RLX: 0.160
       a =  0.500      CL =  0.3035
      Cm = -0.0433     CD =  0.01005   =>   CDf =  0.00570    CDp =  0.00435

 Side 1  free  transition at x/c =  0.7337   63
 Side 2  free  transition at x/c =  0.6085   56

  40   rms: 0.2984E+00   max: -.5334E+01   C at   56  2   RLX: 0.094
       a =  0.500      CL =  0.3039
      Cm = -0.0434     CD =  0.00992   =>   CDf =  0.00592    CDp =  0.00400

 Side 1  free  transition at x/c =  0.7338   63
 Side 2  free  transition at x/c =  0.6316   57

  41   rms: 0.4583E+00   max: -.7939E+01   C at   57  2   RLX: 0.063
       a =  0.500      CL =  0.3042
      Cm = -0.0435     CD =  0.00985   =>   CDf =  0.00583    CDp =  0.00402

 Side 1  free  transition at x/c =  0.7338   63
 Side 2  free  transition at x/c =  0.6532   58

  42   rms: 0.1203E+01   max: 0.1990E+02   C at   58  2   RLX: 0.075
       a =  0.500      CL =  0.3030
      Cm = -0.0432     CD =  0.01004   =>   CDf =  0.00573    CDp =  0.00431

 Side 1  free  transition at x/c =  0.7336   63
 Side 2  free  transition at x/c =  0.6081   56

  43   rms: 0.2879E+00   max: -.5154E+01   C at   56  2   RLX: 0.097
       a =  0.500      CL =  0.3034
      Cm = -0.0432     CD =  0.00992   =>   CDf =  0.00592    CDp =  0.00400

 Side 1  free  transition at x/c =  0.7336   63
 Side 2  free  transition at x/c =  0.6322   57

  44   rms: 0.4646E+00   max: -.8016E+01   C at   57  2   RLX: 0.062
       a =  0.500      CL =  0.3037
      Cm = -0.0433     CD =  0.00985   =>   CDf =  0.00583    CDp =  0.00402

 Side 1  free  transition at x/c =  0.7337   63
 Side 2  free  transition at x/c =  0.6536   58

  45   rms: 0.1082E+01   max: 0.1781E+02   C at   58  2   RLX: 0.084
       a =  0.500      CL =  0.3026
      Cm = -0.0430     CD =  0.01004   =>   CDf =  0.00573    CDp =  0.00431

 Side 1  free  transition at x/c =  0.7335   63
 Side 2  free  transition at x/c =  0.6098   56

  46   rms: 0.3019E+00   max: -.5360E+01   C at   56  2   RLX: 0.093
       a =  0.500      CL =  0.3030
      Cm = -0.0430     CD =  0.00991   =>   CDf =  0.00592    CDp =  0.00400

 Side 1  free  transition at x/c =  0.7335   63
 Side 2  free  transition at x/c =  0.6318   57

  47   rms: 0.4434E+00   max: -.7667E+01   C at   57  2   RLX: 0.065
       a =  0.500      CL =  0.3034
      Cm = -0.0431     CD =  0.00985   =>   CDf =  0.00583    CDp =  0.00402

 Side 1  free  transition at x/c =  0.7336   63
 Side 2  free  transition at x/c =  0.6525   58

  48   rms: 0.1156E+01   max: 0.1911E+02   C at   58  2   RLX: 0.078
       a =  0.500      CL =  0.3022
      Cm = -0.0428     CD =  0.01004   =>   CDf =  0.00574    CDp =  0.00430

 Side 1  free  transition at x/c =  0.7334   63
 Side 2  free  transition at x/c =  0.6091   56

  49   rms: 0.2903E+00   max: -.5170E+01   C at   56  2   RLX: 0.097
       a =  0.500      CL =  0.3027
      Cm = -0.0429     CD =  0.00991   =>   CDf =  0.00592    CDp =  0.00399

 Side 1  free  transition at x/c =  0.7335   63
 Side 2  free  transition at x/c =  0.6316   57

  50   rms: 0.4282E+00   max: -.7412E+01   C at   57  2   RLX: 0.067
       a =  0.500      CL =  0.3031
      Cm = -0.0430     CD =  0.00985   =>   CDf =  0.00583    CDp =  0.00402

 Side 1  free  transition at x/c =  0.7335   63
 Side 2  free  transition at x/c =  0.6526   58

  51   rms: 0.1111E+01   max: 0.1835E+02   C at   58  2   RLX: 0.082
       a =  0.500      CL =  0.3020
      Cm = -0.0427     CD =  0.01004   =>   CDf =  0.00574    CDp =  0.00430

 Side 1  free  transition at x/c =  0.7333   63
 Side 2  free  transition at x/c =  0.6097   56

  52   rms: 0.2755E+00   max: -.4889E+01   C at   56  2   RLX: 0.102
       a =  0.500      CL =  0.3025
      Cm = -0.0428     CD =  0.00991   =>   CDf =  0.00592    CDp =  0.00399

 Side 1  free  transition at x/c =  0.7334   63
 Side 2  free  transition at x/c =  0.6325   57

  53   rms: 0.4379E+00   max: -.7542E+01   C at   57  2   RLX: 0.066
       a =  0.500      CL =  0.3029
      Cm = -0.0429     CD =  0.00985   =>   CDf =  0.00583    CDp =  0.00402

 Side 1  free  transition at x/c =  0.7335   63
 Side 2  free  transition at x/c =  0.6534   58

  54   rms: 0.1007E+01   max: 0.1654E+02   C at   58  2   RLX: 0.091
       a =  0.500      CL =  0.3018
      Cm = -0.0427     CD =  0.01003   =>   CDf =  0.00573    CDp =  0.00430

 Side 1  free  transition at x/c =  0.7333   63
 Side 2  free  transition at x/c =  0.6110   56

  55   rms: 0.2784E+00   max: -.4907E+01   C at   56  2   RLX: 0.102
       a =  0.500      CL =  0.3023
      Cm = -0.0427     CD =  0.00991   =>   CDf =  0.00592    CDp =  0.00399

 Side 1  free  transition at x/c =  0.7334   63
 Side 2  free  transition at x/c =  0.6339   57

  56   rms: 0.4451E+00   max: -.7614E+01   C at   57  2   RLX: 0.066
       a =  0.500      CL =  0.3028
      Cm = -0.0429     CD =  0.00985   =>   CDf =  0.00583    CDp =  0.00402

 Side 1  free  transition at x/c =  0.7334   63
 Side 2  free  transition at x/c =  0.6546   58

  57   rms: 0.8977E+00   max: 0.1464E+02   C at   58  2   RLX: 0.102
       a =  0.500      CL =  0.3017
      Cm = -0.0426     CD =  0.01003   =>   CDf =  0.00573    CDp =  0.00430

 Side 1  free  transition at x/c =  0.7333   63
 Side 2  free  transition at x/c =  0.6127   56

  58   rms: 0.2854E+00   max: -.4986E+01   C at   56  2   RLX: 0.100
       a =  0.500      CL =  0.3022
      Cm = -0.0427     CD =  0.00991   =>   CDf =  0.00591    CDp =  0.00400

 Side 1  free  transition at x/c =  0.7333   63
 Side 2  free  transition at x/c =  0.6356   57

  59   rms: 0.5615E+00   max: -.9458E+01   C at   57  2   RLX: 0.053
       a =  0.500      CL =  0.3026
      Cm = -0.0428     CD =  0.00984   =>   CDf =  0.00582    CDp =  0.00402

 Side 1  free  transition at x/c =  0.7334   63
 Side 2  free  transition at x/c =  0.6562   59

  60   rms: 0.8222E+00   max: 0.1465E+02   C at   59  2   RLX: 0.102
       a =  0.500      CL =  0.3014
      Cm = -0.0425     CD =  0.01005   =>   CDf =  0.00573    CDp =  0.00433

 Side 1  free  transition at x/c =  0.7332   63
 Side 2  free  transition at x/c =  0.6052   56

  61   rms: 0.2475E+00   max: -.4480E+01   C at   56  2   RLX: 0.112
       a =  0.500      CL =  0.3020
      Cm = -0.0426     CD =  0.00992   =>   CDf =  0.00594    CDp =  0.00398

 Side 1  free  transition at x/c =  0.7333   63
 Side 2  free  transition at x/c =  0.6291   57

  62   rms: 0.3758E+00   max: -.6588E+01   C at   57  2   RLX: 0.076
       a =  0.500      CL =  0.3025
      Cm = -0.0428     CD =  0.00986   =>   CDf =  0.00585    CDp =  0.00401

 Side 1  free  transition at x/c =  0.7334   63
 Side 2  free  transition at x/c =  0.6512   58

  63   rms: 0.1645E+01   max: 0.2740E+02   C at   58  2   RLX: 0.055
[...]

 Side 1  free  transition at x/c =  0.1060   42
 Side 2 forced transition at x/c =  1.0000   65

   4   rms: 0.1579E-04   max: -.6992E-04   D at   86  1
       a = 12.750      CL =  1.3844
      Cm = -0.0075     CD =  0.03162   =>   CDf =  0.00723    CDp =  0.02439
 plradd ia,ip,cpol           38           0  2.50036679E-02

 Point added to stored polar  1
 Point written to save file  goe575_Re300k.base.pol                          
 Dump file unspecified or not available
 Calculating wake trajectory ...
 Calculating source influence matrix ...

 Solving BL system ...

 Side 1  free  transition at x/c =  0.1060   42
 Side 2 forced transition at x/c =  1.0000   65

   1   rms: 0.4733E-01   max: -.4471E+00   D at    3  2   RLX: 0.721
       a = 13.000      CL =  1.3860
      Cm = -0.0055     CD =  0.03268   =>   CDf =  0.00699    CDp =  0.02569

 Side 1  free  transition at x/c =  0.1022   43
 Side 2 forced transition at x/c =  1.0000   64

   2   rms: 0.1255E-01   max: 0.6466E-01   D at    5  1
       a = 13.000      CL =  1.3826
      Cm = -0.0043     CD =  0.03330   =>   CDf =  0.00727    CDp =  0.02604

 Side 1  free  transition at x/c =  0.1015   42
 Side 2 forced transition at x/c =  1.0000   64

   3   rms: 0.1125E-02   max: -.1597E-01   C at   42  1
       a = 13.000      CL =  1.3828
      Cm = -0.0044     CD =  0.03324   =>   CDf =  0.00726    CDp =  0.02598

 Side 1  free  transition at x/c =  0.1015   42
 Side 2 forced transition at x/c =  1.0000   64

   4   rms: 0.5479E-04   max: -.2246E-03   D at   86  1
       a = 13.000      CL =  1.3829
      Cm = -0.0044     CD =  0.03324   =>   CDf =  0.00725    CDp =  0.02598
 plradd ia,ip,cpol           39           0  6.40055572E-04

 Point added to stored polar  1
 Point written to save file  goe575_Re300k.base.pol                          
 Dump file unspecified or not available
 Calculating wake trajectory ...
 Calculating source influence matrix ...

 Solving BL system ...

 Side 1  free  transition at x/c =  0.1015   42
 Side 2 forced transition at x/c =  1.0000   64

   1   rms: 0.3924E-01   max: -.2674E+00   D at    3  1   RLX: 0.696
       a = 13.250      CL =  1.3889
      Cm = -0.0030     CD =  0.03400   =>   CDf =  0.00726    CDp =  0.02674

 Side 1  free  transition at x/c =  0.0985   42
 Side 2 forced transition at x/c =  1.0000   64

   2   rms: 0.1146E-01   max: -.7098E-01   D at    3  1
       a = 13.250      CL =  1.3900
      Cm = -0.0023     CD =  0.03437   =>   CDf =  0.00719    CDp =  0.02718

 Side 1  free  transition at x/c =  0.0976   42
 Side 2 forced transition at x/c =  1.0000   64

   3   rms: 0.4304E-03   max: 0.2904E-02   D at   43  1
       a = 13.250      CL =  1.3896
      Cm = -0.0022     CD =  0.03437   =>   CDf =  0.00717    CDp =  0.02720

 Side 1  free  transition at x/c =  0.0976   42
 Side 2 forced transition at x/c =  1.0000   64

   4   rms: 0.4471E-05   max: -.1841E-04   D at   59  2
       a = 13.250      CL =  1.3896
      Cm = -0.0022     CD =  0.03437   =>   CDf =  0.00716    CDp =  0.02721
 plradd ia,ip,cpol           40           0  6.40055572E-04

 Point added to stored polar  1
 Point written to save file  goe575_Re300k.base.pol                          
 Dump file unspecified or not available
 Calculating wake trajectory ...
 Calculating source influence matrix ...

 Solving BL system ...

 Side 1  free  transition at x/c =  0.0976   42
 Side 2 forced transition at x/c =  1.0000   64

   1   rms: 0.3753E-01   max: -.2396E+00   D at    5  2   RLX: 0.671
       a = 13.500      CL =  1.3926
      Cm = -0.0007     CD =  0.03535   =>   CDf =  0.00717    CDp =  0.02818

 Side 1  free  transition at x/c =  0.0957   42
 Side 2 forced transition at x/c =  1.0000   64

   2   rms: 0.1250E-01   max: -.8248E-01   D at    5  2
       a = 13.500      CL =  1.3924
      Cm =  0.0001     CD =  0.03588   =>   CDf =  0.00714    CDp =  0.02875

 Side 1  free  transition at x/c =  0.0951   42
 Side 2 forced transition at x/c =  1.0000   64

   3   rms: 0.4807E-03   max: 0.2827E-02   D at   83  1
       a = 13.500      CL =  1.3920
      Cm =  0.0002     CD =  0.03586   =>   CDf =  0.00712    CDp =  0.02874

 Side 1  free  transition at x/c =  0.0951   42
 Side 2 forced transition at x/c =  1.0000   64

   4   rms: 0.4962E-05   max: 0.3132E-04   D at   76  2
       a = 13.500      CL =  1.3920
      Cm =  0.0002     CD =  0.03586   =>   CDf =  0.00712    CDp =  0.02874
 plradd ia,ip,cpol           41           0  1.35075499E-03

 Point added to stored polar  1
 Point written to save file  goe575_Re300k.base.pol                          
 Dump file unspecified or not available
 Calculating wake trajectory ...
 Calculating source influence matrix ...

 Solving BL system ...

 Side 1  free  transition at x/c =  0.0951   42
 Side 2 forced transition at x/c =  1.0000   64

   1   rms: 0.3979E-01   max: -.2689E+00   D at    4  2   RLX: 0.646
       a = 13.750      CL =  1.3937
      Cm =  0.0016     CD =  0.03693   =>   CDf =  0.00712    CDp =  0.02982

 Side 1  free  transition at x/c =  0.0932   42
 Side 2 forced transition at x/c =  1.0000   64

   2   rms: 0.1476E-01   max: -.9917E-01   D at    4  2
       a = 13.750      CL =  1.3919
      Cm =  0.0026     CD =  0.03767   =>   CDf =  0.00711    CDp =  0.03056

 Side 1  free  transition at x/c =  0.0924   42
 Side 2 forced transition at x/c =  1.0000   64

   3   rms: 0.7890E-03   max: 0.5587E-02   D at   82  1
       a = 13.750      CL =  1.3913
      Cm =  0.0026     CD =  0.03765   =>   CDf =  0.00710    CDp =  0.03055

 Side 1  free  transition at x/c =  0.0925   42
 Side 2 forced transition at x/c =  1.0000   64

   4   rms: 0.2076E-04   max: 0.2165E-03   D at   76  2
       a = 13.750      CL =  1.3913
      Cm =  0.0026     CD =  0.03765   =>   CDf =  0.00710    CDp =  0.03055
 plradd ia,ip,cpol           42           0  6.40055572E-04

 Point added to stored polar  1
 Point written to save file  goe575_Re300k.base.pol                          
 Dump file unspecified or not available
 Calculating wake trajectory ...
 Calculating source influence matrix ...

 Solving BL system ...

 Side 1  free  transition at x/c =  0.0925   42
 Side 2 forced transition at x/c =  1.0000   64

   1   rms: 0.3544E-01   max: 0.1150E+00   D at   80  1   RLX: 0.620
       a = 14.000      CL =  1.3916
      Cm =  0.0040     CD =  0.03885   =>   CDf =  0.00710    CDp =  0.03175

 Side 1  free  transition at x/c =  0.0914   42
 Side 2 forced transition at x/c =  1.0000   64

   2   rms: 0.1403E-01   max: 0.5402E-01   D at   82  1
       a = 14.000      CL =  1.3897
      Cm =  0.0049     CD =  0.03967   =>   CDf =  0.00708    CDp =  0.03259

 Side 1  free  transition at x/c =  0.0907   42
 Side 2 forced transition at x/c =  1.0000   64

   3   rms: 0.1147E-02   max: 0.9751E-02   D at   81  1
       a = 14.000      CL =  1.3888
      Cm =  0.0050     CD =  0.03967   =>   CDf =  0.00707    CDp =  0.03260

 Side 1  free  transition at x/c =  0.0908   42
 Side 2 forced transition at x/c =  1.0000   64

   4   rms: 0.1220E-04   max: 0.1501E-03   D at   76  2
       a = 14.000      CL =  1.3888
      Cm =  0.0050     CD =  0.03966   =>   CDf =  0.00706    CDp =  0.03260
 plradd ia,ip,cpol           43           0  1.35075499E-03

 Point added to stored polar  1
 Point written to save file  goe575_Re300k.base.pol                          
 Dump file unspecified or not available
 Calculating wake trajectory ...
 Calculating source influence matrix ...

 Solving BL system ...

 Side 1  free  transition at x/c =  0.0908   42
 Side 2 forced transition at x/c =  1.0000   64

   1   rms: 0.4664E-01   max: 0.4076E+00   T at    3  1   RLX: 0.595
       a = 14.250      CL =  1.3880
      Cm =  0.0062     CD =  0.04099   =>   CDf =  0.00707    CDp =  0.03392

 Side 1  free  transition at x/c =  0.0898   41
 Side 2 forced transition at x/c =  1.0000   64

   2   rms: 0.1740E-01   max: 0.1536E+00   D at    3  1
       a = 14.250      CL =  1.3923
      Cm =  0.0067     CD =  0.04136   =>   CDf =  0.00675    CDp =  0.03461

 Side 1  free  transition at x/c =  0.0893   42
 Side 2 forced transition at x/c =  1.0000   63

   3   rms: 0.8341E-03   max: -.9328E-02   D at    2  1
       a = 14.250      CL =  1.3920
      Cm =  0.0067     CD =  0.04133   =>   CDf =  0.00697    CDp =  0.03436

 Side 1  free  transition at x/c =  0.0893   42
 Side 2 forced transition at x/c =  1.0000   63

   4   rms: 0.5844E-03   max: -.7828E-02   D at    4  1
       a = 14.250      CL =  1.3920
      Cm =  0.0067     CD =  0.04133   =>   CDf =  0.00697    CDp =  0.03436

 Side 1  free  transition at x/c =  0.0893   42
 Side 2 forced transition at x/c =  1.0000   63

   5   rms: 0.1753E-05   max: 0.1004E-04   D at    8  1
       a = 14.250      CL =  1.3920
      Cm =  0.0067     CD =  0.04133   =>   CDf =  0.00697    CDp =  0.03436
 plradd ia,ip,cpol           44           0  6.40055572E-04

 Point added to stored polar  1
 Point written to save file  goe575_Re300k.base.pol                          
 Dump file unspecified or not available
 Calculating wake trajectory ...
 Calculating source influence matrix ...

 Solving BL system ...

 Side 1  free  transition at x/c =  0.0893   42
 Side 2 forced transition at x/c =  1.0000   63

   1   rms: 0.3659E-01   max: -.1463E+00   D at    5  2   RLX: 0.581
       a = 14.500      CL =  1.3948
      Cm =  0.0076     CD =  0.04234   =>   CDf =  0.00697    CDp =  0.03537

 Side 1  free  transition at x/c =  0.0886   42
 Side 2 forced transition at x/c =  1.0000   63

   2   rms: 0.1535E-01   max: -.6460E-01   D at    5  2
       a = 14.500      CL =  1.3960
      Cm =  0.0082     CD =  0.04307   =>   CDf =  0.00691    CDp =  0.03616

 Side 1  free  transition at x/c =  0.0881   42
 Side 2 forced transition at x/c =  1.0000   63

   3   rms: 0.9240E-03   max: 0.6391E-02   D at   80  1
       a = 14.500      CL =  1.3953
      Cm =  0.0082     CD =  0.04305   =>   CDf =  0.00686    CDp =  0.03618

 Side 1  free  transition at x/c =  0.0881   42
 Side 2 forced transition at x/c =  1.0000   63

   4   rms: 0.1541E-04   max: 0.1633E-03   D at   76  2
       a = 14.500      CL =  1.3953
      Cm =  0.0082     CD =  0.04304   =>   CDf =  0.00686    CDp =  0.03618
 plradd ia,ip,cpol           45           0  1.27428939E-04

 Point added to stored polar  1
 Point written to save file  goe575_Re300k.base.pol                          
 Dump file unspecified or not available
 Calculating wake trajectory ...
 Calculating source influence matrix ...

 Solving BL system ...

 Side 1  free  transition at x/c =  0.0881   42
 Side 2 forced transition at x/c =  1.0000   63

   1   rms: 0.3982E-01   max: 0.2409E+00   D at    3  1   RLX: 0.563
       a = 14.750      CL =  1.3973
      Cm =  0.0090     CD =  0.04416   =>   CDf =  0.00686    CDp =  0.03730

 Side 1  free  transition at x/c =  0.0869   42
 Side 2 forced transition at x/c =  1.0000   63

   2   rms: 0.1725E-01   max: 0.9522E-01   D at    3  1
       a = 14.750      CL =  1.3975
      Cm =  0.0097     CD =  0.04506   =>   CDf =  0.00681    CDp =  0.03825

 Side 1  free  transition at x/c =  0.0862   42
 Side 2 forced transition at x/c =  1.0000   63

   3   rms: 0.1131E-02   max: 0.6543E-02   D at   79  1
       a = 14.750      CL =  1.3967
      Cm =  0.0097     CD =  0.04502   =>   CDf =  0.00677    CDp =  0.03825

 Side 1  free  transition at x/c =  0.0862   42
 Side 2 forced transition at x/c =  1.0000   63

   4   rms: 0.4426E-04   max: 0.3166E-03   D at   76  2
       a = 14.750      CL =  1.3967
      Cm =  0.0097     CD =  0.04501   =>   CDf =  0.00677    CDp =  0.03824
 plradd ia,ip,cpol           46           0  1.27428939E-04

 Point added to stored polar  1
 Point written to save file  goe575_Re300k.base.pol                          
 Dump file unspecified or not available
 Calculating wake trajectory ...
 Calculating source influence matrix ...

 Solving BL system ...

 Side 1  free  transition at x/c =  0.0862   42
 Side 2 forced transition at x/c =  1.0000   63

   1   rms: 0.3652E-01   max: -.2624E+00   D at    3  2   RLX: 0.545
       a = 15.000      CL =  1.3983
      Cm =  0.0104     CD =  0.04617   =>   CDf =  0.00677    CDp =  0.03940

 Side 1  free  transition at x/c =  0.0854   42
 Side 2 forced transition at x/c =  1.0000   63

   2   rms: 0.1734E-01   max: -.1212E+00   D at    3  2
       a = 15.000      CL =  1.3985
      Cm =  0.0110     CD =  0.04716   =>   CDf =  0.00672    CDp =  0.04043

 Side 1  free  transition at x/c =  0.0842   42
 Side 2 forced transition at x/c =  1.0000   63

   3   rms: 0.2903E-02   max: -.3524E-01   D at   42  1
       a = 15.000      CL =  1.3972
      Cm =  0.0110     CD =  0.04714   =>   CDf =  0.00670    CDp =  0.04044

 Side 1  free  transition at x/c =  0.0844   42
 Side 2 forced transition at x/c =  1.0000   63

   4   rms: 0.2646E-03   max: -.1386E-02   D at   78  1
       a = 15.000      CL =  1.3974
      Cm =  0.0110     CD =  0.04711   =>   CDf =  0.00669    CDp =  0.04042

 Side 1  free  transition at x/c =  0.0844   42
 Side 2 forced transition at x/c =  1.0000   63

   5   rms: 0.1007E-04   max: -.8807E-04   D at   76  2
       a = 15.000      CL =  1.3974
      Cm =  0.0110     CD =  0.04711   =>   CDf =  0.00669    CDp =  0.04042
 plradd ia,ip,cpol           47           0  6.40055572E-04

 Point added to stored polar  1
 Point written to save file  goe575_Re300k.base.pol                          
 Dump file unspecified or not available
 Calculating wake trajectory ...
 Calculating source influence matrix ...

 Solving BL system ...

 Side 1  free  transition at x/c =  0.0844   42
 Side 2 forced transition at x/c =  1.0000   63

   1   rms: 0.3599E-01   max: -.2288E+00   D at    3  1   RLX: 0.529
       a = 15.250      CL =  1.3989
      Cm =  0.0117     CD =  0.04826   =>   CDf =  0.00669    CDp =  0.04157

 Side 1  free  transition at x/c =  0.0828   42
 Side 2 forced transition at x/c =  1.0000   63

   2   rms: 0.2045E-01   max: -.2245E+00   D at   42  1
       a = 15.250      CL =  1.3952
      Cm =  0.0120     CD =  0.04968   =>   CDf =  0.00670    CDp =  0.04298

 Side 1  free  transition at x/c =  0.0826   42
 Side 2 forced transition at x/c =  1.0000   63

   3   rms: 0.2331E-02   max: 0.2771E-01   D at   42  1
       a = 15.250      CL =  1.3955
      Cm =  0.0121     CD =  0.04950   =>   CDf =  0.00665    CDp =  0.04285

 Side 1  free  transition at x/c =  0.0824   42
 Side 2 forced transition at x/c =  1.0000   63

   4   rms: 0.1503E-03   max: 0.7821E-03   D at   76  1
       a = 15.250      CL =  1.3954
      Cm =  0.0121     CD =  0.04951   =>   CDf =  0.00665    CDp =  0.04286

 Side 1  free  transition at x/c =  0.0824   42
 Side 2 forced transition at x/c =  1.0000   63

   5   rms: 0.8590E-05   max: 0.6128E-04   D at   76  2
       a = 15.250      CL =  1.3954
      Cm =  0.0121     CD =  0.04951   =>   CDf =  0.00665    CDp =  0.04286
 plradd ia,ip,cpol           48           0  6.40055572E-04

 Point added to stored polar  1
 Point written to save file  goe575_Re300k.base.pol                          
 Dump file unspecified or not available
 Calculating wake trajectory ...
 Calculating source influence matrix ...

 Solving BL system ...

 Side 1  free  transition at x/c =  0.0824   42
 Side 2 forced transition at x/c =  1.0000   63

   1   rms: 0.3456E-01   max: -.9354E-01   D at    7  2   RLX: 0.512
       a = 15.500      CL =  1.3972
      Cm =  0.0126     CD =  0.05063   =>   CDf =  0.00666    CDp =  0.04398

 Side 1  free  transition at x/c =  0.0826   42
 Side 2 forced transition at x/c =  1.0000   63

   2   rms: 0.1706E-01   max: 0.4787E-01   D at   75  1
       a = 15.500      CL =  1.3987
      Cm =  0.0131     CD =  0.05160   =>   CDf =  0.00660    CDp =  0.04500

 Side 1  free  transition at x/c =  0.0823   42
 Side 2 forced transition at x/c =  1.0000   63

   3   rms: 0.2364E-02   max: -.2255E-01   D at   42  1
       a = 15.500      CL =  1.3974
      Cm =  0.0132     CD =  0.05158   =>   CDf =  0.00657    CDp =  0.04502

 Side 1  free  transition at x/c =  0.0825   42
 Side 2 forced transition at x/c =  1.0000   63

   4   rms: 0.1819E-03   max: -.1029E-02   D at   76  1
       a = 15.500      CL =  1.3975
      Cm =  0.0132     CD =  0.05156   =>   CDf =  0.00656    CDp =  0.04500

 Side 1  free  transition at x/c =  0.0825   42
 Side 2 forced transition at x/c =  1.0000   63

   5   rms: 0.1089E-04   max: -.7302E-04   D at   76  2
       a = 15.500      CL =  1.3975
      Cm =  0.0132     CD =  0.05156   =>   CDf =  0.00656    CDp =  0.04500
 plradd ia,ip,cpol           49           0  6.40055572E-04

 Point added to stored polar  1
 Point written to save file  goe575_Re300k.base.pol                          
 Dump file unspecified or not available
 Calculating wake trajectory ...
 Calculating source influence matrix ...

 Solving BL system ...

 Side 1  free  transition at x/c =  0.0825   42
 Side 2 forced transition at x/c =  1.0000   63

   1   rms: 0.3565E-01   max: -.1148E+00   D at    4  2   RLX: 0.497
       a = 15.750      CL =  1.3978
      Cm =  0.0136     CD =  0.05284   =>   CDf =  0.00656    CDp =  0.04628

 Side 1  free  transition at x/c =  0.0814   42
 Side 2 forced transition at x/c =  1.0000   63

   2   rms: 0.1878E-01   max: 0.9385E-01   D at    3  1
       a = 15.750      CL =  1.3946
      Cm =  0.0141     CD =  0.05438   =>   CDf =  0.00657    CDp =  0.04781

 Side 1  free  transition at x/c =  0.0804   42
 Side 2 forced transition at x/c =  1.0000   63

   3   rms: 0.1399E-02   max: 0.8340E-02   D at   77  2
       a = 15.750      CL =  1.3934
      Cm =  0.0142     CD =  0.05426   =>   CDf =  0.00656    CDp =  0.04770

 Side 1  free  transition at x/c =  0.0804   42
 Side 2 forced transition at x/c =  1.0000   63

   4   rms: 0.3367E-04   max: 0.2722E-03   D at   77  2
       a = 15.750      CL =  1.3934
      Cm =  0.0142     CD =  0.05425   =>   CDf =  0.00656    CDp =  0.04769
 plradd ia,ip,cpol           50           0  6.40055572E-04

 Point added to stored polar  1
 Point written to save file  goe575_Re300k.base.pol                          
 Dump file unspecified or not available
 Calculating wake trajectory ...
 Calculating source influence matrix ...

 Solving BL system ...

 Side 1  free  transition at x/c =  0.0804   42
 Side 2 forced transition at x/c =  1.0000   63

   1   rms: 0.3389E-01   max: 0.2013E+00   D at    5  1   RLX: 0.482
       a = 16.000      CL =  1.3951
      Cm =  0.0147     CD =  0.05535   =>   CDf =  0.00625    CDp =  0.04909

 Side 1  free  transition at x/c =  0.0802   43
 Side 2 forced transition at x/c =  1.0000   62

   2   rms: 0.2066E-01   max: 0.1594E+00   T at    2  1
       a = 16.000      CL =  1.3964
      Cm =  0.0152     CD =  0.05643   =>   CDf =  0.00653    CDp =  0.04990

 Side 1  free  transition at x/c =  0.0797   42
 Side 2 forced transition at x/c =  1.0000   62

   3   rms: 0.2828E-02   max: -.2538E-01   D at   42  1
       a = 16.000      CL =  1.3948
      Cm =  0.0152     CD =  0.05643   =>   CDf =  0.00651    CDp =  0.04992

 Side 1  free  transition at x/c =  0.0798   42
 Side 2 forced transition at x/c =  1.0000   62

   4   rms: 0.2669E-03   max: -.1440E-02   D at   75  1
       a = 16.000      CL =  1.3950
      Cm =  0.0152     CD =  0.05639   =>   CDf =  0.00650    CDp =  0.04989

 Side 1  free  transition at x/c =  0.0798   42
 Side 2 forced transition at x/c =  1.0000   62

   5   rms: 0.1715E-04   max: -.1172E-03   D at   76  2
       a = 16.000      CL =  1.3950
      Cm =  0.0152     CD =  0.05640   =>   CDf =  0.00650    CDp =  0.04990
 plradd ia,ip,cpol           51           0  6.40055572E-04

 Point added to stored polar  1
 Point written to save file  goe575_Re300k.base.pol                          
 Dump file unspecified or not available

.OPERva   c>  
 Polar accumulation disabled

.OPERv   c>  
 XFOIL   c>  
 XFOIL   c>  