  
       XFOIL         Version 6.99
  
 Calculated polar for: GOE 564 AIRFOIL                                 
  
 1 1 Reynolds number fixed          Mach number fixed         
  
 xtrf =   1.000 (top)        1.000 (bottom)  
 Mach =   0.000     Re =     0.200 e 6     Ncrit =   9.000
  
   alpha    CL        CD       CDp       CM     Top_Xtr  Bot_Xtr
  ------ -------- --------- --------- -------- -------- --------
-4.000  -0.3276   0.01960   0.01215  -0.0360   0.9919   0.0661
-3.500  -0.2567   0.01807   0.01038  -0.0393   0.9856   0.0713
-3.000  -0.1896   0.01680   0.00892  -0.0417   0.9774   0.0798
-2.500  -0.1222   0.01590   0.00806  -0.0442   0.9682   0.0981
-2.000  -0.0537   0.01528   0.00753  -0.0470   0.9585   0.1426
-1.500   0.0235   0.01490   0.00721  -0.0516   0.9504   0.1798
-1.000   0.0906   0.01422   0.00680  -0.0541   0.9382   0.2274
0.500   0.3925   0.01041   0.00512  -0.0797   0.9085   1.0000
1.000   0.4644   0.00974   0.00438  -0.0817   0.8842   1.0000
1.500   0.5282   0.00933   0.00391  -0.0822   0.8561   1.0000
2.000   0.5847   0.00919   0.00372  -0.0814   0.8243   1.0000
2.500   0.6359   0.00919   0.00367  -0.0796   0.7849   1.0000
3.000   0.6830   0.00928   0.00364  -0.0769   0.7313   1.0000
3.500   0.7277   0.00959   0.00368  -0.0737   0.6586   1.0000
4.000   0.7681   0.01025   0.00399  -0.0700   0.5775   1.0000
4.500   0.7990   0.01124   0.00443  -0.0647   0.4413   1.0000
5.000   0.8281   0.01271   0.00521  -0.0596   0.3209   1.0000
5.500   0.8664   0.01385   0.00608  -0.0564   0.2697   1.0000
6.000   0.9080   0.01483   0.00699  -0.0539   0.2369   1.0000
6.500   0.9496   0.01580   0.00796  -0.0514   0.2055   1.0000
7.000   0.9904   0.01667   0.00881  -0.0489   0.1683   1.0000
7.500   1.0322   0.01748   0.00961  -0.0465   0.1209   1.0000
8.000   1.0597   0.01985   0.01165  -0.0420   0.0614   1.0000
9.000   1.1141   0.02457   0.01643  -0.0328   0.0358   1.0000
9.500   1.1416   0.02806   0.02014  -0.0287   0.0313   1.0000
10.000   1.1746   0.03154   0.02392  -0.0255   0.0282   1.0000
10.250   1.1889   0.03336   0.02581  -0.0239   0.0267   1.0000
10.500   1.2057   0.03734   0.02998  -0.0233   0.0252   1.0000
10.750   1.2132   0.04067   0.03366  -0.0211   0.0247   1.0000
11.000   1.2149   0.04267   0.03596  -0.0177   0.0244   1.0000
11.250   1.2134   0.04514   0.03873  -0.0143   0.0243   1.0000
11.500   1.2078   0.04769   0.04157  -0.0107   0.0242   1.0000
11.750   1.1984   0.05064   0.04480  -0.0073   0.0242   1.0000
12.000   1.1854   0.05382   0.04826  -0.0042   0.0242   1.0000
12.250   1.1706   0.05734   0.05203  -0.0019   0.0242   1.0000
12.500   1.1536   0.06152   0.05644  -0.0004   0.0244   1.0000
12.750   1.1346   0.06583   0.06098   0.0003   0.0245   1.0000
