  
       XFOIL         Version 6.99
  
 Calculated polar for: GOE 506 AIRFOIL                                 
  
 1 1 Reynolds number fixed          Mach number fixed         
  
 xtrf =   1.000 (top)        1.000 (bottom)  
 Mach =   0.000     Re =     0.300 e 6     Ncrit =   9.000
  
   alpha    CL        CD       CDp       CM     Top_Xtr  Bot_Xtr
  ------ -------- --------- --------- -------- -------- --------
  -4.000   0.0987   0.01346   0.00674  -0.1105   0.8263   0.2183
  -3.500   0.1431   0.01331   0.00661  -0.1080   0.8172   0.2554
  -3.000   0.2065   0.01289   0.00610  -0.1093   0.8101   0.2831
  -2.500   0.2494   0.01259   0.00581  -0.1065   0.7986   0.3016
  -2.000   0.2993   0.01210   0.00533  -0.1049   0.7856   0.3217
  -1.500   0.3477   0.01161   0.00490  -0.1031   0.7702   0.3550
  -1.000   0.3925   0.01111   0.00453  -0.1005   0.7524   0.4052
  -0.500   0.4331   0.01052   0.00425  -0.0972   0.7334   0.5061
   0.000   0.4553   0.00984   0.00420  -0.0898   0.7100   0.6892
   0.500   0.5652   0.00973   0.00451  -0.1005   0.6598   0.9163
   1.500   0.6879   0.01238   0.00569  -0.1042   0.4465   1.0000
   2.000   0.6922   0.01283   0.00592  -0.0944   0.4190   1.0000
   2.500   0.7092   0.01334   0.00622  -0.0872   0.4000   1.0000
   3.000   0.7358   0.01383   0.00657  -0.0820   0.3868   1.0000
   3.500   0.7664   0.01435   0.00696  -0.0776   0.3756   1.0000
   4.000   0.8001   0.01491   0.00738  -0.0739   0.3670   1.0000
   4.500   0.8382   0.01539   0.00783  -0.0710   0.3600   1.0000
   5.000   0.8770   0.01593   0.00831  -0.0684   0.3534   1.0000
   5.500   0.9186   0.01652   0.00882  -0.0663   0.3476   1.0000
   6.000   0.9591   0.01702   0.00937  -0.0642   0.3422   1.0000
   6.500   0.9996   0.01761   0.00994  -0.0621   0.3361   1.0000
   7.000   1.0426   0.01824   0.01056  -0.0605   0.3304   1.0000
   7.500   1.0822   0.01883   0.01125  -0.0584   0.3252   1.0000
   8.000   1.1215   0.01949   0.01195  -0.0564   0.3194   1.0000
   8.500   1.1632   0.02022   0.01271  -0.0548   0.3134   1.0000
   9.000   1.1922   0.02102   0.01365  -0.0515   0.3042   1.0000
   9.500   1.2224   0.02198   0.01468  -0.0484   0.2939   1.0000
  10.000   1.2485   0.02311   0.01583  -0.0451   0.2816   1.0000
  10.000   1.2485   0.02311   0.01583  -0.0451   0.2816   1.0000
  10.250   1.2625   0.02363   0.01649  -0.0436   0.2741   1.0000
  10.500   1.2743   0.02433   0.01718  -0.0420   0.2673   1.0000
  10.750   1.2892   0.02491   0.01786  -0.0407   0.2581   1.0000
  11.000   1.3018   0.02564   0.01862  -0.0393   0.2484   1.0000
  11.250   1.3141   0.02644   0.01942  -0.0379   0.2360   1.0000
  11.750   1.3247   0.02900   0.02181  -0.0340   0.1953   1.0000
  12.000   1.3285   0.03050   0.02323  -0.0320   0.1845   1.0000
  12.250   1.3299   0.03223   0.02490  -0.0299   0.1749   1.0000
  12.500   1.3350   0.03375   0.02644  -0.0283   0.1679   1.0000
  12.750   1.3357   0.03565   0.02833  -0.0264   0.1597   1.0000
  13.000   1.3399   0.03734   0.03006  -0.0249   0.1511   1.0000
  13.250   1.3446   0.03907   0.03182  -0.0236   0.1397   1.0000
  13.500   1.3465   0.04111   0.03380  -0.0223   0.1133   1.0000
  13.750   1.3188   0.04584   0.03819  -0.0196   0.0698   1.0000
  14.250   1.2830   0.05441   0.04669  -0.0165   0.0301   1.0000
  14.500   1.2737   0.05817   0.05056  -0.0159   0.0269   1.0000
  14.750   1.2680   0.06171   0.05422  -0.0156   0.0258   1.0000
  15.000   1.2580   0.06596   0.05862  -0.0156   0.0243   1.0000
  15.250   1.2522   0.06981   0.06261  -0.0158   0.0238   1.0000
  15.500   1.2439   0.07410   0.06706  -0.0162   0.0232   1.0000
  15.750   1.2326   0.07891   0.07201  -0.0169   0.0223   1.0000
  16.000   1.2194   0.08407   0.07732  -0.0179   0.0218   1.0000
