  
       XFOIL         Version 6.99
  
 Calculated polar for: GOE 533 AIRFOIL                                 
  
 1 1 Reynolds number fixed          Mach number fixed         
  
 xtrf =   1.000 (top)        1.000 (bottom)  
 Mach =   0.000     Re =     0.400 e 6     Ncrit =   9.000
  
   alpha    CL        CD       CDp       CM     Top_Xtr  Bot_Xtr
  ------ -------- --------- --------- -------- -------- --------
-4.000   0.1115   0.01469   0.00724  -0.1079   0.6540   0.0471
-3.500   0.1657   0.01375   0.00615  -0.1072   0.6418   0.0480
-3.000   0.2202   0.01309   0.00540  -0.1067   0.6299   0.0493
-2.500   0.2739   0.01227   0.00451  -0.1062   0.6188   0.0516
-2.000   0.3287   0.01176   0.00398  -0.1058   0.6069   0.0544
-1.500   0.3841   0.01141   0.00357  -0.1055   0.5950   0.0586
-1.000   0.4396   0.01108   0.00325  -0.1052   0.5836   0.0791
-0.500   0.4911   0.00972   0.00318  -0.1051   0.5709   0.4954
0.000   0.5450   0.00958   0.00326  -0.1044   0.5574   0.5852
0.500   0.5988   0.00960   0.00336  -0.1035   0.5421   0.6509
1.000   0.6513   0.00963   0.00346  -0.1024   0.5259   0.7157
1.500   0.7039   0.00963   0.00350  -0.1014   0.5098   0.7582
2.000   0.7556   0.00961   0.00356  -0.1003   0.4936   0.8021
2.500   0.8172   0.00941   0.00362  -0.1011   0.4771   1.0000
3.000   0.8718   0.00972   0.00377  -0.1009   0.4604   1.0000
3.500   0.9254   0.01006   0.00399  -0.1005   0.4445   1.0000
4.000   0.9782   0.01045   0.00426  -0.1000   0.4299   1.0000
5.000   1.0827   0.01124   0.00493  -0.0988   0.4033   1.0000
5.500   1.1344   0.01166   0.00533  -0.0982   0.3916   1.0000
6.000   1.1848   0.01213   0.00576  -0.0973   0.3801   1.0000
7.000   1.2834   0.01303   0.00668  -0.0953   0.3546   1.0000
7.500   1.3309   0.01352   0.00721  -0.0941   0.3413   1.0000
8.000   1.3768   0.01407   0.00778  -0.0926   0.3287   1.0000
8.500   1.4204   0.01468   0.00841  -0.0908   0.3145   1.0000
9.000   1.4615   0.01532   0.00908  -0.0886   0.2983   1.0000
9.500   1.4993   0.01602   0.00984  -0.0859   0.2796   1.0000
10.000   1.5284   0.01690   0.01072  -0.0818   0.2587   1.0000
10.250   1.5413   0.01743   0.01125  -0.0796   0.2481   1.0000
10.500   1.5523   0.01806   0.01186  -0.0773   0.2372   1.0000
10.750   1.5611   0.01882   0.01258  -0.0747   0.2252   1.0000
11.000   1.5702   0.01961   0.01337  -0.0724   0.2142   1.0000
11.250   1.5780   0.02052   0.01427  -0.0700   0.2044   1.0000
11.500   1.5835   0.02161   0.01534  -0.0676   0.1958   1.0000
11.750   1.5897   0.02273   0.01647  -0.0654   0.1879   1.0000
12.000   1.5943   0.02403   0.01778  -0.0633   0.1812   1.0000
12.250   1.6010   0.02528   0.01909  -0.0616   0.1749   1.0000
12.500   1.6019   0.02703   0.02084  -0.0597   0.1687   1.0000
12.750   1.6099   0.02838   0.02227  -0.0585   0.1621   1.0000
13.000   1.6080   0.03058   0.02447  -0.0569   0.1541   1.0000
13.250   1.6144   0.03224   0.02620  -0.0560   0.1448   1.0000
13.500   1.6145   0.03454   0.02852  -0.0550   0.1327   1.0000
13.750   1.6083   0.03756   0.03148  -0.0542   0.1124   1.0000
14.250   1.5798   0.04565   0.03944  -0.0530   0.0861   1.0000
14.750   1.5623   0.05314   0.04705  -0.0527   0.0784   1.0000
15.000   1.5545   0.05696   0.05095  -0.0528   0.0760   1.0000
15.250   1.5438   0.06129   0.05534  -0.0531   0.0735   1.0000
15.500   1.5323   0.06587   0.05998  -0.0537   0.0713   1.0000
15.750   1.5298   0.06939   0.06362  -0.0542   0.0696   1.0000
16.000   1.5265   0.07311   0.06745  -0.0549   0.0678   1.0000
