  
       XFOIL         Version 6.99
  
 Calculated polar for: GOE 517 AIRFOIL                                 
  
 1 1 Reynolds number fixed          Mach number fixed         
  
 xtrf =   1.000 (top)        1.000 (bottom)  
 Mach =   0.000     Re =     0.400 e 6     Ncrit =   9.000
  
   alpha    CL        CD       CDp       CM     Top_Xtr  Bot_Xtr
  ------ -------- --------- --------- -------- -------- --------
  -4.000   0.0579   0.01370   0.01032  -0.0925   0.8883   0.0354
  -3.500   0.0993   0.00619   0.00205  -0.0924   0.8747   0.0234
  -3.000   0.1450   0.00247  -0.00293  -0.0913   0.8619   0.0218
  -2.500   0.1957   0.00153  -0.00448  -0.0900   0.8464   0.0259
  -2.000   0.2465   0.00119  -0.00507  -0.0886   0.8278   0.0358
  -1.500   0.2976   0.00107  -0.00518  -0.0874   0.8070   0.0853
  -1.000   0.3491   0.00105  -0.00531  -0.0865   0.7841   0.1112
  -0.500   0.3999   0.00101  -0.00544  -0.0855   0.7584   0.1327
   0.000   0.4506   0.00095  -0.00555  -0.0844   0.7309   0.1567
   0.500   0.5000   0.00086  -0.00543  -0.0833   0.6977   0.2614
   1.000   0.5817   0.00056  -0.00431  -0.0894   0.6600   1.0000
   1.500   0.6284   0.00060  -0.00454  -0.0876   0.6236   1.0000
   2.000   0.6754   0.00065  -0.00469  -0.0859   0.5935   1.0000
   2.500   0.7228   0.00071  -0.00478  -0.0844   0.5679   1.0000
   3.000   0.7704   0.00077  -0.00481  -0.0829   0.5451   1.0000
   3.500   0.8180   0.00084  -0.00480  -0.0815   0.5217   1.0000
   4.000   0.8655   0.00092  -0.00475  -0.0801   0.4964   1.0000
   4.500   0.9124   0.00099  -0.00466  -0.0787   0.4646   1.0000
   5.000   0.9574   0.00109  -0.00463  -0.0769   0.4176   1.0000
   5.500   0.9994   0.00128  -0.00459  -0.0747   0.3670   1.0000
   6.000   1.0394   0.00157  -0.00450  -0.0724   0.3151   1.0000
   6.500   1.0805   0.00187  -0.00427  -0.0703   0.2690   1.0000
   7.000   1.0920   0.00361  -0.00381  -0.0642   0.0429   1.0000
   7.500   1.1181   0.00507  -0.00227  -0.0595   0.0175   1.0000
   8.500   1.1480   0.00842   0.00151  -0.0473   0.0126   1.0000
   9.000   1.1481   0.01078   0.00402  -0.0402   0.0114   1.0000
   9.500   1.1490   0.01436   0.00779  -0.0341   0.0109   1.0000
  10.000   1.1648   0.01829   0.01196  -0.0299   0.0105   1.0000
  10.000   1.1648   0.01829   0.01196  -0.0299   0.0105   1.0000
  10.250   1.1782   0.02094   0.01474  -0.0283   0.0105   1.0000
  10.500   1.1921   0.02374   0.01771  -0.0268   0.0103   1.0000
  10.750   1.2025   0.02648   0.02064  -0.0252   0.0101   1.0000
  11.000   1.2082   0.02927   0.02363  -0.0234   0.0097   1.0000
  11.250   1.2330   0.03524   0.02992  -0.0225   0.0118   1.0000
