
 ===================================================
  XFOIL Version 6.99
  Copyright (C) 2000   Mark Drela, Harold Youngren

  This software comes with ABSOLUTELY NO WARRANTY,
    subject to the GNU General Public License.

  Caveat computor
 ===================================================

 File  xfoil.def  not found

   QUIT    Exit program

  .OPER    Direct operating point(s)
  .MDES    Complex mapping design routine
  .QDES    Surface speed design routine
  .GDES    Geometry design routine

   SAVE f  Write airfoil to labeled coordinate file
   PSAV f  Write airfoil to plain coordinate file
   ISAV f  Write airfoil to ISES coordinate file
   MSAV f  Write airfoil to MSES coordinate file
   REVE    Reverse written-airfoil node ordering

   LOAD f  Read buffer airfoil from coordinate file
   NACA i  Set NACA 4,5-digit airfoil and buffer airfoil
   INTE    Set buffer airfoil by interpolating two airfoils
   NORM    Buffer airfoil normalization toggle
   XYCM rr Change CM reference location, currently  0.25000 0.00000

   BEND    Display structural properties of current airfoil

   PCOP    Set current-airfoil panel nodes directly from buffer airfoil points
   PANE    Set current-airfoil panel nodes ( 160 ) based on curvature
  .PPAR    Show/change paneling

  .PLOP    Plotting options

   WDEF f  Write  current-settings file
   RDEF f  Reread current-settings file
   NAME s  Specify new airfoil name
   NINC    Increment name version number

   Z       Zoom    | (available in all menus)
   U       Unzoom  | 

 XFOIL   c>  
 Labeled airfoil file.  Name:  GOE 504 AIRFOIL                                 

 Number of input coordinate points:  33
 Counterclockwise ordering
 Max thickness =     0.180033  at x =   0.303
 Max camber    =     0.052731  at x =   0.402

  LE  x,y  =  -0.00022   0.00223  |   Chord =   1.00022
  TE  x,y  =   1.00000   0.00000  |

 Current airfoil nodes set from buffer airfoil nodes (  33 )

 WARNING: Poor input coordinate distribution
          Excessive panel angle   68.9  at i =  17
          Repaneling with PANE and/or PPAR suggested
           (doing GDES,CADD before repaneling _may_
            improve excessively coarse LE spacing

 XFOIL   c>  
 XFOIL   c>  
 Sharp trailing edge

 Paneling parameters used...
   Number of panel nodes       160
   Panel bunching parameter    1.000
   TE/LE panel density ratio   0.150
   Refined-area/LE panel density ratio    0.200
   Top    side refined area x/c limits  1.000 1.000
   Bottom side refined area x/c limits  1.000 1.000

 XFOIL   c>  
.OPERi   c>  
 Xtr/c     =  1.0000    top    side
 Xtr/c     =  1.0000    bottom side
 Ncrit     =    9.00   ( 0.070 % turb. level )
 Vacc      =  0.0100

 Klag  =  5.6000     Uxwt  =    1.00
 A     =  6.7000     B     =  0.7500       KCt = 0.01485
 CtiniK=  1.8000     CtiniX=  3.3000

..VPAR   c>  
..VPAR   c>  
.OPERi   c>  
 M  =    0.0000
 Re =    500000

.OPERv   c>  
.OPERv   c>  
.OPERv   c>  
 Polar  1 newly created for accumulation
 Airfoil archived with polar: GOE 504 AIRFOIL                                 

Enter  polar save filename  OR  <return> for no file   s>  
 New polar save file available

Enter  polar dump filename  OR  <return> for no file   s>  
 Polar dump file will NOT be written

 Polar accumulation enabled

.OPERva   c>   Calculating unit vorticity distributions ...
 Calculating wake trajectory ...
 Calculating source influence matrix ...

 Solving BL system ...

 Initializing BL ...
    side            1  ...
 MRCHUE: Inverse mode at  45     Hk =   4.383
 MRCHUE: Inverse mode at  46     Hk =   5.154
 MRCHUE: Inverse mode at  47     Hk =   5.907
 MRCHUE: Inverse mode at  48     Hk =   6.649
 MRCHUE: Inverse mode at  49     Hk =   7.382
 MRCHUE: Inverse mode at  50     Hk =   8.109
 MRCHUE: Inverse mode at  51     Hk =   7.960
 MRCHUE: Inverse mode at  52     Hk =   4.780
 MRCHUE: Inverse mode at  53     Hk =   3.021
 MRCHUE: Inverse mode at  76     Hk =   2.500
    side            2  ...
 MRCHUE: Inverse mode at  21     Hk =   3.859
 MRCHUE: Inverse mode at  22     Hk =   4.881
 MRCHUE: Inverse mode at  23     Hk =   5.935
 MRCHUE: Inverse mode at  24     Hk =   7.054
 MRCHUE: Inverse mode at  25     Hk =   8.240
 MRCHUE: Inverse mode at  26     Hk =   9.480
 MRCHUE: Inverse mode at  27     Hk =   7.605
 MRCHUE: Inverse mode at  28     Hk =   2.671
 MRCHUE: Inverse mode at  85     Hk =   2.500
 MRCHUE: Inverse mode at  86     Hk =   2.500

 Side 1  free  transition at x/c =  0.6262   51
 Side 2  free  transition at x/c =  0.0546   27

   1   rms: 0.2091E+00   max: -.1216E+01   D at   28  2   RLX: 0.411
       a = -4.000      CL =  0.1453
      Cm = -0.1129     CD =  0.01003   =>   CDf =  0.00777    CDp =  0.00227

 MRCHDU: Convergence failed at  53  side 1    Res =  0.2670E+01
 Side 1  free  transition at x/c =  0.6421   52
 Side 2  free  transition at x/c =  0.0541   27

   2   rms: 0.1347E+00   max: -.7065E+00   D at   27  2   RLX: 0.708
       a = -4.000      CL =  0.1679
      Cm = -0.1166     CD =  0.01073   =>   CDf =  0.00763    CDp =  0.00310

 Side 1  free  transition at x/c =  0.6637   54
 Side 2  free  transition at x/c =  0.0553   27

   3   rms: 0.5727E-01   max: -.5385E+00   D at   27  2   RLX: 0.928
       a = -4.000      CL =  0.1451
      Cm = -0.1104     CD =  0.01123   =>   CDf =  0.00751    CDp =  0.00372

 Side 1  free  transition at x/c =  0.6713   54
 Side 2  free  transition at x/c =  0.0522   27

   4   rms: 0.7954E-02   max: -.7827E-01   D at   27  2
       a = -4.000      CL =  0.1461
      Cm = -0.1104     CD =  0.01153   =>   CDf =  0.00741    CDp =  0.00412

 Side 1  free  transition at x/c =  0.6707   54
 Side 2  free  transition at x/c =  0.0514   27

   5   rms: 0.3852E-03   max: 0.3744E-02   C at   27  2
       a = -4.000      CL =  0.1460
      Cm = -0.1104     CD =  0.01153   =>   CDf =  0.00744    CDp =  0.00410

 Side 1  free  transition at x/c =  0.6707   54
 Side 2  free  transition at x/c =  0.0514   27

   6   rms: 0.2836E-05   max: 0.3145E-04   C at   27  2
       a = -4.000      CL =  0.1460
      Cm = -0.1104     CD =  0.01153   =>   CDf =  0.00744    CDp =  0.00410
 plradd ia,ip,cpol            1           0  9.56364814E-03

 Point added to stored polar  1
 Point written to save file  goe504_Re500k.base.pol                          
 Dump file unspecified or not available
 Calculating wake trajectory ...
 Calculating source influence matrix ...

 Solving BL system ...

 Side 1  free  transition at x/c =  0.6707   54
 Side 2  free  transition at x/c =  0.0514   27

   1   rms: 0.8563E-01   max: -.7308E+00   C at   27  2   RLX: 0.684
       a = -3.500      CL =  0.1779
      Cm = -0.1092     CD =  0.01127   =>   CDf =  0.00744    CDp =  0.00382

 Side 1  free  transition at x/c =  0.6610   54
 Side 2  free  transition at x/c =  0.0597   28

   2   rms: 0.7928E-01   max: -.1551E+01   C at   28  2   RLX: 0.322
       a = -3.500      CL =  0.1830
      Cm = -0.1088     CD =  0.01133   =>   CDf =  0.00756    CDp =  0.00376

 Side 1  free  transition at x/c =  0.6602   54
 Side 2  free  transition at x/c =  0.0733   28

   3   rms: 0.1208E+00   max: -.2713E+01   C at   28  2   RLX: 0.184
       a = -3.500      CL =  0.1845
      Cm = -0.1087     CD =  0.01120   =>   CDf =  0.00742    CDp =  0.00378

 Side 1  free  transition at x/c =  0.6599   54
 Side 2  free  transition at x/c =  0.0803   29

   4   rms: 0.6588E-01   max: -.1278E+01   C at   29  2   RLX: 0.391
       a = -3.500      CL =  0.1867
      Cm = -0.1085     CD =  0.01108   =>   CDf =  0.00739    CDp =  0.00369

 Side 1  free  transition at x/c =  0.6593   54
 Side 2  free  transition at x/c =  0.0890   29

   5   rms: 0.2756E-01   max: -.6135E+00   C at   29  2   RLX: 0.815
       a = -3.500      CL =  0.1908
      Cm = -0.1085     CD =  0.01105   =>   CDf =  0.00735    CDp =  0.00370

 Side 1  free  transition at x/c =  0.6584   54
 Side 2  free  transition at x/c =  0.0999   30

   6   rms: 0.2617E-02   max: 0.4294E-01   D at   29  2
       a = -3.500      CL =  0.1915
      Cm = -0.1085     CD =  0.01102   =>   CDf =  0.00731    CDp =  0.00372

 Side 1  free  transition at x/c =  0.6582   54
 Side 2  free  transition at x/c =  0.0992   30

   7   rms: 0.4621E-03   max: -.9961E-02   C at   30  2
       a = -3.500      CL =  0.1916
      Cm = -0.1085     CD =  0.01103   =>   CDf =  0.00731    CDp =  0.00372

 Side 1  free  transition at x/c =  0.6582   54
 Side 2  free  transition at x/c =  0.0994   30

   8   rms: 0.2778E-05   max: -.5421E-04   C at   30  2
       a = -3.500      CL =  0.1916
      Cm = -0.1085     CD =  0.01103   =>   CDf =  0.00731    CDp =  0.00372
 plradd ia,ip,cpol            2           0  9.56364814E-03

 Point added to stored polar  1
 Point written to save file  goe504_Re500k.base.pol                          
 Dump file unspecified or not available
 Calculating wake trajectory ...
 Calculating source influence matrix ...

 Solving BL system ...

 Side 1  free  transition at x/c =  0.6582   54
 Side 2  free  transition at x/c =  0.0994   30

   1   rms: 0.1847E+00   max: -.3801E+01   C at   30  2   RLX: 0.132
       a = -3.000      CL =  0.1972
      Cm = -0.1082     CD =  0.01094   =>   CDf =  0.00731    CDp =  0.00362

 Side 1  free  transition at x/c =  0.6564   54
 Side 2  free  transition at x/c =  0.1080   31

   2   rms: 0.1607E+00   max: -.2729E+01   C at   31  2   RLX: 0.183
       a = -3.000      CL =  0.2039
      Cm = -0.1077     CD =  0.01081   =>   CDf =  0.00728    CDp =  0.00353

 Side 1  free  transition at x/c =  0.6542   54
 Side 2  free  transition at x/c =  0.1263   32

   3   rms: 0.3504E+00   max: -.8053E+01   C at   32  2   RLX: 0.062
       a = -3.000      CL =  0.2054
      Cm = -0.1076     CD =  0.01073   =>   CDf =  0.00720    CDp =  0.00353

 Side 1  free  transition at x/c =  0.6536   54
 Side 2  free  transition at x/c =  0.1364   32

   4   rms: 0.5920E+00   max: -.1339E+02   C at   32  2   RLX: 0.037
       a = -3.000      CL =  0.2062
      Cm = -0.1074     CD =  0.01069   =>   CDf =  0.00716    CDp =  0.00353

 Side 1  free  transition at x/c =  0.6533   54
 Side 2  free  transition at x/c =  0.1618   34

   5   rms: 0.1085E+01   max: -.2471E+02   C at   34  2   RLX: 0.020
       a = -3.000      CL =  0.2057
      Cm = -0.1074     CD =  0.01055   =>   CDf =  0.00705    CDp =  0.00350

 Side 1  free  transition at x/c =  0.6531   54
 Side 2  free  transition at x/c =  0.1674   35

   6   rms: 0.4702E+00   max: -.1060E+02   C at   35  2   RLX: 0.047
       a = -3.000      CL =  0.2065
      Cm = -0.1072     CD =  0.01050   =>   CDf =  0.00703    CDp =  0.00348

 Side 1  free  transition at x/c =  0.6527   54
 Side 2  free  transition at x/c =  0.1666   35

   7   rms: 0.3034E+00   max: -.6706E+01   C at   35  2   RLX: 0.075
       a = -3.000      CL =  0.2084
      Cm = -0.1070     CD =  0.01050   =>   CDf =  0.00704    CDp =  0.00346

 Side 1  free  transition at x/c =  0.6522   54
 Side 2  free  transition at x/c =  0.1771   35

   8   rms: 0.2812E+00   max: -.6375E+01   C at   35  2   RLX: 0.078
       a = -3.000      CL =  0.2103
      Cm = -0.1069     CD =  0.01048   =>   CDf =  0.00699    CDp =  0.00348

 Side 1  free  transition at x/c =  0.6516   54
 Side 2  free  transition at x/c =  0.1888   36

   9   rms: 0.1548E+00   max: -.3425E+01   C at   36  2   RLX: 0.146
       a = -3.000      CL =  0.2132
      Cm = -0.1068     CD =  0.01042   =>   CDf =  0.00695    CDp =  0.00348

 Side 1  free  transition at x/c =  0.6507   54
 Side 2  free  transition at x/c =  0.1985   37

  10   rms: 0.9349E-01   max: -.1783E+01   C at   37  2   RLX: 0.280
       a = -3.000      CL =  0.2187
      Cm = -0.1065     CD =  0.01037   =>   CDf =  0.00692    CDp =  0.00345

 Side 1  free  transition at x/c =  0.6492   54
 Side 2  free  transition at x/c =  0.2089   37

  11   rms: 0.3367E-01   max: -.4535E+00   C at   37  2
       a = -3.000      CL =  0.2343
      Cm = -0.1063     CD =  0.01038   =>   CDf =  0.00691    CDp =  0.00347

 Side 1  free  transition at x/c =  0.6455   54
 Side 2  free  transition at x/c =  0.2486   40

  12   rms: 0.2170E-01   max: 0.3458E+00   C at   40  2
       a = -3.000      CL =  0.2337
      Cm = -0.1062     CD =  0.01033   =>   CDf =  0.00682    CDp =  0.00352

 Side 1  free  transition at x/c =  0.6456   54
 Side 2  free  transition at x/c =  0.2350   39

  13   rms: 0.2879E-02   max: -.4446E-01   D at   41  2
       a = -3.000      CL =  0.2340
      Cm = -0.1063     CD =  0.01035   =>   CDf =  0.00686    CDp =  0.00349

 Side 1  free  transition at x/c =  0.6456   54
 Side 2  free  transition at x/c =  0.2335   39

  14   rms: 0.7366E-04   max: -.1267E-02   C at   39  2
       a = -3.000      CL =  0.2340
      Cm = -0.1063     CD =  0.01036   =>   CDf =  0.00687    CDp =  0.00349
 plradd ia,ip,cpol            3           0  1.22412881E-02

 Point added to stored polar  1
 Point written to save file  goe504_Re500k.base.pol                          
 Dump file unspecified or not available
 Calculating wake trajectory ...
 Calculating source influence matrix ...

 Solving BL system ...

 Side 1  free  transition at x/c =  0.6456   54
 Side 2  free  transition at x/c =  0.2335   39

   1   rms: 0.9984E-01   max: -.1024E+01   C at   39  2   RLX: 0.488
       a = -2.500      CL =  0.2590
      Cm = -0.1059     CD =  0.01034   =>   CDf =  0.00689    CDp =  0.00345

 Side 1  free  transition at x/c =  0.6403   54
 Side 2  free  transition at x/c =  0.2528   39

   2   rms: 0.4381E-01   max: -.2607E+00   T at    2  1
       a = -2.500      CL =  0.2821
      Cm = -0.1047     CD =  0.01025   =>   CDf =  0.00685    CDp =  0.00341

 Side 1  free  transition at x/c =  0.6311   54
 Side 2  free  transition at x/c =  0.2687   40

   3   rms: 0.6722E-02   max: -.6845E-01   D at   54  1
       a = -2.500      CL =  0.2823
      Cm = -0.1048     CD =  0.01027   =>   CDf =  0.00687    CDp =  0.00340

 Side 1  free  transition at x/c =  0.6327   54
 Side 2  free  transition at x/c =  0.2682   40

   4   rms: 0.3856E-03   max: -.6075E-02   D at   55  1
       a = -2.500      CL =  0.2825
      Cm = -0.1049     CD =  0.01027   =>   CDf =  0.00684    CDp =  0.00343

 Side 1  free  transition at x/c =  0.6326   54
 Side 2  free  transition at x/c =  0.2683   40

   5   rms: 0.2055E-05   max: -.2406E-04   D at   55  1
       a = -2.500      CL =  0.2825
      Cm = -0.1049     CD =  0.01027   =>   CDf =  0.00684    CDp =  0.00343
 plradd ia,ip,cpol            4           0  1.22412881E-02

 Point added to stored polar  1
 Point written to save file  goe504_Re500k.base.pol                          
 Dump file unspecified or not available
 Calculating wake trajectory ...
 Calculating source influence matrix ...

 Solving BL system ...

 Side 1  free  transition at x/c =  0.6326   54
 Side 2  free  transition at x/c =  0.2683   40

   1   rms: 0.8465E-01   max: 0.4279E+00   D at   40  2
       a = -2.000      CL =  0.3323
      Cm = -0.1037     CD =  0.01028   =>   CDf =  0.00686    CDp =  0.00341

 Side 1  free  transition at x/c =  0.6216   54
 Side 2  free  transition at x/c =  0.2921   40

   2   rms: 0.1154E-01   max: -.1240E+00   D at   54  1
       a = -2.000      CL =  0.3315
      Cm = -0.1035     CD =  0.01025   =>   CDf =  0.00689    CDp =  0.00336

 Side 1  free  transition at x/c =  0.6200   54
 Side 2  free  transition at x/c =  0.2938   41

   3   rms: 0.2696E-02   max: -.3862E-01   D at   40  2
       a = -2.000      CL =  0.3317
      Cm = -0.1036     CD =  0.01026   =>   CDf =  0.00689    CDp =  0.00337

 Side 1  free  transition at x/c =  0.6200   54
 Side 2  free  transition at x/c =  0.2940   41

   4   rms: 0.1119E-03   max: -.1455E-02   D at   42  2
       a = -2.000      CL =  0.3318
      Cm = -0.1036     CD =  0.01026   =>   CDf =  0.00688    CDp =  0.00338

 Side 1  free  transition at x/c =  0.6200   54
 Side 2  free  transition at x/c =  0.2940   41

   5   rms: 0.7299E-06   max: 0.4490E-05   D at   43  2
       a = -2.000      CL =  0.3318
      Cm = -0.1036     CD =  0.01026   =>   CDf =  0.00688    CDp =  0.00338
 plradd ia,ip,cpol            5           0  0.25495833    

 Point added to stored polar  1
 Point written to save file  goe504_Re500k.base.pol                          
 Dump file unspecified or not available
 Calculating wake trajectory ...
 Calculating source influence matrix ...

 Solving BL system ...

 Side 1  free  transition at x/c =  0.6200   54
 Side 2  free  transition at x/c =  0.2940   41

   1   rms: 0.8164E-01   max: 0.4517E+00   D at   41  2
       a = -1.500      CL =  0.3785
      Cm = -0.1019     CD =  0.01012   =>   CDf =  0.00689    CDp =  0.00323

 Side 1  free  transition at x/c =  0.6076   53
 Side 2  free  transition at x/c =  0.3131   42

   2   rms: 0.1351E-01   max: -.1052E+00   C at   42  2
       a = -1.500      CL =  0.3795
      Cm = -0.1021     CD =  0.01022   =>   CDf =  0.00697    CDp =  0.00325

 Side 1  free  transition at x/c =  0.6076   54
 Side 2  free  transition at x/c =  0.3157   41

   3   rms: 0.5443E-02   max: -.9415E-01   T at    2  1
       a = -1.500      CL =  0.3799
      Cm = -0.1021     CD =  0.01023   =>   CDf =  0.00690    CDp =  0.00333

 Side 1  free  transition at x/c =  0.6075   54
 Side 2  free  transition at x/c =  0.3155   41

   4   rms: 0.9337E-04   max: 0.1101E-02   D at    4  1
       a = -1.500      CL =  0.3799
      Cm = -0.1021     CD =  0.01023   =>   CDf =  0.00691    CDp =  0.00332
 plradd ia,ip,cpol            6           0  0.25495833    

 Point added to stored polar  1
 Point written to save file  goe504_Re500k.base.pol                          
 Dump file unspecified or not available
 Calculating wake trajectory ...
 Calculating source influence matrix ...

 Solving BL system ...

 Side 1  free  transition at x/c =  0.6075   54
 Side 2  free  transition at x/c =  0.3155   41

   1   rms: 0.8155E-01   max: 0.3989E+00   D at   41  2
       a = -1.000      CL =  0.4270
      Cm = -0.1005     CD =  0.01012   =>   CDf =  0.00691    CDp =  0.00321

 Side 1  free  transition at x/c =  0.5941   53
 Side 2  free  transition at x/c =  0.3291   42

   2   rms: 0.3588E-01   max: -.3145E+00   C at   42  2
       a = -1.000      CL =  0.4266
      Cm = -0.1005     CD =  0.01012   =>   CDf =  0.00711    CDp =  0.00301

 Side 1  free  transition at x/c =  0.5956   53
 Side 2  free  transition at x/c =  0.3437   42

   3   rms: 0.1152E-01   max: -.1993E+00   C at   42  2
       a = -1.000      CL =  0.4275
      Cm = -0.1006     CD =  0.01020   =>   CDf =  0.00695    CDp =  0.00325

 Side 1  free  transition at x/c =  0.5954   53
 Side 2  free  transition at x/c =  0.3380   42

   4   rms: 0.1296E-02   max: 0.2312E-01   D at   43  2
       a = -1.000      CL =  0.4279
      Cm = -0.1007     CD =  0.01023   =>   CDf =  0.00694    CDp =  0.00328

 Side 1  free  transition at x/c =  0.5954   53
 Side 2  free  transition at x/c =  0.3384   42

   5   rms: 0.1550E-04   max: -.3126E-03   D at   43  2
       a = -1.000      CL =  0.4279
      Cm = -0.1007     CD =  0.01023   =>   CDf =  0.00694    CDp =  0.00329
 plradd ia,ip,cpol            7           0  0.25495833    

 Point added to stored polar  1
 Point written to save file  goe504_Re500k.base.pol                          
 Dump file unspecified or not available
 Calculating wake trajectory ...
 Calculating source influence matrix ...

 Solving BL system ...

 Side 1  free  transition at x/c =  0.5954   53
 Side 2  free  transition at x/c =  0.3384   42

   1   rms: 0.7743E-01   max: -.3805E+00   C at   42  2
       a = -0.500      CL =  0.4747
      Cm = -0.0990     CD =  0.01014   =>   CDf =  0.00694    CDp =  0.00320

 Side 1  free  transition at x/c =  0.5807   53
 Side 2  free  transition at x/c =  0.3558   42

   2   rms: 0.2058E-01   max: -.2564E+00   C at   42  2
       a = -0.500      CL =  0.4751
      Cm = -0.0991     CD =  0.01024   =>   CDf =  0.00704    CDp =  0.00320

 Side 1  free  transition at x/c =  0.5833   54
 Side 2  free  transition at x/c =  0.3629   43

   3   rms: 0.9521E-02   max: -.1137E+00   C at   43  2
       a = -0.500      CL =  0.4743
      Cm = -0.0989     CD =  0.01018   =>   CDf =  0.00699    CDp =  0.00319

 Side 1  free  transition at x/c =  0.5831   54
 Side 2  free  transition at x/c =  0.3654   43

   4   rms: 0.1502E-02   max: 0.2399E-01   C at   43  2
       a = -0.500      CL =  0.4745
      Cm = -0.0990     CD =  0.01019   =>   CDf =  0.00692    CDp =  0.00327

 Side 1  free  transition at x/c =  0.5830   54
 Side 2  free  transition at x/c =  0.3648   43

   5   rms: 0.1489E-04   max: -.3133E-03   D at   44  2
       a = -0.500      CL =  0.4745
      Cm = -0.0990     CD =  0.01019   =>   CDf =  0.00693    CDp =  0.00326
 plradd ia,ip,cpol            8           0  0.24003500    

 Point added to stored polar  1
 Point written to save file  goe504_Re500k.base.pol                          
 Dump file unspecified or not available
 Calculating wake trajectory ...
 Calculating source influence matrix ...

 Solving BL system ...

 Side 1  free  transition at x/c =  0.5830   54
 Side 2  free  transition at x/c =  0.3648   43

   1   rms: 0.8609E-01   max: -.6588E+00   C at   43  2   RLX: 0.759
       a =  0.000      CL =  0.5102
      Cm = -0.0978     CD =  0.01019   =>   CDf =  0.00692    CDp =  0.00327

 Side 1  free  transition at x/c =  0.5754   54
 Side 2  free  transition at x/c =  0.3854   43

   2   rms: 0.3526E-01   max: -.4759E+00   C at   43  2
       a =  0.000      CL =  0.5191
      Cm = -0.0969     CD =  0.01006   =>   CDf =  0.00692    CDp =  0.00314

 Side 1  free  transition at x/c =  0.5707   54
 Side 2  free  transition at x/c =  0.3997   44

   3   rms: 0.1363E-01   max: -.2395E+00   C at   44  2
       a =  0.000      CL =  0.5194
      Cm = -0.0970     CD =  0.01009   =>   CDf =  0.00687    CDp =  0.00321

 Side 1  free  transition at x/c =  0.5711   54
 Side 2  free  transition at x/c =  0.4060   44

   4   rms: 0.4338E-03   max: -.6860E-02   D at   46  2
       a =  0.000      CL =  0.5196
      Cm = -0.0970     CD =  0.01009   =>   CDf =  0.00682    CDp =  0.00328

 Side 1  free  transition at x/c =  0.5711   54
 Side 2  free  transition at x/c =  0.4059   44

   5   rms: 0.1788E-05   max: 0.2391E-04   C at   44  2
       a =  0.000      CL =  0.5196
      Cm = -0.0970     CD =  0.01009   =>   CDf =  0.00682    CDp =  0.00328
 plradd ia,ip,cpol            9           0  0.22526467    

 Point added to stored polar  1
 Point written to save file  goe504_Re500k.base.pol                          
 Dump file unspecified or not available
 Calculating wake trajectory ...
 Calculating source influence matrix ...

 Solving BL system ...

 Side 1  free  transition at x/c =  0.5711   54
 Side 2  free  transition at x/c =  0.4059   44

   1   rms: 0.1120E+00   max: -.1705E+01   C at   44  2   RLX: 0.293
       a =  0.500      CL =  0.5324
      Cm = -0.0964     CD =  0.01006   =>   CDf =  0.00682    CDp =  0.00324

 Side 1  free  transition at x/c =  0.5677   54
 Side 2  free  transition at x/c =  0.4225   45

   2   rms: 0.9839E-01   max: -.1683E+01   C at   45  2   RLX: 0.297
       a =  0.500      CL =  0.5419
      Cm = -0.0960     CD =  0.01006   =>   CDf =  0.00681    CDp =  0.00326

 Side 1  free  transition at x/c =  0.5656   54
 Side 2  free  transition at x/c =  0.4347   46

   3   rms: 0.8734E-01   max: -.1470E+01   C at   46  2   RLX: 0.340
       a =  0.500      CL =  0.5495
      Cm = -0.0957     CD =  0.01006   =>   CDf =  0.00681    CDp =  0.00325

 Side 1  free  transition at x/c =  0.5639   53
 Side 2  free  transition at x/c =  0.4473   47

   4   rms: 0.7119E-01   max: -.1089E+01   C at   47  2   RLX: 0.459
       a =  0.500      CL =  0.5546
      Cm = -0.0951     CD =  0.00996   =>   CDf =  0.00679    CDp =  0.00317

 Side 1  free  transition at x/c =  0.5621   53
 Side 2  free  transition at x/c =  0.4664   48

   5   rms: 0.6371E-01   max: -.1164E+01   C at   48  2   RLX: 0.430
       a =  0.500      CL =  0.5570
      Cm = -0.0947     CD =  0.00992   =>   CDf =  0.00669    CDp =  0.00323

 Side 1  free  transition at x/c =  0.5612   53
 Side 2  free  transition at x/c =  0.4822   49

   6   rms: 0.5243E-01   max: -.1009E+01   C at   49  2   RLX: 0.495
       a =  0.500      CL =  0.5581
      Cm = -0.0944     CD =  0.00986   =>   CDf =  0.00661    CDp =  0.00325

 Side 1  free  transition at x/c =  0.5606   53
 Side 2  free  transition at x/c =  0.4981   49

   7   rms: 0.3379E-01   max: -.6891E+00   C at   49  2   RLX: 0.726
       a =  0.500      CL =  0.5594
      Cm = -0.0942     CD =  0.00983   =>   CDf =  0.00651    CDp =  0.00332

 Side 1  free  transition at x/c =  0.5601   54
 Side 2  free  transition at x/c =  0.5204   50

   8   rms: 0.1188E-01   max: -.2401E+00   C at   50  2
       a =  0.500      CL =  0.5588
      Cm = -0.0940     CD =  0.00977   =>   CDf =  0.00646    CDp =  0.00331

 Side 1  free  transition at x/c =  0.5600   54
 Side 2  free  transition at x/c =  0.5283   50

   9   rms: 0.1404E-02   max: -.2841E-01   C at   50  2
       a =  0.500      CL =  0.5588
      Cm = -0.0940     CD =  0.00978   =>   CDf =  0.00644    CDp =  0.00334

 Side 1  free  transition at x/c =  0.5600   54
 Side 2  free  transition at x/c =  0.5292   50

  10   rms: 0.4183E-05   max: -.7497E-04   C at   50  2
       a =  0.500      CL =  0.5588
      Cm = -0.0940     CD =  0.00978   =>   CDf =  0.00643    CDp =  0.00334
 plradd ia,ip,cpol           10           0  0.22526467    

 Point added to stored polar  1
 Point written to save file  goe504_Re500k.base.pol                          
 Dump file unspecified or not available
 Calculating wake trajectory ...
 Calculating source influence matrix ...

 Solving BL system ...

 Side 1  free  transition at x/c =  0.5600   54
 Side 2  free  transition at x/c =  0.5292   50

   1   rms: 0.2661E+00   max: -.5199E+01   C at   50  2   RLX: 0.096
       a =  1.000      CL =  0.5621
      Cm = -0.0936     CD =  0.00973   =>   CDf =  0.00644    CDp =  0.00329

 Side 1  free  transition at x/c =  0.5589   54
 Side 2  free  transition at x/c =  0.5494   51

   2   rms: 0.2414E+00   max: -.4667E+01   C at   51  2   RLX: 0.107
       a =  1.000      CL =  0.5654
      Cm = -0.0932     CD =  0.00968   =>   CDf =  0.00637    CDp =  0.00331

 Side 1  free  transition at x/c =  0.5577   54
 Side 2  free  transition at x/c =  0.5748   53

   3   rms: 0.2390E+00   max: -.4680E+01   C at   53  2   RLX: 0.107
       a =  1.000      CL =  0.5677
      Cm = -0.0926     CD =  0.00960   =>   CDf =  0.00628    CDp =  0.00332

 Side 1  free  transition at x/c =  0.5567   54
 Side 2  free  transition at x/c =  0.5949   54

   4   rms: 0.1914E+00   max: -.3690E+01   C at   54  2   RLX: 0.136
       a =  1.000      CL =  0.5707
      Cm = -0.0921     CD =  0.00955   =>   CDf =  0.00622    CDp =  0.00333

 Side 1  free  transition at x/c =  0.5556   54
 Side 2  free  transition at x/c =  0.6217   56

   5   rms: 0.1855E+00   max: -.3605E+01   C at   56  2   RLX: 0.139
       a =  1.000      CL =  0.5725
      Cm = -0.0915     CD =  0.00947   =>   CDf =  0.00613    CDp =  0.00334

 Side 1  free  transition at x/c =  0.5547   54
 Side 2  free  transition at x/c =  0.6379   57

   6   rms: 0.1547E+00   max: -.2987E+01   C at   57  2   RLX: 0.167
       a =  1.000      CL =  0.5748
      Cm = -0.0910     CD =  0.00943   =>   CDf =  0.00609    CDp =  0.00334

 Side 1  free  transition at x/c =  0.5537   54
 Side 2  free  transition at x/c =  0.6538   58

   7   rms: 0.1362E+00   max: -.2632E+01   C at   58  2   RLX: 0.190
       a =  1.000      CL =  0.5769
      Cm = -0.0905     CD =  0.00940   =>   CDf =  0.00605    CDp =  0.00335

 Side 1  free  transition at x/c =  0.5529   54
 Side 2  free  transition at x/c =  0.6700   59

   8   rms: 0.1214E+00   max: -.2351E+01   C at   59  2   RLX: 0.213
       a =  1.000      CL =  0.5786
      Cm = -0.0900     CD =  0.00936   =>   CDf =  0.00600    CDp =  0.00336

 Side 1  free  transition at x/c =  0.5521   54
 Side 2  free  transition at x/c =  0.6865   60

   9   rms: 0.1048E+00   max: -.2033E+01   C at   60  2   RLX: 0.246
       a =  1.000      CL =  0.5800
      Cm = -0.0895     CD =  0.00932   =>   CDf =  0.00595    CDp =  0.00337

 Side 1  free  transition at x/c =  0.5514   54
 Side 2  free  transition at x/c =  0.7034   60

  10   rms: 0.8890E-01   max: -.1682E+01   C at   60  2   RLX: 0.297
       a =  1.000      CL =  0.5819
      Cm = -0.0892     CD =  0.00930   =>   CDf =  0.00589    CDp =  0.00341

 Side 1  free  transition at x/c =  0.5508   54
 Side 2  free  transition at x/c =  0.7257   62

  11   rms: 0.6326E-01   max: -.1226E+01   C at   62  2   RLX: 0.408
       a =  1.000      CL =  0.5829
      Cm = -0.0886     CD =  0.00924   =>   CDf =  0.00582    CDp =  0.00342

 Side 1  free  transition at x/c =  0.5502   54
 Side 2  free  transition at x/c =  0.7449   63

  12   rms: 0.3626E-01   max: -.6982E+00   C at   63  2   RLX: 0.716
       a =  1.000      CL =  0.5846
      Cm = -0.0881     CD =  0.00920   =>   CDf =  0.00577    CDp =  0.00344

 Side 1  free  transition at x/c =  0.5496   54
 Side 2  free  transition at x/c =  0.7676   64

  13   rms: 0.1004E-01   max: -.1897E+00   C at   64  2
       a =  1.000      CL =  0.5856
      Cm = -0.0879     CD =  0.00919   =>   CDf =  0.00570    CDp =  0.00349

 Side 1  free  transition at x/c =  0.5493   53
 Side 2  free  transition at x/c =  0.7780   65

  14   rms: 0.8299E-03   max: 0.1427E-01   C at   65  2
       a =  1.000      CL =  0.5855
      Cm = -0.0879     CD =  0.00919   =>   CDf =  0.00567    CDp =  0.00352

 Side 1  free  transition at x/c =  0.5493   53
 Side 2  free  transition at x/c =  0.7776   65

  15   rms: 0.4884E-05   max: -.9063E-04   C at   65  2
       a =  1.000      CL =  0.5855
      Cm = -0.0879     CD =  0.00919   =>   CDf =  0.00567    CDp =  0.00351
 plradd ia,ip,cpol           11           0  0.21071577    

 Point added to stored polar  1
 Point written to save file  goe504_Re500k.base.pol                          
 Dump file unspecified or not available
 Calculating wake trajectory ...
 Calculating source influence matrix ...

 Solving BL system ...

 Side 1  free  transition at x/c =  0.5493   53
 Side 2  free  transition at x/c =  0.7776   65

   1   rms: 0.2907E+00   max: -.5523E+01   C at   65  2   RLX: 0.091
       a =  1.500      CL =  0.5881
      Cm = -0.0873     CD =  0.00913   =>   CDf =  0.00567    CDp =  0.00345

 Side 1  free  transition at x/c =  0.5484   53
 Side 2  free  transition at x/c =  0.7978   66

   2   rms: 0.2362E+00   max: -.4408E+01   C at   66  2   RLX: 0.113
       a =  1.500      CL =  0.5920
      Cm = -0.0870     CD =  0.00909   =>   CDf =  0.00560    CDp =  0.00349

 Side 1  free  transition at x/c =  0.5472   53
 Side 2  free  transition at x/c =  0.8223   67

   3   rms: 0.1407E+00   max: -.2452E+01   C at   67  2   RLX: 0.204
       a =  1.500      CL =  0.5991
      Cm = -0.0865     CD =  0.00906   =>   CDf =  0.00552    CDp =  0.00354

 Side 1  free  transition at x/c =  0.5453   53
 Side 2  free  transition at x/c =  0.8703   70

   4   rms: 0.6356E-01   max: -.6786E+00   C at   70  2   RLX: 0.737
       a =  1.500      CL =  0.6242
      Cm = -0.0860     CD =  0.00906   =>   CDf =  0.00535    CDp =  0.00371

 MRCHDU: Convergence failed at  78  side 2    Res =  0.3615E+01
 Side 1  free  transition at x/c =  0.5390   54
 Side 2  free  transition at x/c =  0.9626   75

   5   rms: 0.6973E-01   max: 0.7155E+00   D at   78  2
       a =  1.500      CL =  0.6800
      Cm = -0.0960     CD =  0.00918   =>   CDf =  0.00531    CDp =  0.00387

 Side 1  free  transition at x/c =  0.5361   54
 Side 2  free  transition at x/c =  0.9477   74

   6   rms: 0.1213E-01   max: -.7140E-01   D at   75  2
       a =  1.500      CL =  0.6921
      Cm = -0.0988     CD =  0.00937   =>   CDf =  0.00536    CDp =  0.00401

 Side 1  free  transition at x/c =  0.5359   54
 Side 2  free  transition at x/c =  0.9379   73

   7   rms: 0.5538E-02   max: -.5422E-01   D at   78  2
       a =  1.500      CL =  0.6879
      Cm = -0.0978     CD =  0.00935   =>   CDf =  0.00537    CDp =  0.00398

 Side 1  free  transition at x/c =  0.5360   54
 Side 2  free  transition at x/c =  0.9398   73

   8   rms: 0.2413E-03   max: 0.2175E-02   D at   78  2
       a =  1.500      CL =  0.6882
      Cm = -0.0979     CD =  0.00936   =>   CDf =  0.00537    CDp =  0.00399

 Side 1  free  transition at x/c =  0.5360   54
 Side 2  free  transition at x/c =  0.9397   73

   9   rms: 0.6140E-06   max: 0.3628E-05   D at   78  2
       a =  1.500      CL =  0.6882
      Cm = -0.0979     CD =  0.00936   =>   CDf =  0.00537    CDp =  0.00399
 plradd ia,ip,cpol           12           0  0.19646522    

 Point added to stored polar  1
 Point written to save file  goe504_Re500k.base.pol                          
 Dump file unspecified or not available
 Calculating wake trajectory ...
 Calculating source influence matrix ...

 Solving BL system ...

 Side 1  free  transition at x/c =  0.5360   54
 Side 2  free  transition at x/c =  0.9397   73

   1   rms: 0.1032E+00   max: 0.3290E+00   D at   75  2
       a =  2.000      CL =  0.7679
      Cm = -0.1032     CD =  0.00983   =>   CDf =  0.00535    CDp =  0.00448

 Side 1  free  transition at x/c =  0.5246   54
 Side 2  free  transition at x/c =  0.9842   76

   2   rms: 0.4704E-01   max: 0.6980E+00   C at   76  2
       a =  2.000      CL =  0.7688
      Cm = -0.1034     CD =  0.00967   =>   CDf =  0.00548    CDp =  0.00419

 Side 1  free  transition at x/c =  0.5238   54
 Side 2  free  transition at x/c =  0.9759   75

   3   rms: 0.1163E-01   max: 0.9139E-01   D at   76  2
       a =  2.000      CL =  0.7809
      Cm = -0.1061     CD =  0.00980   =>   CDf =  0.00545    CDp =  0.00435

 Side 1  free  transition at x/c =  0.5231   54
 Side 2  free  transition at x/c =  0.9696   74

   4   rms: 0.8006E-02   max: -.7587E-01   D at   76  2
       a =  2.000      CL =  0.7741
      Cm = -0.1046     CD =  0.00979   =>   CDf =  0.00547    CDp =  0.00433

 Side 1  free  transition at x/c =  0.5233   54
 Side 2  free  transition at x/c =  0.9746   75

   5   rms: 0.1273E-01   max: 0.1313E+00   C at   75  2
       a =  2.000      CL =  0.7780
      Cm = -0.1054     CD =  0.00979   =>   CDf =  0.00546    CDp =  0.00433

 Side 1  free  transition at x/c =  0.5232   54
 Side 2  free  transition at x/c =  0.9714   75

   6   rms: 0.9945E-03   max: -.1165E-01   D at   76  2
       a =  2.000      CL =  0.7777
      Cm = -0.1054     CD =  0.00980   =>   CDf =  0.00546    CDp =  0.00433

 Side 1  free  transition at x/c =  0.5232   54
 Side 2  free  transition at x/c =  0.9717   75

   7   rms: 0.1078E-04   max: 0.1005E-03   D at   77  2
       a =  2.000      CL =  0.7777
      Cm = -0.1054     CD =  0.00980   =>   CDf =  0.00546    CDp =  0.00433
 plradd ia,ip,cpol           13           0  0.18259144    

 Point added to stored polar  1
 Point written to save file  goe504_Re500k.base.pol                          
 Dump file unspecified or not available
 Calculating wake trajectory ...
 Calculating source influence matrix ...

 Solving BL system ...

 Side 1  free  transition at x/c =  0.5232   54
 Side 2  free  transition at x/c =  0.9717   75

   1   rms: 0.1072E+00   max: 0.3287E+00   D at   76  2
       a =  2.500      CL =  0.8721
      Cm = -0.1140     CD =  0.01030   =>   CDf =  0.00544    CDp =  0.00486

 Side 1  free  transition at x/c =  0.5104   54
 Side 2  free  transition at x/c =  0.9809   74

   2   rms: 0.3447E-01   max: -.2602E+00   T at   74  2
       a =  2.500      CL =  0.8464
      Cm = -0.1085     CD =  0.01026   =>   CDf =  0.00561    CDp =  0.00465

 Side 1  free  transition at x/c =  0.5112   54
 Side 2  free  transition at x/c =  0.9973   76

   3   rms: 0.2201E-01   max: 0.3155E+00   D at   76  2
       a =  2.500      CL =  0.8585
      Cm = -0.1111     CD =  0.01017   =>   CDf =  0.00556    CDp =  0.00461

 Side 1  free  transition at x/c =  0.5105   54
 Side 2  free  transition at x/c =  0.9884   75

   4   rms: 0.5697E-02   max: -.9384E-01   D at   75  2
       a =  2.500      CL =  0.8623
      Cm = -0.1120     CD =  0.01022   =>   CDf =  0.00557    CDp =  0.00465

 Side 1  free  transition at x/c =  0.5103   54
 Side 2  free  transition at x/c =  0.9875   75

   5   rms: 0.2201E-03   max: -.2686E-02   D at   76  2
       a =  2.500      CL =  0.8622
      Cm = -0.1120     CD =  0.01022   =>   CDf =  0.00557    CDp =  0.00465

 Side 1  free  transition at x/c =  0.5103   54
 Side 2  free  transition at x/c =  0.9875   75

   6   rms: 0.2350E-05   max: 0.2573E-04   D at    4  2
       a =  2.500      CL =  0.8622
      Cm = -0.1120     CD =  0.01022   =>   CDf =  0.00557    CDp =  0.00465
 plradd ia,ip,cpol           14           0  0.16914780    

 Point added to stored polar  1
 Point written to save file  goe504_Re500k.base.pol                          
 Dump file unspecified or not available
 Calculating wake trajectory ...
 Calculating source influence matrix ...

 Solving BL system ...

 Side 1  free  transition at x/c =  0.5103   54
 Side 2  free  transition at x/c =  0.9875   75

   1   rms: 0.9630E-01   max: -.2094E+00   T at   75  2
       a =  3.000      CL =  0.9475
      Cm = -0.1189     CD =  0.01057   =>   CDf =  0.00553    CDp =  0.00504

 Side 1  free  transition at x/c =  0.4964   54
 Side 2  free  transition at x/c =  0.9979   75

   2   rms: 0.1325E-01   max: -.1250E+00   D at   54  1
       a =  3.000      CL =  0.9469
      Cm = -0.1188     CD =  0.01059   =>   CDf =  0.00573    CDp =  0.00486

 Side 1  free  transition at x/c =  0.4975   54
 Side 2  free  transition at x/c =  0.9986   75

   3   rms: 0.1017E-02   max: 0.9134E-02   C at   54  1
       a =  3.000      CL =  0.9473
      Cm = -0.1189     CD =  0.01058   =>   CDf =  0.00568    CDp =  0.00490

 Side 1  free  transition at x/c =  0.4972   54
 Side 2  free  transition at x/c =  0.9984   75

   4   rms: 0.5457E-05   max: -.5337E-04   D at   54  1
       a =  3.000      CL =  0.9473
      Cm = -0.1189     CD =  0.01058   =>   CDf =  0.00568    CDp =  0.00490
 plradd ia,ip,cpol           15           0  0.16914780    

 Point added to stored polar  1
 Point written to save file  goe504_Re500k.base.pol                          
 Dump file unspecified or not available
 Calculating wake trajectory ...
 Calculating source influence matrix ...

 Solving BL system ...

 Side 1  free  transition at x/c =  0.4972   54
 Side 2  free  transition at x/c =  0.9984   75

   1   rms: 0.1010E+00   max: 0.3865E+00   C at   75  2
       a =  3.500      CL =  1.0397
      Cm = -0.1274     CD =  0.01083   =>   CDf =  0.00558    CDp =  0.00525

 Side 1  free  transition at x/c =  0.4828   55
 Side 2 forced transition at x/c =  1.0000   73
 idif Ue xi dudx           1  0.13396749      2.16794014E-03   61.794830    
 Uenew xinew           2  5.92268026E-03  9.58442688E-05

   2   rms: 0.1792E+00   max: -.2988E+01   T at    2  1   RLX: 0.167
       a =  3.500      CL =  1.0303
      Cm = -0.1254     CD =  0.01129   =>   CDf =  0.00590    CDp =  0.00538

 Side 1  free  transition at x/c =  0.4833   54
 Side 2 forced transition at x/c =  1.0000   74

   3   rms: 0.5145E-01   max: -.4611E+00   T at    2  2
       a =  3.500      CL =  0.9870
      Cm = -0.1164     CD =  0.01089   =>   CDf =  0.00583    CDp =  0.00506

 Side 1  free  transition at x/c =  0.4859   55
 Side 2 forced transition at x/c =  1.0000   74

   4   rms: 0.4116E-02   max: 0.2998E-01   D at   67  2
       a =  3.500      CL =  0.9861
      Cm = -0.1161     CD =  0.01086   =>   CDf =  0.00580    CDp =  0.00506

 Side 1  free  transition at x/c =  0.4859   55
 Side 2 forced transition at x/c =  1.0000   74

   5   rms: 0.1608E-03   max: 0.1464E-02   D at   67  2
       a =  3.500      CL =  0.9861
      Cm = -0.1161     CD =  0.01086   =>   CDf =  0.00579    CDp =  0.00507

 Side 1  free  transition at x/c =  0.4859   55
 Side 2 forced transition at x/c =  1.0000   74

   6   rms: 0.6053E-06   max: 0.3705E-05   D at   55  1
       a =  3.500      CL =  0.9861
      Cm = -0.1161     CD =  0.01086   =>   CDf =  0.00579    CDp =  0.00507
 plradd ia,ip,cpol           16           0  0.16914780    

 Point added to stored polar  1
 Point written to save file  goe504_Re500k.base.pol                          
 Dump file unspecified or not available
 Calculating wake trajectory ...
 Calculating source influence matrix ...

 Solving BL system ...

 Side 1  free  transition at x/c =  0.4859   55
 Side 2 forced transition at x/c =  1.0000   74

   1   rms: 0.6939E-01   max: -.2115E+00   D at   70  2
       a =  4.000      CL =  1.0136
      Cm = -0.1110     CD =  0.01129   =>   CDf =  0.00573    CDp =  0.00556

 Side 1  free  transition at x/c =  0.4754   55
 Side 2 forced transition at x/c =  1.0000   73

   2   rms: 0.1978E-01   max: -.2378E+00   D at   55  1
       a =  4.000      CL =  1.0076
      Cm = -0.1096     CD =  0.01098   =>   CDf =  0.00583    CDp =  0.00515

 Side 1  free  transition at x/c =  0.4761   55
 Side 2 forced transition at x/c =  1.0000   73

   3   rms: 0.2909E-02   max: 0.3106E-01   C at   55  1
       a =  4.000      CL =  1.0097
      Cm = -0.1100     CD =  0.01102   =>   CDf =  0.00577    CDp =  0.00525

 Side 1  free  transition at x/c =  0.4753   55
 Side 2 forced transition at x/c =  1.0000   73

   4   rms: 0.6105E-04   max: -.8086E-03   D at   56  1
       a =  4.000      CL =  1.0096
      Cm = -0.1100     CD =  0.01102   =>   CDf =  0.00579    CDp =  0.00523
 plradd ia,ip,cpol           17           0  0.15611598    

 Point added to stored polar  1
 Point written to save file  goe504_Re500k.base.pol                          
 Dump file unspecified or not available
 Calculating wake trajectory ...
 Calculating source influence matrix ...

 Solving BL system ...

 Side 1  free  transition at x/c =  0.4753   55
 Side 2 forced transition at x/c =  1.0000   73

   1   rms: 0.6361E-01   max: -.2585E+00   D at   70  2
       a =  4.500      CL =  1.0263
      Cm = -0.1025     CD =  0.01124   =>   CDf =  0.00579    CDp =  0.00545

 Side 1  free  transition at x/c =  0.4654   54
 Side 2 forced transition at x/c =  1.0000   73

   2   rms: 0.9804E-02   max: -.9323E-01   D at   54  1
       a =  4.500      CL =  1.0275
      Cm = -0.1027     CD =  0.01123   =>   CDf =  0.00587    CDp =  0.00536

 Side 1  free  transition at x/c =  0.4650   54
 Side 2 forced transition at x/c =  1.0000   73

   3   rms: 0.1509E-02   max: 0.1036E-01   D at   71  2
       a =  4.500      CL =  1.0289
      Cm = -0.1030     CD =  0.01124   =>   CDf =  0.00583    CDp =  0.00541

 Side 1  free  transition at x/c =  0.4648   54
 Side 2 forced transition at x/c =  1.0000   73

   4   rms: 0.1270E-04   max: 0.1343E-03   D at   70  2
       a =  4.500      CL =  1.0290
      Cm = -0.1030     CD =  0.01124   =>   CDf =  0.00583    CDp =  0.00541
 plradd ia,ip,cpol           18           0  0.15611598    

 Point added to stored polar  1
 Point written to save file  goe504_Re500k.base.pol                          
 Dump file unspecified or not available
 Calculating wake trajectory ...
 Calculating source influence matrix ...

 Solving BL system ...

 Side 1  free  transition at x/c =  0.4648   54
 Side 2 forced transition at x/c =  1.0000   73

   1   rms: 0.6403E-01   max: -.2207E+00   D at   71  2
       a =  5.000      CL =  1.0514
      Cm = -0.0967     CD =  0.01144   =>   CDf =  0.00574    CDp =  0.00569

 Side 1  free  transition at x/c =  0.4532   54
 Side 2 forced transition at x/c =  1.0000   72

   2   rms: 0.6615E-02   max: -.5667E-01   C at   54  1
       a =  5.000      CL =  1.0522
      Cm = -0.0970     CD =  0.01157   =>   CDf =  0.00593    CDp =  0.00564

 Side 1  free  transition at x/c =  0.4540   54
 Side 2 forced transition at x/c =  1.0000   72

   3   rms: 0.9435E-03   max: -.8971E-02   D at    4  1
       a =  5.000      CL =  1.0527
      Cm = -0.0971     CD =  0.01157   =>   CDf =  0.00591    CDp =  0.00566

 Side 1  free  transition at x/c =  0.4539   54
 Side 2 forced transition at x/c =  1.0000   72

   4   rms: 0.1016E-05   max: 0.7510E-05   D at   70  2
       a =  5.000      CL =  1.0527
      Cm = -0.0971     CD =  0.01157   =>   CDf =  0.00590    CDp =  0.00566
 plradd ia,ip,cpol           19           0  0.15611598    

 Point added to stored polar  1
 Point written to save file  goe504_Re500k.base.pol                          
 Dump file unspecified or not available
 Calculating wake trajectory ...
 Calculating source influence matrix ...

 Solving BL system ...

 Side 1  free  transition at x/c =  0.4539   54
 Side 2 forced transition at x/c =  1.0000   72

   1   rms: 0.6410E-01   max: -.1715E+00   D at   71  2
       a =  5.500      CL =  1.0829
      Cm = -0.0924     CD =  0.01175   =>   CDf =  0.00591    CDp =  0.00584

 Side 1  free  transition at x/c =  0.4414   54
 Side 2 forced transition at x/c =  1.0000   72

   2   rms: 0.8144E-02   max: -.8279E-01   D at   54  1
       a =  5.500      CL =  1.0811
      Cm = -0.0922     CD =  0.01187   =>   CDf =  0.00594    CDp =  0.00593

 Side 1  free  transition at x/c =  0.4431   54
 Side 2 forced transition at x/c =  1.0000   72

   3   rms: 0.1135E-02   max: -.9614E-02   D at   55  1
       a =  5.500      CL =  1.0821
      Cm = -0.0923     CD =  0.01188   =>   CDf =  0.00589    CDp =  0.00599

 Side 1  free  transition at x/c =  0.4430   54
 Side 2 forced transition at x/c =  1.0000   72

   4   rms: 0.1056E-04   max: -.7031E-04   D at   55  1
       a =  5.500      CL =  1.0821
      Cm = -0.0923     CD =  0.01188   =>   CDf =  0.00590    CDp =  0.00598
 plradd ia,ip,cpol           20           0  0.15611598    

 Point added to stored polar  1
 Point written to save file  goe504_Re500k.base.pol                          
 Dump file unspecified or not available
 Calculating wake trajectory ...
 Calculating source influence matrix ...

 Solving BL system ...

 Side 1  free  transition at x/c =  0.4430   54
 Side 2 forced transition at x/c =  1.0000   72

   1   rms: 0.6522E-01   max: -.1535E+00   D at   71  2
       a =  6.000      CL =  1.1103
      Cm = -0.0875     CD =  0.01233   =>   CDf =  0.00579    CDp =  0.00654

 Side 1  free  transition at x/c =  0.4328   54
 Side 2 forced transition at x/c =  1.0000   71

   2   rms: 0.1091E-01   max: -.1128E+00   D at   54  1
       a =  6.000      CL =  1.1122
      Cm = -0.0879     CD =  0.01228   =>   CDf =  0.00593    CDp =  0.00635

 Side 1  free  transition at x/c =  0.4320   54
 Side 2 forced transition at x/c =  1.0000   71

   3   rms: 0.1288E-02   max: 0.6485E-02   C at   54  1
       a =  6.000      CL =  1.1131
      Cm = -0.0881     CD =  0.01230   =>   CDf =  0.00590    CDp =  0.00639

 Side 1  free  transition at x/c =  0.4318   54
 Side 2 forced transition at x/c =  1.0000   71

   4   rms: 0.9425E-05   max: 0.7927E-04   D at   75  2
       a =  6.000      CL =  1.1131
      Cm = -0.0881     CD =  0.01230   =>   CDf =  0.00590    CDp =  0.00639
 plradd ia,ip,cpol           21           0  0.15611598    

 Point added to stored polar  1
 Point written to save file  goe504_Re500k.base.pol                          
 Dump file unspecified or not available
 Calculating wake trajectory ...
 Calculating source influence matrix ...

 Solving BL system ...

 Side 1  free  transition at x/c =  0.4318   54
 Side 2 forced transition at x/c =  1.0000   71

   1   rms: 0.6395E-01   max: -.1291E+00   D at   70  2
       a =  6.500      CL =  1.1443
      Cm = -0.0841     CD =  0.01273   =>   CDf =  0.00591    CDp =  0.00682

 Side 1  free  transition at x/c =  0.4197   53
 Side 2 forced transition at x/c =  1.0000   71

   2   rms: 0.6324E-02   max: -.9104E-01   C at   53  1
       a =  6.500      CL =  1.1432
      Cm = -0.0839     CD =  0.01281   =>   CDf =  0.00598    CDp =  0.00684

 Side 1  free  transition at x/c =  0.4204   53
 Side 2 forced transition at x/c =  1.0000   71

   3   rms: 0.7397E-03   max: 0.3992E-02   C at   53  1
       a =  6.500      CL =  1.1438
      Cm = -0.0841     CD =  0.01281   =>   CDf =  0.00594    CDp =  0.00687

 Side 1  free  transition at x/c =  0.4203   53
 Side 2 forced transition at x/c =  1.0000   71

   4   rms: 0.3899E-05   max: 0.3974E-04   D at   86  1
       a =  6.500      CL =  1.1438
      Cm = -0.0841     CD =  0.01281   =>   CDf =  0.00594    CDp =  0.00687
 plradd ia,ip,cpol           22           0  0.14341539    

 Point added to stored polar  1
 Point written to save file  goe504_Re500k.base.pol                          
 Dump file unspecified or not available
 Calculating wake trajectory ...
 Calculating source influence matrix ...

 Solving BL system ...

 Side 1  free  transition at x/c =  0.4203   53
 Side 2 forced transition at x/c =  1.0000   71

   1   rms: 0.6451E-01   max: -.1056E+00   D at   70  2
       a =  7.000      CL =  1.1789
      Cm = -0.0808     CD =  0.01322   =>   CDf =  0.00581    CDp =  0.00741

 Side 1  free  transition at x/c =  0.4056   53
 Side 2 forced transition at x/c =  1.0000   70

   2   rms: 0.9443E-02   max: -.8146E-01   D at    3  1
       a =  7.000      CL =  1.1733
      Cm = -0.0799     CD =  0.01343   =>   CDf =  0.00602    CDp =  0.00742

 Side 1  free  transition at x/c =  0.4074   54
 Side 2 forced transition at x/c =  1.0000   70

   3   rms: 0.4343E-02   max: -.5428E-01   D at   53  1
       a =  7.000      CL =  1.1735
      Cm = -0.0800     CD =  0.01342   =>   CDf =  0.00601    CDp =  0.00740

 Side 1  free  transition at x/c =  0.4079   54
 Side 2 forced transition at x/c =  1.0000   70

   4   rms: 0.7507E-03   max: -.6204E-02   D at   55  1
       a =  7.000      CL =  1.1740
      Cm = -0.0801     CD =  0.01342   =>   CDf =  0.00597    CDp =  0.00745

 Side 1  free  transition at x/c =  0.4077   54
 Side 2 forced transition at x/c =  1.0000   70

   5   rms: 0.8871E-05   max: 0.7851E-04   D at   86  1
       a =  7.000      CL =  1.1739
      Cm = -0.0801     CD =  0.01342   =>   CDf =  0.00598    CDp =  0.00744
 plradd ia,ip,cpol           23           0  0.14341539    

 Point added to stored polar  1
 Point written to save file  goe504_Re500k.base.pol                          
 Dump file unspecified or not available
 Calculating wake trajectory ...
 Calculating source influence matrix ...

 Solving BL system ...

 Side 1  free  transition at x/c =  0.4077   54
 Side 2 forced transition at x/c =  1.0000   70

   1   rms: 0.6981E-01   max: -.3427E+00   D at   54  1
       a =  7.500      CL =  1.1999
      Cm = -0.0755     CD =  0.01432   =>   CDf =  0.00584    CDp =  0.00848

 Side 1  free  transition at x/c =  0.3918   53
 Side 2 forced transition at x/c =  1.0000   69

   2   rms: 0.1743E-01   max: 0.2860E+00   D at   54  1
       a =  7.500      CL =  1.2012
      Cm = -0.0758     CD =  0.01418   =>   CDf =  0.00603    CDp =  0.00815

 Side 1  free  transition at x/c =  0.3933   54
 Side 2 forced transition at x/c =  1.0000   69

   3   rms: 0.2896E-02   max: -.4264E-01   D at   53  1
       a =  7.500      CL =  1.2029
      Cm = -0.0761     CD =  0.01410   =>   CDf =  0.00600    CDp =  0.00811

 Side 1  free  transition at x/c =  0.3929   54
 Side 2 forced transition at x/c =  1.0000   69

   4   rms: 0.1635E-03   max: -.1316E-02   D at   55  1
       a =  7.500      CL =  1.2030
      Cm = -0.0761     CD =  0.01410   =>   CDf =  0.00598    CDp =  0.00812

 Side 1  free  transition at x/c =  0.3928   54
 Side 2 forced transition at x/c =  1.0000   69

   5   rms: 0.1509E-05   max: 0.1185E-04   D at    4  1
       a =  7.500      CL =  1.2030
      Cm = -0.0761     CD =  0.01410   =>   CDf =  0.00599    CDp =  0.00812
 plradd ia,ip,cpol           24           0  0.14341539    

 Point added to stored polar  1
 Point written to save file  goe504_Re500k.base.pol                          
 Dump file unspecified or not available
 Calculating wake trajectory ...
 Calculating source influence matrix ...

 Solving BL system ...

 Side 1  free  transition at x/c =  0.3928   54
 Side 2 forced transition at x/c =  1.0000   69

   1   rms: 0.6936E-01   max: -.3350E+00   D at   54  1
       a =  8.000      CL =  1.2281
      Cm = -0.0717     CD =  0.01509   =>   CDf =  0.00599    CDp =  0.00910

 Side 1  free  transition at x/c =  0.3785   53
 Side 2 forced transition at x/c =  1.0000   69

   2   rms: 0.2331E-01   max: -.3013E+00   D at   53  1
       a =  8.000      CL =  1.2306
      Cm = -0.0721     CD =  0.01485   =>   CDf =  0.00600    CDp =  0.00885

 Side 1  free  transition at x/c =  0.3797   53
 Side 2 forced transition at x/c =  1.0000   69

   3   rms: 0.4598E-02   max: 0.4475E-01   C at   53  1
       a =  8.000      CL =  1.2327
      Cm = -0.0725     CD =  0.01488   =>   CDf =  0.00596    CDp =  0.00893

 Side 1  free  transition at x/c =  0.3784   53
 Side 2 forced transition at x/c =  1.0000   69

   4   rms: 0.1179E-03   max: -.1567E-02   D at   54  1
       a =  8.000      CL =  1.2327
      Cm = -0.0725     CD =  0.01489   =>   CDf =  0.00599    CDp =  0.00890

 Side 1  free  transition at x/c =  0.3784   53
 Side 2 forced transition at x/c =  1.0000   69

   5   rms: 0.1186E-05   max: -.4499E-05   D at   80  1
       a =  8.000      CL =  1.2327
      Cm = -0.0725     CD =  0.01489   =>   CDf =  0.00599    CDp =  0.00890
 plradd ia,ip,cpol           25           0  0.14341539    

 Point added to stored polar  1
 Point written to save file  goe504_Re500k.base.pol                          
 Dump file unspecified or not available
 Calculating wake trajectory ...
 Calculating source influence matrix ...

 Solving BL system ...

 Side 1  free  transition at x/c =  0.3784   53
 Side 2 forced transition at x/c =  1.0000   69

   1   rms: 0.7037E-01   max: -.3511E+00   D at   53  1
       a =  8.500      CL =  1.2561
      Cm = -0.0681     CD =  0.01600   =>   CDf =  0.00599    CDp =  0.01001

 Side 1  free  transition at x/c =  0.3605   51
 Side 2 forced transition at x/c =  1.0000   69

   2   rms: 0.1512E-01   max: 0.2605E+00   D at   52  1
       a =  8.500      CL =  1.2572
      Cm = -0.0684     CD =  0.01597   =>   CDf =  0.00588    CDp =  0.01009

 Side 1  free  transition at x/c =  0.3619   53
 Side 2 forced transition at x/c =  1.0000   68

   3   rms: 0.8528E-02   max: 0.1369E+00   D at    2  1
       a =  8.500      CL =  1.2586
      Cm = -0.0686     CD =  0.01590   =>   CDf =  0.00603    CDp =  0.00987

 Side 1  free  transition at x/c =  0.3618   53
 Side 2 forced transition at x/c =  1.0000   68

   4   rms: 0.2044E-03   max: -.1695E-02   D at   54  1
       a =  8.500      CL =  1.2587
      Cm = -0.0686     CD =  0.01590   =>   CDf =  0.00601    CDp =  0.00989

 Side 1  free  transition at x/c =  0.3617   53
 Side 2 forced transition at x/c =  1.0000   68

   5   rms: 0.2893E-05   max: -.1743E-04   D at    4  1
       a =  8.500      CL =  1.2587
      Cm = -0.0686     CD =  0.01590   =>   CDf =  0.00602    CDp =  0.00989
 plradd ia,ip,cpol           26           0  0.14341539    

 Point added to stored polar  1
 Point written to save file  goe504_Re500k.base.pol                          
 Dump file unspecified or not available
 Calculating wake trajectory ...
 Calculating source influence matrix ...

 Solving BL system ...

 Side 1  free  transition at x/c =  0.3617   53
 Side 2 forced transition at x/c =  1.0000   68

   1   rms: 0.7436E-01   max: -.3991E+00   D at   53  1
       a =  9.000      CL =  1.2772
      Cm = -0.0638     CD =  0.01735   =>   CDf =  0.00602    CDp =  0.01134

 Side 1  free  transition at x/c =  0.3448   51
 Side 2 forced transition at x/c =  1.0000   68

   2   rms: 0.1626E-01   max: 0.2439E+00   D at   52  1
       a =  9.000      CL =  1.2836
      Cm = -0.0649     CD =  0.01710   =>   CDf =  0.00604    CDp =  0.01105

 Side 1  free  transition at x/c =  0.3453   51
 Side 2 forced transition at x/c =  1.0000   68

   3   rms: 0.1412E-02   max: 0.1871E-01   C at   51  1
       a =  9.000      CL =  1.2844
      Cm = -0.0650     CD =  0.01706   =>   CDf =  0.00603    CDp =  0.01103

 Side 1  free  transition at x/c =  0.3447   51
 Side 2 forced transition at x/c =  1.0000   68

   4   rms: 0.2106E-04   max: -.2382E-03   C at   51  1
       a =  9.000      CL =  1.2844
      Cm = -0.0650     CD =  0.01706   =>   CDf =  0.00603    CDp =  0.01103
 plradd ia,ip,cpol           27           0  0.14341539    

 Point added to stored polar  1
 Point written to save file  goe504_Re500k.base.pol                          
 Dump file unspecified or not available
 Calculating wake trajectory ...
 Calculating source influence matrix ...

 Solving BL system ...

 Side 1  free  transition at x/c =  0.3447   51
 Side 2 forced transition at x/c =  1.0000   68

   1   rms: 0.6766E-01   max: 0.8772E-01   D at   78  2   RLX: 0.973
       a =  9.500      CL =  1.3195
      Cm = -0.0631     CD =  0.01788   =>   CDf =  0.00603    CDp =  0.01184

 Side 1  free  transition at x/c =  0.3261   50
 Side 2 forced transition at x/c =  1.0000   68

   2   rms: 0.1330E+01   max: -.2453E+02   T at    2  2   RLX: 0.020
       a =  9.500      CL =  1.3202
      Cm = -0.0642     CD =  0.01800   =>   CDf =  0.00588    CDp =  0.01212

 Side 1  free  transition at x/c =  0.3261   51
 Side 2 forced transition at x/c =  1.0000   67
 idif Ue xi dudx           1  0.10063646      3.96895409E-03   25.355915    
 Uenew xinew           2  3.41560662E-04  1.34706497E-05

   3   rms: 0.5737E+00   max: -.1016E+02   T at    2  1   RLX: 0.049
       a =  9.500      CL =  1.3197
      Cm = -0.0641     CD =  0.01802   =>   CDf =  0.00625    CDp =  0.01178

 Side 1  free  transition at x/c =  0.3262   50
 Side 2 forced transition at x/c =  1.0000   68

   4   rms: 0.7538E-01   max: -.1304E+01   T at    2  2   RLX: 0.384
       a =  9.500      CL =  1.3159
      Cm = -0.0632     CD =  0.01816   =>   CDf =  0.00607    CDp =  0.01209

 Side 1  free  transition at x/c =  0.3271   50
 Side 2 forced transition at x/c =  1.0000   68

   5   rms: 0.7845E-02   max: -.7659E-01   C at   50  1
       a =  9.500      CL =  1.3098
      Cm = -0.0617     CD =  0.01838   =>   CDf =  0.00606    CDp =  0.01232

 Side 1  free  transition at x/c =  0.3284   50
 Side 2 forced transition at x/c =  1.0000   68

   6   rms: 0.3008E-03   max: -.1834E-02   D at   84  1
       a =  9.500      CL =  1.3100
      Cm = -0.0617     CD =  0.01836   =>   CDf =  0.00603    CDp =  0.01233

 Side 1  free  transition at x/c =  0.3283   50
 Side 2 forced transition at x/c =  1.0000   68

   7   rms: 0.3980E-05   max: 0.2849E-04   C at   68  2
       a =  9.500      CL =  1.3100
      Cm = -0.0617     CD =  0.01836   =>   CDf =  0.00603    CDp =  0.01233
 plradd ia,ip,cpol           28           0  0.13092832    

 Point added to stored polar  1
 Point written to save file  goe504_Re500k.base.pol                          
 Dump file unspecified or not available
 Calculating wake trajectory ...
 Calculating source influence matrix ...

 Solving BL system ...

 Side 1  free  transition at x/c =  0.3283   50
 Side 2 forced transition at x/c =  1.0000   68

   1   rms: 0.6722E-01   max: 0.9784E-01   D at   79  2   RLX: 0.907
       a = 10.000      CL =  1.3408
      Cm = -0.0599     CD =  0.01932   =>   CDf =  0.00584    CDp =  0.01348

 Side 1  free  transition at x/c =  0.3091   50
 Side 2 forced transition at x/c =  1.0000   67

   2   rms: 0.1514E-01   max: -.1300E+00   C at   50  1
       a = 10.000      CL =  1.3330
      Cm = -0.0584     CD =  0.01994   =>   CDf =  0.00608    CDp =  0.01386

 Side 1  free  transition at x/c =  0.3106   50
 Side 2 forced transition at x/c =  1.0000   67

   3   rms: 0.1113E-02   max: 0.1412E-01   C at   50  1
       a = 10.000      CL =  1.3332
      Cm = -0.0584     CD =  0.01991   =>   CDf =  0.00602    CDp =  0.01389

 Side 1  free  transition at x/c =  0.3102   50
 Side 2 forced transition at x/c =  1.0000   67

   4   rms: 0.2202E-04   max: 0.1481E-03   D at   82  1
       a = 10.000      CL =  1.3332
      Cm = -0.0584     CD =  0.01992   =>   CDf =  0.00603    CDp =  0.01389
 plradd ia,ip,cpol           29           0  0.13092832    

 Point added to stored polar  1
 Point written to save file  goe504_Re500k.base.pol                          
 Dump file unspecified or not available

.OPERva   c>  
 Solving BL system ...

 Side 1  free  transition at x/c =  0.3102   50
 Side 2 forced transition at x/c =  1.0000   67

   1   rms: 0.4429E-06   max: -.3222E-05   D at   51  1
       a = 10.000      CL =  1.3332
      Cm = -0.0584     CD =  0.01992   =>   CDf =  0.00603    CDp =  0.01389
 plradd ia,ip,cpol           30         182  0.13092832    

 Point added to stored polar  1
 Point written to save file  goe504_Re500k.base.pol                          
 Dump file unspecified or not available
 Calculating wake trajectory ...
 Calculating source influence matrix ...

 Solving BL system ...

 Side 1  free  transition at x/c =  0.3102   50
 Side 2 forced transition at x/c =  1.0000   67

   1   rms: 0.3583E-01   max: 0.1545E+00   C at   50  1   RLX: 0.863
       a = 10.250      CL =  1.3444
      Cm = -0.0573     CD =  0.02062   =>   CDf =  0.00603    CDp =  0.01459

 Side 1  free  transition at x/c =  0.2985   49
 Side 2 forced transition at x/c =  1.0000   67

   2   rms: 0.8693E-02   max: -.7692E-01   C at   49  1
       a = 10.250      CL =  1.3403
      Cm = -0.0564     CD =  0.02101   =>   CDf =  0.00610    CDp =  0.01491

 Side 1  free  transition at x/c =  0.2995   49
 Side 2 forced transition at x/c =  1.0000   67

   3   rms: 0.2129E-03   max: 0.2937E-02   D at   81  1
       a = 10.250      CL =  1.3402
      Cm = -0.0564     CD =  0.02100   =>   CDf =  0.00607    CDp =  0.01493

 Side 1  free  transition at x/c =  0.2994   49
 Side 2 forced transition at x/c =  1.0000   67

   4   rms: 0.4677E-05   max: 0.4014E-04   D at   81  1
       a = 10.250      CL =  1.3402
      Cm = -0.0564     CD =  0.02100   =>   CDf =  0.00607    CDp =  0.01493
 plradd ia,ip,cpol           31           0  0.13092832    

 Point added to stored polar  1
 Point written to save file  goe504_Re500k.base.pol                          
 Dump file unspecified or not available
 Calculating wake trajectory ...
 Calculating source influence matrix ...

 Solving BL system ...

 Side 1  free  transition at x/c =  0.2994   49
 Side 2 forced transition at x/c =  1.0000   67

   1   rms: 0.4082E-01   max: -.1915E+00   D at   49  1   RLX: 0.835
       a = 10.500      CL =  1.3542
      Cm = -0.0557     CD =  0.02154   =>   CDf =  0.00607    CDp =  0.01547

 Side 1  free  transition at x/c =  0.2851   49
 Side 2 forced transition at x/c =  1.0000   67

   2   rms: 0.1310E-01   max: 0.7621E-01   D at   81  1
       a = 10.500      CL =  1.3460
      Cm = -0.0544     CD =  0.02224   =>   CDf =  0.00615    CDp =  0.01609

 Side 1  free  transition at x/c =  0.2852   49
 Side 2 forced transition at x/c =  1.0000   67

   3   rms: 0.3126E-03   max: 0.4696E-02   D at   80  1
       a = 10.500      CL =  1.3458
      Cm = -0.0544     CD =  0.02222   =>   CDf =  0.00612    CDp =  0.01610

 Side 1  free  transition at x/c =  0.2852   49
 Side 2 forced transition at x/c =  1.0000   67

   4   rms: 0.8991E-05   max: 0.1013E-03   D at   80  1
       a = 10.500      CL =  1.3458
      Cm = -0.0544     CD =  0.02222   =>   CDf =  0.00612    CDp =  0.01610
 plradd ia,ip,cpol           32           0  0.13092832    

 Point added to stored polar  1
 Point written to save file  goe504_Re500k.base.pol                          
 Dump file unspecified or not available
 Calculating wake trajectory ...
 Calculating source influence matrix ...

 Solving BL system ...

 Side 1  free  transition at x/c =  0.2852   49
 Side 2 forced transition at x/c =  1.0000   67

   1   rms: 0.4250E-01   max: -.2303E+00   D at   49  1   RLX: 0.785
       a = 10.750      CL =  1.3481
      Cm = -0.0527     CD =  0.02341   =>   CDf =  0.00612    CDp =  0.01729

 Side 1  free  transition at x/c =  0.2772   48
 Side 2 forced transition at x/c =  1.0000   67

   2   rms: 0.1270E-01   max: -.1258E+00   D at   49  1
       a = 10.750      CL =  1.3549
      Cm = -0.0528     CD =  0.02331   =>   CDf =  0.00610    CDp =  0.01721

 Side 1  free  transition at x/c =  0.2721   48
 Side 2 forced transition at x/c =  1.0000   67

   3   rms: 0.1737E-02   max: -.1264E-01   C at   48  1
       a = 10.750      CL =  1.3536
      Cm = -0.0527     CD =  0.02338   =>   CDf =  0.00614    CDp =  0.01724

 Side 1  free  transition at x/c =  0.2725   48
 Side 2 forced transition at x/c =  1.0000   67

   4   rms: 0.1850E-04   max: -.1781E-03   C at   67  2
       a = 10.750      CL =  1.3536
      Cm = -0.0527     CD =  0.02338   =>   CDf =  0.00613    CDp =  0.01724
 plradd ia,ip,cpol           33           0  3.30816023E-04

 Point added to stored polar  1
 Point written to save file  goe504_Re500k.base.pol                          
 Dump file unspecified or not available
 Calculating wake trajectory ...
 Calculating source influence matrix ...

 Solving BL system ...

 Side 1  free  transition at x/c =  0.2725   48
 Side 2 forced transition at x/c =  1.0000   67

   1   rms: 0.4512E-01   max: 0.3064E+00   C at   48  1   RLX: 0.757
       a = 11.000      CL =  1.3555
      Cm = -0.0511     CD =  0.02462   =>   CDf =  0.00593    CDp =  0.01869

 Side 1  free  transition at x/c =  0.2640   48
 Side 2 forced transition at x/c =  1.0000   66

   2   rms: 0.1368E-01   max: 0.1467E+00   C at   48  1
       a = 11.000      CL =  1.3600
      Cm = -0.0510     CD =  0.02470   =>   CDf =  0.00613    CDp =  0.01856

 Side 1  free  transition at x/c =  0.2577   48
 Side 2 forced transition at x/c =  1.0000   66

   3   rms: 0.2328E-02   max: -.2596E-01   C at   48  1
       a = 11.000      CL =  1.3586
      Cm = -0.0509     CD =  0.02477   =>   CDf =  0.00618    CDp =  0.01859

 Side 1  free  transition at x/c =  0.2585   48
 Side 2 forced transition at x/c =  1.0000   66

   4   rms: 0.3013E-04   max: -.2847E-03   C at   48  1
       a = 11.000      CL =  1.3586
      Cm = -0.0509     CD =  0.02477   =>   CDf =  0.00617    CDp =  0.01860
 plradd ia,ip,cpol           34           0  3.30816023E-04

 Point added to stored polar  1
 Point written to save file  goe504_Re500k.base.pol                          
 Dump file unspecified or not available
 Calculating wake trajectory ...
 Calculating source influence matrix ...

 Solving BL system ...

 Side 1  free  transition at x/c =  0.2585   48
 Side 2 forced transition at x/c =  1.0000   66

   1   rms: 0.5075E-01   max: 0.4436E+00   C at   48  1   RLX: 0.727
       a = 11.250      CL =  1.3584
      Cm = -0.0493     CD =  0.02619   =>   CDf =  0.00617    CDp =  0.02002

 Side 1  free  transition at x/c =  0.2465   47
 Side 2 forced transition at x/c =  1.0000   66

   2   rms: 0.1746E-01   max: 0.2163E+00   C at   47  1
       a = 11.250      CL =  1.3588
      Cm = -0.0488     CD =  0.02660   =>   CDf =  0.00621    CDp =  0.02039

 Side 1  free  transition at x/c =  0.2393   46
 Side 2 forced transition at x/c =  1.0000   66

   3   rms: 0.3058E-02   max: -.3270E-01   C at   46  1
       a = 11.250      CL =  1.3567
      Cm = -0.0486     CD =  0.02670   =>   CDf =  0.00628    CDp =  0.02042

 Side 1  free  transition at x/c =  0.2400   47
 Side 2 forced transition at x/c =  1.0000   66

   4   rms: 0.1533E-02   max: -.1906E-01   C at   47  1
       a = 11.250      CL =  1.3569
      Cm = -0.0486     CD =  0.02667   =>   CDf =  0.00627    CDp =  0.02039

 Side 1  free  transition at x/c =  0.2403   47
 Side 2 forced transition at x/c =  1.0000   66

   5   rms: 0.8659E-04   max: 0.1033E-02   C at   47  1
       a = 11.250      CL =  1.3570
      Cm = -0.0486     CD =  0.02667   =>   CDf =  0.00626    CDp =  0.02041
 plradd ia,ip,cpol           35           0  3.30816023E-04

 Point added to stored polar  1
 Point written to save file  goe504_Re500k.base.pol                          
 Dump file unspecified or not available
 Calculating wake trajectory ...
 Calculating source influence matrix ...

 Solving BL system ...

 Side 1  free  transition at x/c =  0.2402   47
 Side 2 forced transition at x/c =  1.0000   66

   1   rms: 0.5581E-01   max: 0.3869E+00   C at   47  1   RLX: 0.689
       a = 11.500      CL =  1.3527
      Cm = -0.0469     CD =  0.02840   =>   CDf =  0.00627    CDp =  0.02214

 Side 1  free  transition at x/c =  0.2286   46
 Side 2 forced transition at x/c =  1.0000   66

   2   rms: 0.2265E-01   max: 0.3045E+00   C at   46  1
       a = 11.500      CL =  1.3539
      Cm = -0.0464     CD =  0.02884   =>   CDf =  0.00629    CDp =  0.02255

 Side 1  free  transition at x/c =  0.2161   45
 Side 2 forced transition at x/c =  1.0000   66

   3   rms: 0.3187E-02   max: -.5513E-01   C at   45  1
       a = 11.500      CL =  1.3531
      Cm = -0.0463     CD =  0.02884   =>   CDf =  0.00638    CDp =  0.02245

 Side 1  free  transition at x/c =  0.2175   45
 Side 2 forced transition at x/c =  1.0000   66

   4   rms: 0.9438E-04   max: -.1904E-02   C at   45  1
       a = 11.500      CL =  1.3531
      Cm = -0.0463     CD =  0.02884   =>   CDf =  0.00637    CDp =  0.02247
 plradd ia,ip,cpol           36           0  3.30816023E-04

 Point added to stored polar  1
 Point written to save file  goe504_Re500k.base.pol                          
 Dump file unspecified or not available
 Calculating wake trajectory ...
 Calculating source influence matrix ...

 Solving BL system ...

 Side 1  free  transition at x/c =  0.2176   45
 Side 2 forced transition at x/c =  1.0000   66

   1   rms: 0.6333E-01   max: 0.9028E+00   C at   45  1   RLX: 0.659
       a = 11.750      CL =  1.3493
      Cm = -0.0449     CD =  0.03057   =>   CDf =  0.00637    CDp =  0.02420

 Side 1  free  transition at x/c =  0.2010   44
 Side 2 forced transition at x/c =  1.0000   66

   2   rms: 0.2302E-01   max: 0.3019E+00   C at   44  1
       a = 11.750      CL =  1.3448
      Cm = -0.0440     CD =  0.03157   =>   CDf =  0.00647    CDp =  0.02510

 Side 1  free  transition at x/c =  0.1939   43
 Side 2 forced transition at x/c =  1.0000   66

   3   rms: 0.9593E-03   max: 0.6774E-02   D at   75  1
       a = 11.750      CL =  1.3444
      Cm = -0.0439     CD =  0.03148   =>   CDf =  0.00651    CDp =  0.02498

 Side 1  free  transition at x/c =  0.1941   43
 Side 2 forced transition at x/c =  1.0000   66

   4   rms: 0.4142E-04   max: -.7916E-03   C at   43  1
       a = 11.750      CL =  1.3444
      Cm = -0.0439     CD =  0.03148   =>   CDf =  0.00650    CDp =  0.02497
 plradd ia,ip,cpol           37           0  3.30816023E-04

 Point added to stored polar  1
 Point written to save file  goe504_Re500k.base.pol                          
 Dump file unspecified or not available
 Calculating wake trajectory ...
 Calculating source influence matrix ...

 Solving BL system ...

 Side 1  free  transition at x/c =  0.1941   43
 Side 2 forced transition at x/c =  1.0000   66

   1   rms: 0.7332E-01   max: 0.1306E+01   C at   43  1   RLX: 0.626
       a = 12.000      CL =  1.3407
      Cm = -0.0427     CD =  0.03324   =>   CDf =  0.00651    CDp =  0.02673

 Side 1  free  transition at x/c =  0.1626   41
 Side 2 forced transition at x/c =  1.0000   66

   2   rms: 0.2433E-01   max: 0.1460E+00   D at   75  1
       a = 12.000      CL =  1.3285
      Cm = -0.0414     CD =  0.03501   =>   CDf =  0.00674    CDp =  0.02827

 Side 1  free  transition at x/c =  0.1618   41
 Side 2 forced transition at x/c =  1.0000   66

   3   rms: 0.1555E-02   max: -.2477E-01   C at   41  1
       a = 12.000      CL =  1.3282
      Cm = -0.0413     CD =  0.03484   =>   CDf =  0.00669    CDp =  0.02815

 Side 1  free  transition at x/c =  0.1623   41
 Side 2 forced transition at x/c =  1.0000   66

   4   rms: 0.2821E-04   max: 0.5449E-03   C at   41  1
       a = 12.000      CL =  1.3282
      Cm = -0.0413     CD =  0.03484   =>   CDf =  0.00668    CDp =  0.02815
 plradd ia,ip,cpol           38           0 -5.01162212E-05

 Point added to stored polar  1
 Point written to save file  goe504_Re500k.base.pol                          
 Dump file unspecified or not available
 Calculating wake trajectory ...
 Calculating source influence matrix ...

 Solving BL system ...

 Side 1  free  transition at x/c =  0.1623   41
 Side 2 forced transition at x/c =  1.0000   66

   1   rms: 0.9968E-01   max: 0.1959E+01   C at   41  1   RLX: 0.584
       a = 12.250      CL =  1.3180
      Cm = -0.0400     CD =  0.03725   =>   CDf =  0.00669    CDp =  0.03056

 Side 1  free  transition at x/c =  0.0256   27
 Side 2 forced transition at x/c =  1.0000   66

   2   rms: 0.3662E+00   max: -.8375E+01   C at   27  1   RLX: 0.060
       a = 12.250      CL =  1.3377
      Cm = -0.0548     CD =  0.03817   =>   CDf =  0.00777    CDp =  0.03040

 Side 1  free  transition at x/c =  0.0274   28
 Side 2 forced transition at x/c =  1.0000   66

   3   rms: 0.3596E+00   max: -.8852E+01   C at   28  1   RLX: 0.056
       a = 12.250      CL =  1.3333
      Cm = -0.0540     CD =  0.03838   =>   CDf =  0.00775    CDp =  0.03063

 Side 1  free  transition at x/c =  0.0306   28
 Side 2 forced transition at x/c =  1.0000   66

   4   rms: 0.6244E+00   max: -.1430E+02   C at   28  1   RLX: 0.035
       a = 12.250      CL =  1.3312
      Cm = -0.0532     CD =  0.03845   =>   CDf =  0.00771    CDp =  0.03075

 Side 1  free  transition at x/c =  0.0340   29
 Side 2 forced transition at x/c =  1.0000   66

   5   rms: 0.6528E+00   max: -.1583E+02   C at   29  1   RLX: 0.032
       a = 12.250      CL =  1.3298
      Cm = -0.0527     CD =  0.03848   =>   CDf =  0.00768    CDp =  0.03080

 Side 1  free  transition at x/c =  0.0389   30
 Side 2 forced transition at x/c =  1.0000   66

   6   rms: 0.3943E+00   max: -.9925E+01   C at   30  1   RLX: 0.050
       a = 12.250      CL =  1.3281
      Cm = -0.0517     CD =  0.03850   =>   CDf =  0.00765    CDp =  0.03085

 Side 1  free  transition at x/c =  0.0455   30
 Side 2 forced transition at x/c =  1.0000   66

   7   rms: 0.6396E+00   max: -.1511E+02   C at   30  1   RLX: 0.033
       a = 12.250      CL =  1.3271
      Cm = -0.0512     CD =  0.03851   =>   CDf =  0.00761    CDp =  0.03090

 Side 1  free  transition at x/c =  0.0491   31
 Side 2 forced transition at x/c =  1.0000   66

   8   rms: 0.4044E+00   max: -.1016E+02   C at   31  1   RLX: 0.049
       a = 12.250      CL =  1.3259
      Cm = -0.0505     CD =  0.03852   =>   CDf =  0.00759    CDp =  0.03093

 Side 1  free  transition at x/c =  0.0523   31
 Side 2 forced transition at x/c =  1.0000   66

   9   rms: 0.5193E+00   max: -.1252E+02   C at   31  1   RLX: 0.040
       a = 12.250      CL =  1.3253
      Cm = -0.0502     CD =  0.03855   =>   CDf =  0.00756    CDp =  0.03099

 Side 1  free  transition at x/c =  0.0540   31
 Side 2 forced transition at x/c =  1.0000   66

  10   rms: 0.5036E+00   max: -.1187E+02   C at   31  1   RLX: 0.042
       a = 12.250      CL =  1.3246
      Cm = -0.0499     CD =  0.03859   =>   CDf =  0.00755    CDp =  0.03104

 Side 1  free  transition at x/c =  0.0542   31
 Side 2 forced transition at x/c =  1.0000   66

  11   rms: 0.4709E+00   max: -.1106E+02   C at   31  1   RLX: 0.045
       a = 12.250      CL =  1.3239
      Cm = -0.0497     CD =  0.03866   =>   CDf =  0.00755    CDp =  0.03111

 Side 1  free  transition at x/c =  0.0574   32
 Side 2 forced transition at x/c =  1.0000   66

  12   rms: 0.2801E+00   max: -.6985E+01   C at   32  1   RLX: 0.072
       a = 12.250      CL =  1.3220
      Cm = -0.0489     CD =  0.03871   =>   CDf =  0.00752    CDp =  0.03120

 Side 1  free  transition at x/c =  0.0623   32
 Side 2 forced transition at x/c =  1.0000   66

  13   rms: 0.3602E+00   max: -.8434E+01   C at   32  1   RLX: 0.059
       a = 12.250      CL =  1.3205
      Cm = -0.0482     CD =  0.03876   =>   CDf =  0.00748    CDp =  0.03129

 Side 1  free  transition at x/c =  0.0658   33
 Side 2 forced transition at x/c =  1.0000   66

  14   rms: 0.2145E+00   max: -.5333E+01   C at   33  1   RLX: 0.094
       a = 12.250      CL =  1.3184
      Cm = -0.0473     CD =  0.03883   =>   CDf =  0.00744    CDp =  0.03139

 Side 1  free  transition at x/c =  0.0720   33
 Side 2 forced transition at x/c =  1.0000   66

  15   rms: 0.2873E+00   max: -.6730E+01   C at   33  1   RLX: 0.074
       a = 12.250      CL =  1.3169
      Cm = -0.0466     CD =  0.03889   =>   CDf =  0.00739    CDp =  0.03149

 Side 1  free  transition at x/c =  0.0764   34
 Side 2 forced transition at x/c =  1.0000   66

  16   rms: 0.1556E+00   max: -.3861E+01   C at   34  1   RLX: 0.130
       a = 12.250      CL =  1.3145
      Cm = -0.0454     CD =  0.03896   =>   CDf =  0.00736    CDp =  0.03160

 Side 1  free  transition at x/c =  0.0847   35
 Side 2 forced transition at x/c =  1.0000   66

  17   rms: 0.9626E-01   max: -.2291E+01   C at   35  1   RLX: 0.218
       a = 12.250      CL =  1.3111
      Cm = -0.0437     CD =  0.03906   =>   CDf =  0.00730    CDp =  0.03177

 Side 1  free  transition at x/c =  0.0930   35
 Side 2 forced transition at x/c =  1.0000   66

  18   rms: 0.1331E+00   max: -.3254E+01   C at   35  1   RLX: 0.154
       a = 12.250      CL =  1.3092
      Cm = -0.0430     CD =  0.03914   =>   CDf =  0.00722    CDp =  0.03191

 Side 1  free  transition at x/c =  0.0988   36
 Side 2 forced transition at x/c =  1.0000   66

  19   rms: 0.6647E-01   max: -.1621E+01   C at   36  1   RLX: 0.308
       a = 12.250      CL =  1.3060
      Cm = -0.0414     CD =  0.03922   =>   CDf =  0.00717    CDp =  0.03206

 Side 1  free  transition at x/c =  0.1065   37
 Side 2 forced transition at x/c =  1.0000   66

  20   rms: 0.3345E-01   max: -.7513E+00   C at   37  1   RLX: 0.666
       a = 12.250      CL =  1.3016
      Cm = -0.0393     CD =  0.03936   =>   CDf =  0.00709    CDp =  0.03227

 Side 1  free  transition at x/c =  0.1152   37
 Side 2 forced transition at x/c =  1.0000   66

  21   rms: 0.2469E-01   max: -.5995E+00   C at   37  1   RLX: 0.834
       a = 12.250      CL =  1.2998
      Cm = -0.0385     CD =  0.03943   =>   CDf =  0.00700    CDp =  0.03243

 Side 1  free  transition at x/c =  0.1216   38
 Side 2 forced transition at x/c =  1.0000   66

  22   rms: 0.5318E-03   max: 0.7299E-02   D at   37  1
       a = 12.250      CL =  1.2995
      Cm = -0.0383     CD =  0.03945   =>   CDf =  0.00694    CDp =  0.03251

 Side 1  free  transition at x/c =  0.1216   38
 Side 2 forced transition at x/c =  1.0000   66

  23   rms: 0.1201E-04   max: -.2795E-03   C at   38  1
       a = 12.250      CL =  1.2995
      Cm = -0.0383     CD =  0.03945   =>   CDf =  0.00694    CDp =  0.03251
 plradd ia,ip,cpol           39           0  3.30816023E-04

 Point added to stored polar  1
 Point written to save file  goe504_Re500k.base.pol                          
 Dump file unspecified or not available
 Calculating wake trajectory ...
 Calculating source influence matrix ...

 Solving BL system ...

 Side 1  free  transition at x/c =  0.1216   38
 Side 2 forced transition at x/c =  1.0000   66

   1   rms: 0.1023E+00   max: 0.2044E+01   C at   38  1   RLX: 0.545
       a = 12.500      CL =  1.2882
      Cm = -0.0372     CD =  0.04203   =>   CDf =  0.00694    CDp =  0.03509

 Side 1  free  transition at x/c =  0.1089   37
 Side 2 forced transition at x/c =  1.0000   66

   2   rms: 0.5412E-01   max: 0.1122E+01   C at   37  1
       a = 12.500      CL =  1.2785
      Cm = -0.0363     CD =  0.04395   =>   CDf =  0.00698    CDp =  0.03697

 Side 1  free  transition at x/c =  0.0928   35
 Side 2 forced transition at x/c =  1.0000   66

   3   rms: 0.3466E-02   max: -.5823E-01   C at   35  1
[...]
 Side 2 forced transition at x/c =  1.0000   66

   2   rms: 0.3172E-01   max: 0.6007E+00   C at   27  1
       a = 13.250      CL =  1.2235
      Cm = -0.0322     CD =  0.05712   =>   CDf =  0.00727    CDp =  0.04985

 Side 1  free  transition at x/c =  0.0207   26
 Side 2 forced transition at x/c =  1.0000   66

   3   rms: 0.4171E-02   max: -.7567E-01   C at   26  1
       a = 13.250      CL =  1.2238
      Cm = -0.0321     CD =  0.05677   =>   CDf =  0.00724    CDp =  0.04953

 Side 1  free  transition at x/c =  0.0208   26
 Side 2 forced transition at x/c =  1.0000   66

   4   rms: 0.9910E-04   max: 0.2187E-02   C at   26  1
       a = 13.250      CL =  1.2238
      Cm = -0.0321     CD =  0.05677   =>   CDf =  0.00725    CDp =  0.04953
 plradd ia,ip,cpol           43           0 -5.01162212E-05

 Point added to stored polar  1
 Point written to save file  goe504_Re500k.base.pol                          
 Dump file unspecified or not available
 Calculating wake trajectory ...
 Calculating source influence matrix ...

 Solving BL system ...

 Side 1  free  transition at x/c =  0.0208   26
 Side 2 forced transition at x/c =  1.0000   66

   1   rms: 0.4119E-01   max: 0.5404E+00   C at   26  1   RLX: 0.459
       a = 13.500      CL =  1.2251
      Cm = -0.0320     CD =  0.05819   =>   CDf =  0.00725    CDp =  0.05095

 Side 1  free  transition at x/c =  0.0200   26
 Side 2 forced transition at x/c =  1.0000   66

   2   rms: 0.1997E-01   max: 0.1446E+00   C at   26  1
       a = 13.500      CL =  1.2256
      Cm = -0.0318     CD =  0.05973   =>   CDf =  0.00721    CDp =  0.05251

 Side 1  free  transition at x/c =  0.0192   26
 Side 2 forced transition at x/c =  1.0000   66

   3   rms: 0.2174E-02   max: 0.1154E-01   D at   65  1
       a = 13.500      CL =  1.2239
      Cm = -0.0316     CD =  0.05958   =>   CDf =  0.00717    CDp =  0.05241

 Side 1  free  transition at x/c =  0.0192   26
 Side 2 forced transition at x/c =  1.0000   66

   4   rms: 0.1715E-03   max: 0.9368E-03   D at   80  2
       a = 13.500      CL =  1.2237
      Cm = -0.0316     CD =  0.05956   =>   CDf =  0.00717    CDp =  0.05239

 Side 1  free  transition at x/c =  0.0192   26
 Side 2 forced transition at x/c =  1.0000   66

   5   rms: 0.7872E-05   max: 0.5028E-04   D at   80  2
       a = 13.500      CL =  1.2237
      Cm = -0.0316     CD =  0.05956   =>   CDf =  0.00717    CDp =  0.05239
 plradd ia,ip,cpol           44           0 -5.01162212E-05

 Point added to stored polar  1
 Point written to save file  goe504_Re500k.base.pol                          
 Dump file unspecified or not available
 Calculating wake trajectory ...
 Calculating source influence matrix ...

 Solving BL system ...

 Side 1  free  transition at x/c =  0.0192   26
 Side 2 forced transition at x/c =  1.0000   66

   1   rms: 0.3267E-01   max: 0.1239E+00   C at   26  1   RLX: 0.447
       a = 13.750      CL =  1.2253
      Cm = -0.0316     CD =  0.06092   =>   CDf =  0.00717    CDp =  0.05375

 Side 1  free  transition at x/c =  0.0189   26
 Side 2 forced transition at x/c =  1.0000   66

   2   rms: 0.1823E-01   max: 0.7314E-01   D at   64  1
       a = 13.750      CL =  1.2261
      Cm = -0.0315     CD =  0.06253   =>   CDf =  0.00683    CDp =  0.05569

 Side 1  free  transition at x/c =  0.0185   27
 Side 2 forced transition at x/c =  1.0000   65

   3   rms: 0.3004E-02   max: -.4242E-01   T at    2  1
       a = 13.750      CL =  1.2247
      Cm = -0.0313     CD =  0.06229   =>   CDf =  0.00709    CDp =  0.05521

 Side 1  free  transition at x/c =  0.0185   27
 Side 2 forced transition at x/c =  1.0000   65

   4   rms: 0.8583E-03   max: -.1035E-01   D at    4  1
       a = 13.750      CL =  1.2246
      Cm = -0.0313     CD =  0.06227   =>   CDf =  0.00708    CDp =  0.05519

 Side 1  free  transition at x/c =  0.0185   27
 Side 2 forced transition at x/c =  1.0000   65

   5   rms: 0.2830E-05   max: -.1626E-04   C at   65  2
       a = 13.750      CL =  1.2246
      Cm = -0.0313     CD =  0.06227   =>   CDf =  0.00708    CDp =  0.05519
 plradd ia,ip,cpol           45           0 -5.01162212E-05

 Point added to stored polar  1
 Point written to save file  goe504_Re500k.base.pol                          
 Dump file unspecified or not available
 Calculating wake trajectory ...
 Calculating source influence matrix ...

 Solving BL system ...

 Side 1  free  transition at x/c =  0.0185   27
 Side 2 forced transition at x/c =  1.0000   65

   1   rms: 0.3296E-01   max: 0.1231E+00   D at   64  1   RLX: 0.436
       a = 14.000      CL =  1.2260
      Cm = -0.0313     CD =  0.06363   =>   CDf =  0.00709    CDp =  0.05655

 Side 1  free  transition at x/c =  0.0181   27
 Side 2 forced transition at x/c =  1.0000   65

   2   rms: 0.1954E-01   max: 0.8448E-01   D at   65  1
       a = 14.000      CL =  1.2256
      Cm = -0.0312     CD =  0.06548   =>   CDf =  0.00705    CDp =  0.05843

 Side 1  free  transition at x/c =  0.0176   27
 Side 2 forced transition at x/c =  1.0000   65

   3   rms: 0.2797E-02   max: 0.1122E-01   D at   79  2
       a = 14.000      CL =  1.2234
      Cm = -0.0310     CD =  0.06532   =>   CDf =  0.00699    CDp =  0.05832

 Side 1  free  transition at x/c =  0.0176   27
 Side 2 forced transition at x/c =  1.0000   65

   4   rms: 0.1783E-03   max: -.1011E-02   C at   65  2
       a = 14.000      CL =  1.2233
      Cm = -0.0310     CD =  0.06528   =>   CDf =  0.00699    CDp =  0.05829

 Side 1  free  transition at x/c =  0.0176   27
 Side 2 forced transition at x/c =  1.0000   65

   5   rms: 0.5178E-05   max: -.4138E-04   C at   65  2
       a = 14.000      CL =  1.2233
      Cm = -0.0310     CD =  0.06528   =>   CDf =  0.00699    CDp =  0.05829
 plradd ia,ip,cpol           46           0 -5.01162212E-05

 Point added to stored polar  1
 Point written to save file  goe504_Re500k.base.pol                          
 Dump file unspecified or not available
 Calculating wake trajectory ...
 Calculating source influence matrix ...

 Solving BL system ...

 Side 1  free  transition at x/c =  0.0176   27
 Side 2 forced transition at x/c =  1.0000   65

   1   rms: 0.3799E-01   max: 0.1517E+00   D at   63  1   RLX: 0.423
       a = 14.250      CL =  1.2228
      Cm = -0.0310     CD =  0.06693   =>   CDf =  0.00700    CDp =  0.05994

 Side 1  free  transition at x/c =  0.0172   26
 Side 2 forced transition at x/c =  1.0000   65

   2   rms: 0.1879E-01   max: -.9910E-01   C at   26  1
       a = 14.250      CL =  1.2243
      Cm = -0.0310     CD =  0.06852   =>   CDf =  0.00694    CDp =  0.06158

 Side 1  free  transition at x/c =  0.0169   26
 Side 2 forced transition at x/c =  1.0000   65

   3   rms: 0.2817E-02   max: 0.1646E-01   D at   64  1
       a = 14.250      CL =  1.2221
      Cm = -0.0308     CD =  0.06841   =>   CDf =  0.00689    CDp =  0.06151

 Side 1  free  transition at x/c =  0.0169   26
 Side 2 forced transition at x/c =  1.0000   65

   4   rms: 0.2411E-03   max: 0.1301E-02   D at   80  2
       a = 14.250      CL =  1.2219
      Cm = -0.0308     CD =  0.06837   =>   CDf =  0.00689    CDp =  0.06148

 Side 1  free  transition at x/c =  0.0169   26
 Side 2 forced transition at x/c =  1.0000   65

   5   rms: 0.1163E-04   max: -.7812E-04   C at   65  2
       a = 14.250      CL =  1.2219
      Cm = -0.0308     CD =  0.06836   =>   CDf =  0.00689    CDp =  0.06147
 plradd ia,ip,cpol           47           0 -5.01162212E-05

 Point added to stored polar  1
 Point written to save file  goe504_Re500k.base.pol                          
 Dump file unspecified or not available
 Calculating wake trajectory ...
 Calculating source influence matrix ...

 Solving BL system ...

 Side 1  free  transition at x/c =  0.0169   26
 Side 2 forced transition at x/c =  1.0000   65

   1   rms: 0.3130E-01   max: 0.1241E+00   D at   62  1   RLX: 0.413
       a = 14.500      CL =  1.2230
      Cm = -0.0309     CD =  0.06976   =>   CDf =  0.00689    CDp =  0.06286

 Side 1  free  transition at x/c =  0.0167   26
 Side 2 forced transition at x/c =  1.0000   65

   2   rms: 0.1835E-01   max: 0.7586E-01   D at   63  1
       a = 14.500      CL =  1.2235
      Cm = -0.0309     CD =  0.07161   =>   CDf =  0.00685    CDp =  0.06475

 Side 1  free  transition at x/c =  0.0163   26
 Side 2 forced transition at x/c =  1.0000   65

   3   rms: 0.2965E-02   max: 0.1512E-01   D at   63  1
       a = 14.500      CL =  1.2213
      Cm = -0.0307     CD =  0.07145   =>   CDf =  0.00680    CDp =  0.06465

 Side 1  free  transition at x/c =  0.0164   26
 Side 2 forced transition at x/c =  1.0000   65

   4   rms: 0.2330E-03   max: 0.1274E-02   D at   80  2
       a = 14.500      CL =  1.2211
      Cm = -0.0307     CD =  0.07141   =>   CDf =  0.00680    CDp =  0.06462

 Side 1  free  transition at x/c =  0.0164   26
 Side 2 forced transition at x/c =  1.0000   65

   5   rms: 0.1185E-04   max: 0.7954E-04   D at   80  2
       a = 14.500      CL =  1.2211
      Cm = -0.0307     CD =  0.07141   =>   CDf =  0.00680    CDp =  0.06462
 plradd ia,ip,cpol           48           0 -5.01162212E-05

 Point added to stored polar  1
 Point written to save file  goe504_Re500k.base.pol                          
 Dump file unspecified or not available
 Calculating wake trajectory ...
 Calculating source influence matrix ...

 Solving BL system ...

 Side 1  free  transition at x/c =  0.0164   26
 Side 2 forced transition at x/c =  1.0000   65

   1   rms: 0.3297E-01   max: 0.1433E+00   D at   62  1   RLX: 0.402
       a = 14.750      CL =  1.2211
      Cm = -0.0308     CD =  0.07299   =>   CDf =  0.00680    CDp =  0.06619

 Side 1  free  transition at x/c =  0.0162   26
 Side 2 forced transition at x/c =  1.0000   65

   2   rms: 0.1973E-01   max: 0.8776E-01   D at   62  1
       a = 14.750      CL =  1.2202
      Cm = -0.0308     CD =  0.07514   =>   CDf =  0.00676    CDp =  0.06838

 Side 1  free  transition at x/c =  0.0159   26
 Side 2 forced transition at x/c =  1.0000   65

   3   rms: 0.2415E-02   max: 0.1218E-01   D at   80  2
       a = 14.750      CL =  1.2182
      Cm = -0.0306     CD =  0.07481   =>   CDf =  0.00670    CDp =  0.06811

 Side 1  free  transition at x/c =  0.0159   26
 Side 2 forced transition at x/c =  1.0000   65

   4   rms: 0.1815E-03   max: 0.1956E-02   D at   80  2
       a = 14.750      CL =  1.2181
      Cm = -0.0306     CD =  0.07477   =>   CDf =  0.00670    CDp =  0.06808

 Side 1  free  transition at x/c =  0.0159   26
 Side 2 forced transition at x/c =  1.0000   65

   5   rms: 0.6858E-05   max: 0.6644E-04   D at   80  2
       a = 14.750      CL =  1.2181
      Cm = -0.0306     CD =  0.07477   =>   CDf =  0.00670    CDp =  0.06808
 plradd ia,ip,cpol           49           0 -5.01162212E-05

 Point added to stored polar  1
 Point written to save file  goe504_Re500k.base.pol                          
 Dump file unspecified or not available
 Calculating wake trajectory ...
 Calculating source influence matrix ...

 Solving BL system ...

 Side 1  free  transition at x/c =  0.0159   26
 Side 2 forced transition at x/c =  1.0000   65

   1   rms: 0.3182E-01   max: 0.1371E+00   D at   61  1   RLX: 0.392
       a = 15.000      CL =  1.2183
      Cm = -0.0308     CD =  0.07629   =>   CDf =  0.00670    CDp =  0.06958

 Side 1  free  transition at x/c =  0.0157   26
 Side 2 forced transition at x/c =  1.0000   65

   2   rms: 0.2032E-01   max: 0.9653E-01   D at   62  1
       a = 15.000      CL =  1.2165
      Cm = -0.0309     CD =  0.07870   =>   CDf =  0.00666    CDp =  0.07203

 Side 1  free  transition at x/c =  0.0154   26
 Side 2 forced transition at x/c =  1.0000   65

   3   rms: 0.2689E-02   max: 0.1324E-01   D at   80  2
       a = 15.000      CL =  1.2144
      Cm = -0.0307     CD =  0.07830   =>   CDf =  0.00661    CDp =  0.07170

 Side 1  free  transition at x/c =  0.0154   26
 Side 2 forced transition at x/c =  1.0000   65

   4   rms: 0.1299E-03   max: -.1100E-02   C at   65  2
       a = 15.000      CL =  1.2143
      Cm = -0.0306     CD =  0.07826   =>   CDf =  0.00661    CDp =  0.07166

 Side 1  free  transition at x/c =  0.0154   26
 Side 2 forced transition at x/c =  1.0000   65

   5   rms: 0.1592E-05   max: -.1213E-04   C at   65  2
       a = 15.000      CL =  1.2143
      Cm = -0.0306     CD =  0.07826   =>   CDf =  0.00661    CDp =  0.07166
 plradd ia,ip,cpol           50           0 -5.01162212E-05

 Point added to stored polar  1
 Point written to save file  goe504_Re500k.base.pol                          
 Dump file unspecified or not available
 Calculating wake trajectory ...
 Calculating source influence matrix ...

 Solving BL system ...

 Side 1  free  transition at x/c =  0.0154   26
 Side 2 forced transition at x/c =  1.0000   65

   1   rms: 0.3177E-01   max: 0.1415E+00   D at   60  1   RLX: 0.382
       a = 15.250      CL =  1.2142
      Cm = -0.0308     CD =  0.07983   =>   CDf =  0.00661    CDp =  0.07322

 Side 1  free  transition at x/c =  0.0153   26
 Side 2 forced transition at x/c =  1.0000   65

   2   rms: 0.2028E-01   max: 0.9550E-01   D at   61  1
       a = 15.250      CL =  1.2123
      Cm = -0.0310     CD =  0.08231   =>   CDf =  0.00657    CDp =  0.07574

 Side 1  free  transition at x/c =  0.0152   26
 Side 2 forced transition at x/c =  1.0000   65

   3   rms: 0.3091E-02   max: 0.1621E-01   D at   61  1
       a = 15.250      CL =  1.2100
      Cm = -0.0308     CD =  0.08198   =>   CDf =  0.00651    CDp =  0.07546

 Side 1  free  transition at x/c =  0.0153   26
 Side 2 forced transition at x/c =  1.0000   65

   4   rms: 0.2408E-03   max: -.1625E-02   C at   65  2
       a = 15.250      CL =  1.2098
      Cm = -0.0307     CD =  0.08191   =>   CDf =  0.00651    CDp =  0.07540

 Side 1  free  transition at x/c =  0.0153   26
 Side 2 forced transition at x/c =  1.0000   65

   5   rms: 0.6021E-05   max: -.6893E-04   C at   65  2
       a = 15.250      CL =  1.2098
      Cm = -0.0307     CD =  0.08191   =>   CDf =  0.00651    CDp =  0.07540
 plradd ia,ip,cpol           51           0 -5.01162212E-05

 Point added to stored polar  1
 Point written to save file  goe504_Re500k.base.pol                          
 Dump file unspecified or not available
 Calculating wake trajectory ...
 Calculating source influence matrix ...

 Solving BL system ...

 Side 1  free  transition at x/c =  0.0153   26
 Side 2 forced transition at x/c =  1.0000   65

   1   rms: 0.3539E-01   max: 0.1848E+00   T at   26  1   RLX: 0.371
       a = 15.500      CL =  1.2085
      Cm = -0.0310     CD =  0.08367   =>   CDf =  0.00651    CDp =  0.07716

 Side 1  free  transition at x/c =  0.0150   26
 Side 2 forced transition at x/c =  1.0000   65

   2   rms: 0.2334E-01   max: 0.1114E+00   D at   60  1
       a = 15.500      CL =  1.2041
      Cm = -0.0313     CD =  0.08665   =>   CDf =  0.00648    CDp =  0.08017

 Side 1  free  transition at x/c =  0.0146   26
 Side 2 forced transition at x/c =  1.0000   65

   3   rms: 0.5224E-02   max: 0.3440E-01   D at   60  1
       a = 15.500      CL =  1.2005
      Cm = -0.0311     CD =  0.08642   =>   CDf =  0.00642    CDp =  0.08000

 Side 1  free  transition at x/c =  0.0146   26
 Side 2 forced transition at x/c =  1.0000   65

   4   rms: 0.4394E-03   max: -.2881E-02   C at   65  2
       a = 15.500      CL =  1.2001
      Cm = -0.0310     CD =  0.08629   =>   CDf =  0.00641    CDp =  0.07988

 Side 1  free  transition at x/c =  0.0146   26
 Side 2 forced transition at x/c =  1.0000   65

   5   rms: 0.1425E-04   max: -.1726E-03   C at   65  2
       a = 15.500      CL =  1.2001
      Cm = -0.0310     CD =  0.08628   =>   CDf =  0.00641    CDp =  0.07987
 plradd ia,ip,cpol           52           0 -5.01162212E-05

 Point added to stored polar  1
 Point written to save file  goe504_Re500k.base.pol                          
 Dump file unspecified or not available
 Calculating wake trajectory ...
 Calculating source influence matrix ...

 Solving BL system ...

 Side 1  free  transition at x/c =  0.0146   26
 Side 2 forced transition at x/c =  1.0000   65

   1   rms: 0.3370E-01   max: 0.1668E+00   D at   59  1   RLX: 0.361
       a = 15.750      CL =  1.1986
      Cm = -0.0313     CD =  0.08809   =>   CDf =  0.00641    CDp =  0.08167

 Side 1  free  transition at x/c =  0.0145   26
 Side 2 forced transition at x/c =  1.0000   65

   2   rms: 0.2170E-01   max: 0.1085E+00   D at   59  1
       a = 15.750      CL =  1.1950
      Cm = -0.0316     CD =  0.09102   =>   CDf =  0.00638    CDp =  0.08465

 Side 1  free  transition at x/c =  0.0143   26
 Side 2 forced transition at x/c =  1.0000   65

   3   rms: 0.3844E-02   max: 0.2556E-01   D at   59  1
       a = 15.750      CL =  1.1923
      Cm = -0.0314     CD =  0.09063   =>   CDf =  0.00631    CDp =  0.08432

 Side 1  free  transition at x/c =  0.0144   26
 Side 2 forced transition at x/c =  1.0000   65

   4   rms: 0.3053E-03   max: 0.2213E-02   D at   81  2
       a = 15.750      CL =  1.1920
      Cm = -0.0313     CD =  0.09053   =>   CDf =  0.00631    CDp =  0.08422

 Side 1  free  transition at x/c =  0.0144   26
 Side 2 forced transition at x/c =  1.0000   65

   5   rms: 0.8880E-05   max: 0.9895E-04   D at   81  2
       a = 15.750      CL =  1.1920
      Cm = -0.0313     CD =  0.09052   =>   CDf =  0.00631    CDp =  0.08421
 plradd ia,ip,cpol           53           0 -5.01162212E-05

 Point added to stored polar  1
 Point written to save file  goe504_Re500k.base.pol                          
 Dump file unspecified or not available
 Calculating wake trajectory ...
 Calculating source influence matrix ...

 Solving BL system ...

 Side 1  free  transition at x/c =  0.0144   26
 Side 2 forced transition at x/c =  1.0000   65

   1   rms: 0.3338E-01   max: 0.1707E+00   D at   58  1   RLX: 0.351
       a = 16.000      CL =  1.1905
      Cm = -0.0317     CD =  0.09236   =>   CDf =  0.00599    CDp =  0.08638

 Side 1  free  transition at x/c =  0.0143   27
 Side 2 forced transition at x/c =  1.0000   64
 idif Ue xi dudx           1  8.08159783E-02  6.17218018E-03   13.093587    
 Uenew xinew           2  9.20917519E-05  7.03334808E-06

   2   rms: 0.1166E+01   max: -.2080E+02   D at    2  1   RLX: 0.024
       a = 16.000      CL =  1.1906
      Cm = -0.0318     CD =  0.09181   =>   CDf =  0.00656    CDp =  0.08525

 Side 1  free  transition at x/c =  0.0143   26
 Side 2 forced transition at x/c =  1.0000   65

   3   rms: 0.1859E+00   max: 0.3280E+01   D at    2  2   RLX: 0.367
       a = 16.000      CL =  1.1893
      Cm = -0.0319     CD =  0.09310   =>   CDf =  0.00595    CDp =  0.08715

 Side 1  free  transition at x/c =  0.0143   27
 Side 2 forced transition at x/c =  1.0000   64

   4   rms: 0.2963E-01   max: 0.4577E+00   T at    2  1
       a = 16.000      CL =  1.1863
      Cm = -0.0320     CD =  0.09515   =>   CDf =  0.00625    CDp =  0.08890

 Side 1  free  transition at x/c =  0.0142   27
 Side 2 forced transition at x/c =  1.0000   64

   5   rms: 0.2495E-02   max: 0.1326E-01   D at    4  1
       a = 16.000      CL =  1.1846
      Cm = -0.0318     CD =  0.09479   =>   CDf =  0.00621    CDp =  0.08859

 Side 1  free  transition at x/c =  0.0143   27
 Side 2 forced transition at x/c =  1.0000   64

   6   rms: 0.1673E-03   max: -.1293E-02   C at   64  2
       a = 16.000      CL =  1.1845
      Cm = -0.0318     CD =  0.09473   =>   CDf =  0.00621    CDp =  0.08852

 Side 1  free  transition at x/c =  0.0143   27
 Side 2 forced transition at x/c =  1.0000   64

   7   rms: 0.3929E-05   max: -.3178E-04   C at   64  2
       a = 16.000      CL =  1.1845
      Cm = -0.0318     CD =  0.09473   =>   CDf =  0.00621    CDp =  0.08852
 plradd ia,ip,cpol           54           0 -5.01162212E-05

 Point added to stored polar  1
 Point written to save file  goe504_Re500k.base.pol                          
 Dump file unspecified or not available

.OPERva   c>  
 Polar accumulation disabled

.OPERv   c>  
 XFOIL   c>  
 XFOIL   c>  