  
       XFOIL         Version 6.99
  
 Calculated polar for: GOE 510 AIRFOIL                                 
  
 1 1 Reynolds number fixed          Mach number fixed         
  
 xtrf =   1.000 (top)        1.000 (bottom)  
 Mach =   0.000     Re =     0.400 e 6     Ncrit =   9.000
  
   alpha    CL        CD       CDp       CM     Top_Xtr  Bot_Xtr
  ------ -------- --------- --------- -------- -------- --------
  -4.000   0.1688   0.01834   0.01212  -0.1207   0.8170   0.0584
  -3.500   0.2117   0.01607   0.00953  -0.1182   0.7946   0.0594
  -3.000   0.2592   0.01480   0.00803  -0.1162   0.7712   0.0605
  -2.500   0.3068   0.01388   0.00689  -0.1142   0.7464   0.0618
  -2.000   0.3512   0.01320   0.00604  -0.1115   0.7198   0.0634
  -1.500   0.3950   0.01277   0.00543  -0.1086   0.6926   0.0659
  -1.000   0.4375   0.01249   0.00495  -0.1054   0.6651   0.0673
  -0.500   0.4757   0.01192   0.00429  -0.1015   0.6378   0.0700
   0.000   0.5126   0.01176   0.00402  -0.0974   0.6104   0.0736
   0.500   0.5451   0.01170   0.00384  -0.0922   0.5810   0.0773
   1.000   0.5733   0.01164   0.00367  -0.0862   0.5496   0.0820
   1.500   0.6029   0.01172   0.00363  -0.0805   0.5186   0.0916
   2.000   0.6310   0.01167   0.00389  -0.0749   0.4934   0.2289
   2.500   0.6684   0.01199   0.00418  -0.0712   0.4727   0.2802
   3.000   0.7077   0.01231   0.00445  -0.0679   0.4570   0.3099
   3.500   0.7475   0.01261   0.00472  -0.0648   0.4436   0.3390
   4.000   0.7872   0.01278   0.00498  -0.0617   0.4321   0.3762
  10.250   1.3463   0.01936   0.01272  -0.0468   0.2797   1.0000
  10.500   1.3588   0.01995   0.01331  -0.0449   0.2703   1.0000
  10.750   1.3684   0.02071   0.01403  -0.0426   0.2612   1.0000
  11.000   1.3793   0.02145   0.01475  -0.0406   0.2488   1.0000
  11.250   1.3892   0.02228   0.01558  -0.0386   0.2378   1.0000
  11.500   1.3965   0.02328   0.01654  -0.0364   0.2249   1.0000
  11.750   1.4010   0.02451   0.01769  -0.0340   0.2081   1.0000
  12.000   1.4031   0.02597   0.01906  -0.0315   0.1892   1.0000
  12.250   1.3970   0.02805   0.02096  -0.0285   0.1610   1.0000
  12.500   1.3864   0.03059   0.02332  -0.0254   0.1317   1.0000
  12.750   1.3733   0.03352   0.02608  -0.0225   0.1063   1.0000
  13.000   1.3578   0.03684   0.02927  -0.0198   0.0827   1.0000
  13.250   1.3373   0.04087   0.03317  -0.0175   0.0507   1.0000
  13.500   1.3157   0.04533   0.03758  -0.0156   0.0305   1.0000
  13.750   1.3117   0.04828   0.04062  -0.0147   0.0280   1.0000
  14.000   1.3073   0.05137   0.04380  -0.0140   0.0259   1.0000
  14.250   1.3058   0.05424   0.04678  -0.0135   0.0249   1.0000
  14.500   1.3045   0.05713   0.04979  -0.0131   0.0243   1.0000
  14.750   1.3010   0.06038   0.05315  -0.0129   0.0236   1.0000
  15.000   1.2951   0.06398   0.05686  -0.0128   0.0229   1.0000
  15.250   1.2883   0.06778   0.06077  -0.0128   0.0224   1.0000
  15.500   1.2768   0.07230   0.06543  -0.0131   0.0218   1.0000
  15.750   1.2671   0.07670   0.06995  -0.0135   0.0215   1.0000
  16.000   1.2600   0.08080   0.07418  -0.0140   0.0212   1.0000
