
 ===================================================
  XFOIL Version 6.99
  Copyright (C) 2000   Mark Drela, Harold Youngren

  This software comes with ABSOLUTELY NO WARRANTY,
    subject to the GNU General Public License.

  Caveat computor
 ===================================================

 File  xfoil.def  not found

   QUIT    Exit program

  .OPER    Direct operating point(s)
  .MDES    Complex mapping design routine
  .QDES    Surface speed design routine
  .GDES    Geometry design routine

   SAVE f  Write airfoil to labeled coordinate file
   PSAV f  Write airfoil to plain coordinate file
   ISAV f  Write airfoil to ISES coordinate file
   MSAV f  Write airfoil to MSES coordinate file
   REVE    Reverse written-airfoil node ordering

   LOAD f  Read buffer airfoil from coordinate file
   NACA i  Set NACA 4,5-digit airfoil and buffer airfoil
   INTE    Set buffer airfoil by interpolating two airfoils
   NORM    Buffer airfoil normalization toggle
   XYCM rr Change CM reference location, currently  0.25000 0.00000

   BEND    Display structural properties of current airfoil

   PCOP    Set current-airfoil panel nodes directly from buffer airfoil points
   PANE    Set current-airfoil panel nodes ( 160 ) based on curvature
  .PPAR    Show/change paneling

  .PLOP    Plotting options

   WDEF f  Write  current-settings file
   RDEF f  Reread current-settings file
   NAME s  Specify new airfoil name
   NINC    Increment name version number

   Z       Zoom    | (available in all menus)
   U       Unzoom  | 

 XFOIL   c>  
 Labeled airfoil file.  Name:  GOE 509 AIRFOIL                                 

 Number of input coordinate points:  33
 Counterclockwise ordering
 Max thickness =     0.110646  at x =   0.201
 Max camber    =     0.049263  at x =   0.399

  LE  x,y  =  -0.00091   0.00414  |   Chord =   1.00092
  TE  x,y  =   1.00000   0.00000  |

 Current airfoil nodes set from buffer airfoil nodes (  33 )

 WARNING: Poor input coordinate distribution
          Excessive panel angle   79.9  at i =  17
          Repaneling with PANE and/or PPAR suggested
           (doing GDES,CADD before repaneling _may_
            improve excessively coarse LE spacing

 XFOIL   c>  
 XFOIL   c>  
 Sharp trailing edge

 Paneling parameters used...
   Number of panel nodes       160
   Panel bunching parameter    1.000
   TE/LE panel density ratio   0.150
   Refined-area/LE panel density ratio    0.200
   Top    side refined area x/c limits  1.000 1.000
   Bottom side refined area x/c limits  1.000 1.000

 XFOIL   c>  
.OPERi   c>  
 Xtr/c     =  1.0000    top    side
 Xtr/c     =  1.0000    bottom side
 Ncrit     =    9.00   ( 0.070 % turb. level )
 Vacc      =  0.0100

 Klag  =  5.6000     Uxwt  =    1.00
 A     =  6.7000     B     =  0.7500       KCt = 0.01485
 CtiniK=  1.8000     CtiniX=  3.3000

..VPAR   c>  
..VPAR   c>  
.OPERi   c>  
 M  =    0.0000
 Re =    300000

.OPERv   c>  
.OPERv   c>  
.OPERv   c>  
 Polar  1 newly created for accumulation
 Airfoil archived with polar: GOE 509 AIRFOIL                                 

Enter  polar save filename  OR  <return> for no file   s>  
 New polar save file available

Enter  polar dump filename  OR  <return> for no file   s>  
 Polar dump file will NOT be written

 Polar accumulation enabled

.OPERva   c>   Calculating unit vorticity distributions ...
 Calculating wake trajectory ...
 Calculating source influence matrix ...

 Solving BL system ...

 Initializing BL ...
    side            1  ...
 MRCHUE: Inverse mode at  50     Hk =   3.893
 MRCHUE: Inverse mode at  51     Hk =   4.407
 MRCHUE: Inverse mode at  52     Hk =   4.909
 MRCHUE: Inverse mode at  53     Hk =   5.402
 MRCHUE: Inverse mode at  54     Hk =   5.889
 MRCHUE: Inverse mode at  55     Hk =   6.370
 MRCHUE: Inverse mode at  56     Hk =   6.850
 MRCHUE: Inverse mode at  57     Hk =   7.330
 MRCHUE: Inverse mode at  58     Hk =   7.810
 MRCHUE: Inverse mode at  59     Hk =   7.637
 MRCHUE: Inverse mode at  60     Hk =   5.496
 MRCHUE: Inverse mode at  61     Hk =   4.103
 MRCHUE: Inverse mode at  62     Hk =   3.098
 MRCHUE: Inverse mode at  76     Hk =   2.500
    side            2  ...
 MRCHUE: Inverse mode at  20     Hk =   3.897
 MRCHUE: Inverse mode at  21     Hk =   4.712
 MRCHUE: Inverse mode at  22     Hk =   5.580
 MRCHUE: Convergence failed at  23  side 2    Res =  0.5718E+01
 MRCHUE: Inverse mode at  24     Hk =   6.714
 MRCHUE: Inverse mode at  25     Hk =   7.984
 MRCHUE: Inverse mode at  26     Hk =   8.723
 MRCHUE: Inverse mode at  27     Hk =   2.500
 MRCHUE: Inverse mode at  28     Hk =   2.500
 MRCHUE: Inverse mode at  85     Hk =   2.500
 MRCHUE: Convergence failed at  86  side 2    Res =  0.3419E+01

 Side 1  free  transition at x/c =  0.7670   59
 Side 2  free  transition at x/c =  0.0673   27

   1   rms: 0.4138E+00   max: -.1379E+01   D at   30  2   RLX: 0.340
       a = -4.000      CL =  0.0601
      Cm = -0.1000     CD =  0.01176   =>   CDf =  0.00694    CDp =  0.00482

 MRCHDU: Convergence failed at  61  side 1    Res =  0.5798E+01
 MRCHDU: Convergence failed at  62  side 1    Res =  0.1791E+02
 MRCHDU: Convergence failed at  76  side 1    Res =  0.7413E+01
 Side 1  free  transition at x/c =  0.7931   61
 Side 2  free  transition at x/c =  0.0664   26

   2   rms: 0.2568E+00   max: 0.2824E+01   T at   26  2   RLX: 0.212
       a = -4.000      CL =  0.0518
      Cm = -0.0997     CD =  0.01022   =>   CDf =  0.00680    CDp =  0.00342

 Side 1  free  transition at x/c =  0.8017   61
 Side 2  free  transition at x/c =  0.0606   26

   3   rms: 0.1574E+00   max: 0.1224E+01   T at   26  2   RLX: 0.726
       a = -4.000      CL =  0.0389
      Cm = -0.0862     CD =  0.01371   =>   CDf =  0.00732    CDp =  0.00639

 MRCHDU: Convergence failed at  63  side 1    Res =  0.2421E+00
 MRCHDU: Convergence failed at  26  side 2    Res =  0.4768E+01
 MRCHDU: Convergence failed at  27  side 2    Res =  0.1329E+02
 MRCHDU: Convergence failed at  28  side 2    Res =  0.5243E+02
 MRCHDU: Convergence failed at  29  side 2    Res =  0.3230E+02
 MRCHDU: Convergence failed at  30  side 2    Res =  0.7171E+02
 MRCHDU: Convergence failed at  31  side 2    Res =  0.3039E+02
 MRCHDU: Convergence failed at  32  side 2    Res =  0.4226E+02
 MRCHDU: Convergence failed at  33  side 2    Res =  0.5409E+02
 MRCHDU: Convergence failed at  34  side 2    Res =  0.6009E+02
 MRCHDU: Convergence failed at  35  side 2    Res =  0.6424E+02
 MRCHDU: Convergence failed at  36  side 2    Res =  0.5090E+02
 MRCHDU: Convergence failed at  37  side 2    Res =  0.6089E+02
 MRCHDU: Convergence failed at  38  side 2    Res =  0.1276E+03
 MRCHDU: Convergence failed at  39  side 2    Res =  0.4390E+02
 MRCHDU: Convergence failed at  40  side 2    Res =  0.4631E+02
 MRCHDU: Convergence failed at  41  side 2    Res =  0.1965E+04
 MRCHDU: Convergence failed at  42  side 2    Res =  0.7879E+02
 MRCHDU: Convergence failed at  43  side 2    Res =  0.6840E+02
 MRCHDU: Convergence failed at  44  side 2    Res =  0.4623E+02
 MRCHDU: Convergence failed at  45  side 2    Res =  0.4843E+02
 MRCHDU: Convergence failed at  46  side 2    Res =  0.3599E+02
 MRCHDU: Convergence failed at  47  side 2    Res =  0.4630E+02
 MRCHDU: Convergence failed at  48  side 2    Res =  0.4636E+02
 MRCHDU: Convergence failed at  49  side 2    Res =  0.4574E+02
 MRCHDU: Convergence failed at  50  side 2    Res =  0.4464E+02
 MRCHDU: Convergence failed at  51  side 2    Res =  0.5905E+02
 MRCHDU: Convergence failed at  52  side 2    Res =  0.5776E+02
 MRCHDU: Convergence failed at  53  side 2    Res =  0.5650E+02
 MRCHDU: Convergence failed at  54  side 2    Res =  0.5520E+02
 MRCHDU: Convergence failed at  55  side 2    Res =  0.5384E+02
 MRCHDU: Convergence failed at  56  side 2    Res =  0.3503E+03
 MRCHDU: Convergence failed at  57  side 2    Res =  0.2062E+03
 MRCHDU: Convergence failed at  58  side 2    Res =  0.4643E+03
 MRCHDU: Convergence failed at  59  side 2    Res =  0.1141E+04
 MRCHDU: Convergence failed at  60  side 2    Res =  0.5999E+03
 MRCHDU: Convergence failed at  61  side 2    Res =  0.3391E+02
 MRCHDU: Convergence failed at  62  side 2    Res =  0.3359E+02
 MRCHDU: Convergence failed at  63  side 2    Res =  0.3347E+02
 MRCHDU: Convergence failed at  64  side 2    Res =  0.3351E+02
 MRCHDU: Convergence failed at  65  side 2    Res =  0.3373E+02
 MRCHDU: Convergence failed at  66  side 2    Res =  0.1588E+03
 MRCHDU: Convergence failed at  67  side 2    Res =  0.5930E+03
 MRCHDU: Convergence failed at  68  side 2    Res =  0.3358E+03
 MRCHDU: Convergence failed at  69  side 2    Res =  0.2476E+03
 MRCHDU: Convergence failed at  70  side 2    Res =  0.5783E+02
 MRCHDU: Convergence failed at  71  side 2    Res =  0.1563E+03
 MRCHDU: Convergence failed at  72  side 2    Res =  0.2541E+03
 MRCHDU: Convergence failed at  73  side 2    Res =  0.1293E+03
 MRCHDU: Convergence failed at  74  side 2    Res =  0.5398E+02
 MRCHDU: Convergence failed at  75  side 2    Res =  0.5633E+02
 MRCHDU: Convergence failed at  76  side 2    Res =  0.5889E+02
 MRCHDU: Convergence failed at  77  side 2    Res =  0.6171E+02
 MRCHDU: Convergence failed at  78  side 2    Res =  0.6455E+02
 MRCHDU: Convergence failed at  79  side 2    Res =  0.6766E+02
 MRCHDU: Convergence failed at  80  side 2    Res =  0.7386E+02
 MRCHDU: Convergence failed at  81  side 2    Res =  0.4625E+02
 MRCHDU: Convergence failed at  82  side 2    Res =  0.7063E+02
 MRCHDU: Convergence failed at  83  side 2    Res =  0.1192E+03
 MRCHDU: Convergence failed at  84  side 2    Res =  0.1276E+03
 MRCHDU: Convergence failed at  85  side 2    Res =  0.2133E+03
 MRCHDU: Convergence failed at  86  side 2    Res =  0.2464E+03
 Side 1  free  transition at x/c =  0.8324   63
 Side 2  free  transition at x/c =  0.0537   25

   4   rms: 0.1154E+01   max: 0.5701E+01   D at   88  2   RLX: 0.263
       a = -4.000      CL = -0.8469
      Cm =  0.2038     CD =  0.00541   =>   CDf =  0.00300    CDp =  0.00241

 MRCHDU: Convergence failed at  87  side 2    Res =  0.2180E+02
 MRCHDU: Convergence failed at  88  side 2    Res =  0.8653E+01
 Side 1  free  transition at x/c =  0.8487   65
 Side 2  free  transition at x/c =  0.0566   25

   5   rms: 0.5795E+00   max: -.2713E+01   D at   76  1   RLX: 0.184
       a = -4.000      CL = -0.1633
      Cm = -0.0069     CD =  0.03944   =>   CDf =  0.00326    CDp =  0.03618

 MRCHDU: Convergence failed at  77  side 1    Res =  0.2018E+01
 Side 1  free  transition at x/c =  0.9028   69
 Side 2  free  transition at x/c =  0.0579   25

   6   rms: 0.4166E+00   max: -.2826E+01   C at   69  1   RLX: 0.177
       a = -4.000      CL = -0.0979
      Cm = -0.0336     CD =  0.04286   =>   CDf =  0.00302    CDp =  0.03984

 Side 1  free  transition at x/c =  0.9040   69
 Side 2  free  transition at x/c =  0.0564   25

   7   rms: 0.3510E+00   max: -.8541E+00   D at   86  2   RLX: 0.585
       a = -4.000      CL =  0.1367
      Cm = -0.0976     CD =  0.03708   =>   CDf =  0.00321    CDp =  0.03387

 MRCHDU: Convergence failed at  73  side 1    Res =  0.9635E+01
 MRCHDU: Convergence failed at  74  side 1    Res =  0.2303E+01
 MRCHDU: Convergence failed at  75  side 1    Res =  0.1208E+01
 MRCHDU: Convergence failed at  76  side 1    Res =  0.1100E+01
 MRCHDU: Convergence failed at  77  side 1    Res =  0.1429E+01
 MRCHDU: Convergence failed at  78  side 1    Res =  0.2737E+01
 Side 1 forced transition at x/c =  1.0000   78
 Side 2  free  transition at x/c =  0.0586   24
 idif Ue xi dudx           1  0.18394998      3.64041328E-03   50.529972    
 Uenew xinew           2  6.14592209E-02  1.21629238E-03

   8   rms: 0.7825E+00   max: 0.6135E+01   D at    2  1   RLX: 0.152
       a = -4.000      CL =  0.1815
      Cm = -0.1301     CD =  0.04460   =>   CDf =  0.00318    CDp =  0.04142

 Side 1  free  transition at x/c =  0.9860   76
 Side 2  free  transition at x/c =  0.0558   25

   9   rms: 0.6587E+00   max: 0.3430E+01   C at   76  1   RLX: 0.247
       a = -4.000      CL =  0.2208
      Cm = -0.1544     CD =  0.03217   =>   CDf =  0.00304    CDp =  0.02913

 Side 1  free  transition at x/c =  0.9359   72
 Side 2  free  transition at x/c =  0.0571   25

  10   rms: 0.5159E+01   max: 0.1654E+02   D at   31  2   RLX: 0.073
       a = -4.000      CL =  0.3228
      Cm = -0.1411     CD =  0.06277   =>   CDf =  0.00308    CDp =  0.05969

 Side 1  free  transition at x/c =  0.9704   75
 Side 2  free  transition at x/c =  0.0637   24

  11   rms: 0.6082E+00   max: 0.5092E+01   C at   75  1   RLX: 0.235
       a = -4.000      CL =  0.4793
      Cm = -0.1757     CD =  0.03402   =>   CDf =  0.00320    CDp =  0.03082

 MRCHDU: Convergence failed at  78  side 1    Res =  0.4214E+01
 MRCHDU: Convergence failed at  79  side 1    Res =  0.3550E+01
 Side 1 forced transition at x/c =  1.0000   79
 Side 2  free  transition at x/c =  0.0666   24
 idif Ue xi dudx           1  0.14154512      2.51972675E-03   56.174789    
 Uenew xinew           2  1.88106280E-02  3.34858894E-04

  12   rms: 0.1355E+01   max: 0.2020E+02   D at    2  1   RLX: 0.053
       a = -4.000      CL =  0.4473
      Cm = -0.1688     CD =  0.03674   =>   CDf =  0.00340    CDp =  0.03335

 Side 1 forced transition at x/c =  1.0000   78
 Side 2  free  transition at x/c =  0.0664   24

  13   rms: 0.1712E+02   max: 0.8859E+02   D at   39  2   RLX: 0.010
       a = -4.000      CL =  0.3927
      Cm = -0.1764     CD =  0.03710   =>   CDf =  0.00338    CDp =  0.03372

 Side 1  free  transition at x/c =  0.9361   73
 Side 2  free  transition at x/c =  0.0696   25

  14   rms: 0.2933E+01   max: -.3011E+02   T at   25  2   RLX: 0.017
       a = -4.000      CL =  0.3528
      Cm = -0.1681     CD =  0.03908   =>   CDf =  0.00312    CDp =  0.03596

 Side 1  free  transition at x/c =  0.9179   71
 Side 2  free  transition at x/c =  0.0785   25

  15   rms: 0.6066E+00   max: -.3341E+01   T at   26  2   RLX: 0.150
       a = -4.000      CL =  0.2883
      Cm = -0.1579     CD =  0.03734   =>   CDf =  0.00307    CDp =  0.03428

 Side 1  free  transition at x/c =  0.8757   68
 Side 2  free  transition at x/c =  0.0976   27
 idif Ue xi dudx           1  0.18311314      3.73995304E-03   48.961349    
 Uenew xinew           2  6.44249171E-02  1.31583214E-03

  16   rms: 0.7109E+00   max: 0.3056E+01   T at   27  2   RLX: 0.266
       a = -4.000      CL =  0.1738
      Cm = -0.1430     CD =  0.03663   =>   CDf =  0.00313    CDp =  0.03350

 MRCHDU: Convergence failed at  82  side 2    Res =  0.4089E+01
 MRCHDU: Convergence failed at  83  side 2    Res =  0.1586E+01
 Side 1  free  transition at x/c =  0.8419   65
 Side 2  free  transition at x/c =  0.0960   28

  17   rms: 0.2252E+01   max: -.9885E+01   T at   28  2   RLX: 0.051
       a = -4.000      CL =  0.2052
      Cm = -0.1347     CD =  0.04081   =>   CDf =  0.00331    CDp =  0.03750

 Side 1  free  transition at x/c =  0.8569   66
 Side 2  free  transition at x/c =  0.0930   27

  18   rms: 0.1571E+01   max: 0.1479E+02   T at   27  2   RLX: 0.036
       a = -4.000      CL =  0.1691
      Cm = -0.1256     CD =  0.04014   =>   CDf =  0.00324    CDp =  0.03690

 Side 1  free  transition at x/c =  0.8617   67
 Side 2  free  transition at x/c =  0.0919   26

  19   rms: 0.2968E+01   max: 0.5193E+02   T at   26  2   RLX: 0.016
       a = -4.000      CL =  0.1432
      Cm = -0.1155     CD =  0.04265   =>   CDf =  0.00320    CDp =  0.03945

 Side 1  free  transition at x/c =  0.8638   67
 Side 2  free  transition at x/c =  0.0885   26
 idif Ue xi dudx           1  0.19048767      3.86309624E-03   49.309586    
 Uenew xinew           2  7.09552765E-02  1.43897533E-03

  20   rms: 0.9440E+00   max: 0.7249E+01   T at   26  2   RLX: 0.182
       a = -4.000      CL =  0.0891
      Cm = -0.1231     CD =  0.03533   =>   CDf =  0.00318    CDp =  0.03215

 MRCHDU: Convergence failed at  53  side 2    Res =  0.1923E+01
 MRCHDU: Convergence failed at  54  side 2    Res =  0.1052E+01
 MRCHDU: Convergence failed at  55  side 2    Res =  0.1071E+01
 MRCHDU: Convergence failed at  56  side 2    Res =  0.1409E+01
 MRCHDU: Convergence failed at  57  side 2    Res =  0.1763E+01
 MRCHDU: Convergence failed at  58  side 2    Res =  0.2198E+01
 MRCHDU: Convergence failed at  59  side 2    Res =  0.2655E+01
 MRCHDU: Convergence failed at  60  side 2    Res =  0.3149E+01
 MRCHDU: Convergence failed at  61  side 2    Res =  0.3666E+01
 MRCHDU: Convergence failed at  62  side 2    Res =  0.4167E+01
 MRCHDU: Convergence failed at  63  side 2    Res =  0.4636E+01
 MRCHDU: Convergence failed at  64  side 2    Res =  0.5016E+01
 MRCHDU: Convergence failed at  65  side 2    Res =  0.5286E+01
 MRCHDU: Convergence failed at  66  side 2    Res =  0.5434E+01
 MRCHDU: Convergence failed at  67  side 2    Res =  0.5459E+01
 MRCHDU: Convergence failed at  68  side 2    Res =  0.5211E+01
 MRCHDU: Convergence failed at  69  side 2    Res =  0.4998E+01
 MRCHDU: Convergence failed at  70  side 2    Res =  0.4753E+01
 MRCHDU: Convergence failed at  71  side 2    Res =  0.4417E+01
 MRCHDU: Convergence failed at  72  side 2    Res =  0.3895E+01
 MRCHDU: Convergence failed at  73  side 2    Res =  0.3386E+01
 MRCHDU: Convergence failed at  74  side 2    Res =  0.2923E+01
 MRCHDU: Convergence failed at  75  side 2    Res =  0.2611E+01
 MRCHDU: Convergence failed at  76  side 2    Res =  0.2603E+01
 MRCHDU: Convergence failed at  77  side 2    Res =  0.2822E+01
 MRCHDU: Convergence failed at  78  side 2    Res =  0.3205E+01
 MRCHDU: Convergence failed at  79  side 2    Res =  0.3957E+01
 MRCHDU: Convergence failed at  80  side 2    Res =  0.5290E+01
 MRCHDU: Convergence failed at  81  side 2    Res =  0.1154E+02
 MRCHDU: Convergence failed at  82  side 2    Res =  0.1186E+02
 MRCHDU: Convergence failed at  83  side 2    Res =  0.1227E+02
 MRCHDU: Convergence failed at  84  side 2    Res =  0.1830E+02
 MRCHDU: Convergence failed at  85  side 2    Res =  0.1911E+03
 Side 1  free  transition at x/c =  0.8441   65
 Side 2  free  transition at x/c =  0.0697   26

  21   rms: 0.3094E+00   max: -.7833E+00   D at   64  2   RLX: 0.638
       a = -4.000      CL =  0.1194
      Cm = -0.1010     CD =  0.03078   =>   CDf =  0.00322    CDp =  0.02756

 Side 1  free  transition at x/c =  0.8526   67
 Side 2  free  transition at x/c =  0.0698   25
 idif Ue xi dudx           1  0.15398495      3.02600861E-03   50.887150    
 Uenew xinew           2  3.06283496E-02  6.01887703E-04

  22   rms: 0.1889E+00   max: 0.8545E+00   T at    2  1   RLX: 0.681
       a = -4.000      CL =  0.1211
      Cm = -0.1010     CD =  0.03048   =>   CDf =  0.00390    CDp =  0.02658

 Side 1  free  transition at x/c =  0.8455   65
 Side 2  free  transition at x/c =  0.0683   26

  23   rms: 0.1436E+00   max: -.9642E+00   T at   26  2   RLX: 0.519
       a = -4.000      CL =  0.1101
      Cm = -0.0978     CD =  0.02942   =>   CDf =  0.00428    CDp =  0.02514

 Side 1  free  transition at x/c =  0.8421   65
 Side 2  free  transition at x/c =  0.0723   26

  24   rms: 0.1205E+00   max: -.1426E+01   T at   26  2   RLX: 0.351
       a = -4.000      CL =  0.1016
      Cm = -0.0969     CD =  0.02985   =>   CDf =  0.00424    CDp =  0.02560

 Side 1  free  transition at x/c =  0.8412   65
 Side 2  free  transition at x/c =  0.0759   26

  25   rms: 0.1938E+00   max: -.5904E+00   D at   26  2   RLX: 0.847
       a = -4.000      CL =  0.0820
      Cm = -0.0943     CD =  0.02565   =>   CDf =  0.00417    CDp =  0.02149

 Side 1  free  transition at x/c =  0.8396   65
 Side 2  free  transition at x/c =  0.0576   25

  26   rms: 0.1581E+00   max: -.1392E+01   T at   25  2   RLX: 0.359
       a = -4.000      CL =  0.0692
      Cm = -0.0928     CD =  0.02995   =>   CDf =  0.00423    CDp =  0.02573

 Side 1  free  transition at x/c =  0.8394   65
 Side 2  free  transition at x/c =  0.0588   25

  27   rms: 0.2295E+00   max: -.7869E+00   D at   25  2   RLX: 0.635
       a = -4.000      CL =  0.0573
      Cm = -0.0905     CD =  0.02674   =>   CDf =  0.00411    CDp =  0.02264

 Side 1  free  transition at x/c =  0.8386   65
 Side 2  free  transition at x/c =  0.0535   24

  28   rms: 0.2718E+00   max: -.1352E+01   T at   25  2   RLX: 0.370
       a = -4.000      CL =  0.0494
      Cm = -0.0889     CD =  0.03314   =>   CDf =  0.00403    CDp =  0.02911

 Side 1  free  transition at x/c =  0.8392   65
 Side 2  free  transition at x/c =  0.0531   24

  29   rms: 0.2513E+00   max: -.8735E+00   T at   25  2   RLX: 0.572
       a = -4.000      CL =  0.0253
      Cm = -0.0855     CD =  0.03069   =>   CDf =  0.00379    CDp =  0.02690

 Side 1  free  transition at x/c =  0.8372   65
 Side 2  free  transition at x/c =  0.0524   24
 idif Ue xi dudx           1  0.14014965      3.23891640E-03   43.270538    
 Uenew xinew           2  2.26292443E-02  5.22971153E-04

  30   rms: 0.2602E+00   max: -.8021E+00   D at   25  2   RLX: 0.623
       a = -4.000      CL =  0.0073
      Cm = -0.0817     CD =  0.02799   =>   CDf =  0.00389    CDp =  0.02410

 Side 1  free  transition at x/c =  0.8357   64
 Side 2  free  transition at x/c =  0.0504   25

  31   rms: 0.2748E+00   max: -.7966E+00   D at   53  2   RLX: 0.628
       a = -4.000      CL =  0.0078
      Cm = -0.0798     CD =  0.02331   =>   CDf =  0.00437    CDp =  0.01894

 Side 1  free  transition at x/c =  0.8359   64
 Side 2  free  transition at x/c =  0.0479   25

  32   rms: 0.2649E+00   max: -.8195E+00   D at   32  2   RLX: 0.610
       a = -4.000      CL =  0.0239
      Cm = -0.0807     CD =  0.01917   =>   CDf =  0.00519    CDp =  0.01397

 Side 1  free  transition at x/c =  0.8373   64
 Side 2  free  transition at x/c =  0.0490   25

  33   rms: 0.1021E+00   max: -.5346E+00   D at   30  2   RLX: 0.935
       a = -4.000      CL =  0.0521
      Cm = -0.0860     CD =  0.01634   =>   CDf =  0.00619    CDp =  0.01015

 Side 1  free  transition at x/c =  0.8398   64
 Side 2  free  transition at x/c =  0.0515   25

  34   rms: 0.2665E-01   max: 0.1901E+00   D at   26  2
       a = -4.000      CL =  0.0577
      Cm = -0.0874     CD =  0.01678   =>   CDf =  0.00652    CDp =  0.01026

 Side 1  free  transition at x/c =  0.8402   64
 Side 2  free  transition at x/c =  0.0511   25

  35   rms: 0.3590E-02   max: 0.1885E-01   D at   26  2
       a = -4.000      CL =  0.0579
      Cm = -0.0875     CD =  0.01675   =>   CDf =  0.00651    CDp =  0.01023

 Side 1  free  transition at x/c =  0.8402   64
 Side 2  free  transition at x/c =  0.0511   25

  36   rms: 0.4525E-04   max: 0.2734E-03   D at   27  2
       a = -4.000      CL =  0.0579
      Cm = -0.0875     CD =  0.01675   =>   CDf =  0.00650    CDp =  0.01024
 plradd ia,ip,cpol            1           0  1.14380952E-03

 Point added to stored polar  1
 Point written to save file  goe509_Re300k.base.pol                          
 Dump file unspecified or not available
 Calculating wake trajectory ...
 Calculating source influence matrix ...

 Solving BL system ...

 Side 1  free  transition at x/c =  0.8402   64
 Side 2  free  transition at x/c =  0.0511   25

   1   rms: 0.1098E+00   max: -.7154E+00   T at   25  2   RLX: 0.699
       a = -3.500      CL =  0.1025
      Cm = -0.0881     CD =  0.01568   =>   CDf =  0.00652    CDp =  0.00916

 Side 1  free  transition at x/c =  0.8276   64
 Side 2  free  transition at x/c =  0.0550   25

   2   rms: 0.3772E-01   max: -.1890E+00   T at   25  2
       a = -3.500      CL =  0.1141
      Cm = -0.0871     CD =  0.01449   =>   CDf =  0.00696    CDp =  0.00753

 Side 1  free  transition at x/c =  0.8194   64
 Side 2  free  transition at x/c =  0.0569   25

   3   rms: 0.9120E-02   max: 0.6377E-01   D at   25  2
       a = -3.500      CL =  0.1175
      Cm = -0.0878     CD =  0.01478   =>   CDf =  0.00701    CDp =  0.00777

 Side 1  free  transition at x/c =  0.8211   64
 Side 2  free  transition at x/c =  0.0568   25

   4   rms: 0.4575E-03   max: -.3820E-02   D at   66  1
       a = -3.500      CL =  0.1172
      Cm = -0.0877     CD =  0.01478   =>   CDf =  0.00698    CDp =  0.00780

 Side 1  free  transition at x/c =  0.8210   64
 Side 2  free  transition at x/c =  0.0567   25

   5   rms: 0.2007E-05   max: -.1851E-04   D at   77  1
       a = -3.500      CL =  0.1172
      Cm = -0.0877     CD =  0.01478   =>   CDf =  0.00698    CDp =  0.00780
 plradd ia,ip,cpol            2           0  2.36586435E-03

 Point added to stored polar  1
 Point written to save file  goe509_Re300k.base.pol                          
 Dump file unspecified or not available
 Calculating wake trajectory ...
 Calculating source influence matrix ...

 Solving BL system ...

 Side 1  free  transition at x/c =  0.8210   64
 Side 2  free  transition at x/c =  0.0567   25

   1   rms: 0.1139E+00   max: -.8053E+00   T at   25  2   RLX: 0.621
       a = -3.000      CL =  0.1569
      Cm = -0.0887     CD =  0.01396   =>   CDf =  0.00698    CDp =  0.00698

 Side 1  free  transition at x/c =  0.8108   63
 Side 2  free  transition at x/c =  0.0607   25

   2   rms: 0.8685E-01   max: -.3607E+00   D at   28  2
       a = -3.000      CL =  0.1696
      Cm = -0.0866     CD =  0.01382   =>   CDf =  0.00694    CDp =  0.00688

 Side 1  free  transition at x/c =  0.8001   63
 Side 2  free  transition at x/c =  0.0625   24

   3   rms: 0.9923E-02   max: -.1059E+00   D at    2  1
       a = -3.000      CL =  0.1735
      Cm = -0.0874     CD =  0.01385   =>   CDf =  0.00722    CDp =  0.00663

 Side 1  free  transition at x/c =  0.8021   63
 Side 2  free  transition at x/c =  0.0626   24

   4   rms: 0.4231E-03   max: 0.2546E-02   D at   64  1
       a = -3.000      CL =  0.1732
      Cm = -0.0873     CD =  0.01385   =>   CDf =  0.00720    CDp =  0.00666

 Side 1  free  transition at x/c =  0.8019   63
 Side 2  free  transition at x/c =  0.0626   24

   5   rms: 0.2331E-05   max: 0.1669E-04   D at    4  1
       a = -3.000      CL =  0.1732
      Cm = -0.0873     CD =  0.01385   =>   CDf =  0.00720    CDp =  0.00666
 plradd ia,ip,cpol            3           0  3.90661834E-03

 Point added to stored polar  1
 Point written to save file  goe509_Re300k.base.pol                          
 Dump file unspecified or not available
 Calculating wake trajectory ...
 Calculating source influence matrix ...

 Solving BL system ...

 Side 1  free  transition at x/c =  0.8019   63
 Side 2  free  transition at x/c =  0.0626   24

   1   rms: 0.8640E-01   max: -.4519E+00   T at   24  2
       a = -2.500      CL =  0.2178
      Cm = -0.0846     CD =  0.01318   =>   CDf =  0.00720    CDp =  0.00598

 Side 1  free  transition at x/c =  0.7777   62
 Side 2  free  transition at x/c =  0.0674   25

   2   rms: 0.2534E-01   max: -.1715E+00   D at   62  1
       a = -2.500      CL =  0.2272
      Cm = -0.0865     CD =  0.01291   =>   CDf =  0.00748    CDp =  0.00543

 Side 1  free  transition at x/c =  0.7831   62
 Side 2  free  transition at x/c =  0.0678   25

   3   rms: 0.3126E-02   max: 0.1863E-01   D at   63  1
       a = -2.500      CL =  0.2254
      Cm = -0.0861     CD =  0.01297   =>   CDf =  0.00740    CDp =  0.00557

 Side 1  free  transition at x/c =  0.7820   62
 Side 2  free  transition at x/c =  0.0677   25

   4   rms: 0.6485E-04   max: -.5421E-03   C at   62  1
       a = -2.500      CL =  0.2254
      Cm = -0.0861     CD =  0.01297   =>   CDf =  0.00741    CDp =  0.00556
 plradd ia,ip,cpol            4           0  3.90661834E-03

 Point added to stored polar  1
 Point written to save file  goe509_Re300k.base.pol                          
 Dump file unspecified or not available
 Calculating wake trajectory ...
 Calculating source influence matrix ...

 Solving BL system ...

 Side 1  free  transition at x/c =  0.7820   62
 Side 2  free  transition at x/c =  0.0677   25

   1   rms: 0.1517E+00   max: -.5585E+00   T at   25  2   RLX: 0.895
       a = -2.000      CL =  0.2680
      Cm = -0.0844     CD =  0.01124   =>   CDf =  0.00742    CDp =  0.00382

 Side 1  free  transition at x/c =  0.7631   62
 Side 2  free  transition at x/c =  0.0782   24

   2   rms: 0.2990E-01   max: 0.3376E+00   D at   24  2
       a = -2.000      CL =  0.2758
      Cm = -0.0846     CD =  0.01220   =>   CDf =  0.00747    CDp =  0.00473

 Side 1  free  transition at x/c =  0.7631   62
 Side 2  free  transition at x/c =  0.0760   24

   3   rms: 0.2170E-02   max: 0.1882E-01   T at   24  2
       a = -2.000      CL =  0.2751
      Cm = -0.0845     CD =  0.01220   =>   CDf =  0.00744    CDp =  0.00476

 Side 1  free  transition at x/c =  0.7627   62
 Side 2  free  transition at x/c =  0.0757   24

   4   rms: 0.3098E-04   max: -.2635E-03   D at   24  2
       a = -2.000      CL =  0.2751
      Cm = -0.0845     CD =  0.01220   =>   CDf =  0.00745    CDp =  0.00476
 plradd ia,ip,cpol            5           0  5.79959480E-03

 Point added to stored polar  1
 Point written to save file  goe509_Re300k.base.pol                          
 Dump file unspecified or not available
 Calculating wake trajectory ...
 Calculating source influence matrix ...

 Solving BL system ...

 Side 1  free  transition at x/c =  0.7627   62
 Side 2  free  transition at x/c =  0.0757   24

   1   rms: 0.9076E-01   max: -.5327E+00   T at   24  2   RLX: 0.939
       a = -1.500      CL =  0.3204
      Cm = -0.0826     CD =  0.01175   =>   CDf =  0.00745    CDp =  0.00431

 Side 1  free  transition at x/c =  0.7425   61
 Side 2  free  transition at x/c =  0.0847   25

   2   rms: 0.1972E-01   max: -.1804E+00   D at   61  1
       a = -1.500      CL =  0.3230
      Cm = -0.0824     CD =  0.01153   =>   CDf =  0.00757    CDp =  0.00396

 Side 1  free  transition at x/c =  0.7427   62
 Side 2  free  transition at x/c =  0.0869   24

   3   rms: 0.2355E-02   max: 0.2568E-01   D at   24  2
       a = -1.500      CL =  0.3227
      Cm = -0.0823     CD =  0.01157   =>   CDf =  0.00749    CDp =  0.00408

 Side 1  free  transition at x/c =  0.7423   62
 Side 2  free  transition at x/c =  0.0868   24

   4   rms: 0.4501E-03   max: 0.5593E-02   D at    4  1
       a = -1.500      CL =  0.3227
      Cm = -0.0823     CD =  0.01157   =>   CDf =  0.00750    CDp =  0.00407

 Side 1  free  transition at x/c =  0.7423   62
 Side 2  free  transition at x/c =  0.0868   24

   5   rms: 0.5472E-05   max: 0.6511E-04   D at    4  1
       a = -1.500      CL =  0.3227
      Cm = -0.0823     CD =  0.01157   =>   CDf =  0.00750    CDp =  0.00407
 plradd ia,ip,cpol            6           0  8.09452869E-03

 Point added to stored polar  1
 Point written to save file  goe509_Re300k.base.pol                          
 Dump file unspecified or not available
 Calculating wake trajectory ...
 Calculating source influence matrix ...

 Solving BL system ...

 Side 1  free  transition at x/c =  0.7423   62
 Side 2  free  transition at x/c =  0.0868   24

   1   rms: 0.1037E+00   max: -.7517E+00   T at   24  2   RLX: 0.665
       a = -1.000      CL =  0.3552
      Cm = -0.0811     CD =  0.01125   =>   CDf =  0.00751    CDp =  0.00374

 Side 1  free  transition at x/c =  0.7280   61
 Side 2  free  transition at x/c =  0.0979   25

   2   rms: 0.1128E+00   max: -.5301E+00   T at   25  2   RLX: 0.943
       a = -1.000      CL =  0.3638
      Cm = -0.0792     CD =  0.01054   =>   CDf =  0.00760    CDp =  0.00294

 Side 1  free  transition at x/c =  0.7189   60
 Side 2  free  transition at x/c =  0.1251   26

   3   rms: 0.3089E-01   max: -.4485E+00   C at   26  2
       a = -1.000      CL =  0.3681
      Cm = -0.0798     CD =  0.01099   =>   CDf =  0.00752    CDp =  0.00347

 Side 1  free  transition at x/c =  0.7197   60
 Side 2  free  transition at x/c =  0.1162   26

   4   rms: 0.1716E-02   max: -.1858E-01   D at   26  2
       a = -1.000      CL =  0.3688
      Cm = -0.0799     CD =  0.01107   =>   CDf =  0.00751    CDp =  0.00356

 Side 1  free  transition at x/c =  0.7195   60
 Side 2  free  transition at x/c =  0.1157   26

   5   rms: 0.2215E-04   max: 0.1998E-03   C at   26  2
       a = -1.000      CL =  0.3688
      Cm = -0.0799     CD =  0.01107   =>   CDf =  0.00752    CDp =  0.00355
 plradd ia,ip,cpol            7           0  1.41125238E-02

 Point added to stored polar  1
 Point written to save file  goe509_Re300k.base.pol                          
 Dump file unspecified or not available
 Calculating wake trajectory ...
 Calculating source influence matrix ...

 Solving BL system ...

 Side 1  free  transition at x/c =  0.7195   60
 Side 2  free  transition at x/c =  0.1157   26

   1   rms: 0.1749E+00   max: -.1296E+01   C at   26  2   RLX: 0.386
       a = -0.500      CL =  0.3826
      Cm = -0.0782     CD =  0.01069   =>   CDf =  0.00752    CDp =  0.00316

 Side 1  free  transition at x/c =  0.7068   60
 Side 2  free  transition at x/c =  0.1440   27

   2   rms: 0.1111E+00   max: -.1251E+01   T at   27  2   RLX: 0.400
       a = -0.500      CL =  0.3957
      Cm = -0.0775     CD =  0.01085   =>   CDf =  0.00750    CDp =  0.00334

 Side 1  free  transition at x/c =  0.7018   60
 Side 2  free  transition at x/c =  0.2423   33

   3   rms: 0.1478E+00   max: -.2217E+01   C at   33  2   RLX: 0.226
       a = -0.500      CL =  0.3917
      Cm = -0.0775     CD =  0.01057   =>   CDf =  0.00720    CDp =  0.00337

 Side 1  free  transition at x/c =  0.6993   60
 Side 2  free  transition at x/c =  0.2556   34

   4   rms: 0.7989E-01   max: 0.8124E+00   D at   35  2   RLX: 0.676
       a = -0.500      CL =  0.4027
      Cm = -0.0766     CD =  0.01049   =>   CDf =  0.00715    CDp =  0.00334

 Side 1  free  transition at x/c =  0.6932   60
 Side 2  free  transition at x/c =  0.2757   35

   5   rms: 0.8501E-01   max: -.7359E+00   T at   35  2   RLX: 0.679
       a = -0.500      CL =  0.4082
      Cm = -0.0767     CD =  0.01041   =>   CDf =  0.00727    CDp =  0.00314

 Side 1  free  transition at x/c =  0.6919   60
 Side 2  free  transition at x/c =  0.2862   35

   6   rms: 0.3463E-01   max: -.4086E+00   D at   35  2
       a = -0.500      CL =  0.4123
      Cm = -0.0770     CD =  0.01071   =>   CDf =  0.00726    CDp =  0.00345

 MRCHDU: Convergence failed at  37  side 2    Res =  0.1904E+01
 MRCHDU: Convergence failed at  38  side 2    Res =  0.2506E+01
 MRCHDU: Convergence failed at  39  side 2    Res =  0.6100E+01
 MRCHDU: Convergence failed at  40  side 2    Res =  0.1757E+02
 MRCHDU: Convergence failed at  41  side 2    Res =  0.6563E+02
 MRCHDU: Convergence failed at  42  side 2    Res =  0.7535E+02
 MRCHDU: Convergence failed at  43  side 2    Res =  0.3407E+02
 MRCHDU: Convergence failed at  44  side 2    Res =  0.1682E+02
 MRCHDU: Convergence failed at  45  side 2    Res =  0.9969E+01
 MRCHDU: Convergence failed at  46  side 2    Res =  0.6587E+01
 MRCHDU: Convergence failed at  47  side 2    Res =  0.4648E+01
 MRCHDU: Convergence failed at  48  side 2    Res =  0.3069E+01
 MRCHDU: Convergence failed at  49  side 2    Res =  0.2343E+01
 Side 1  free  transition at x/c =  0.6909   60
 Side 2  free  transition at x/c =  0.3061   37

   7   rms: 0.1174E+00   max: -.7450E+00   D at   47  2   RLX: 0.671
       a = -0.500      CL =  0.3939
      Cm = -0.0738     CD =  0.00986   =>   CDf =  0.00615    CDp =  0.00371

 Side 1  free  transition at x/c =  0.6918   60
 Side 2  free  transition at x/c =  0.2995   36

   8   rms: 0.1878E-01   max: 0.1515E+00   D at   38  2
       a = -0.500      CL =  0.4096
      Cm = -0.0765     CD =  0.01056   =>   CDf =  0.00705    CDp =  0.00351

 Side 1  free  transition at x/c =  0.6911   60
 Side 2  free  transition at x/c =  0.2986   36

   9   rms: 0.7008E-03   max: -.9973E-02   D at   38  2
       a = -0.500      CL =  0.4097
      Cm = -0.0765     CD =  0.01057   =>   CDf =  0.00703    CDp =  0.00354

 Side 1  free  transition at x/c =  0.6911   60
 Side 2  free  transition at x/c =  0.2983   36

  10   rms: 0.4436E-05   max: -.6271E-04   D at   38  2
       a = -0.500      CL =  0.4097
      Cm = -0.0765     CD =  0.01057   =>   CDf =  0.00703    CDp =  0.00354
 plradd ia,ip,cpol            8           0  0.24589536    

 Point added to stored polar  1
 Point written to save file  goe509_Re300k.base.pol                          
 Dump file unspecified or not available
 Calculating wake trajectory ...
 Calculating source influence matrix ...

 Solving BL system ...

 Side 1  free  transition at x/c =  0.6911   60
 Side 2  free  transition at x/c =  0.2983   36

   1   rms: 0.1100E+00   max: -.6410E+00   T at   36  2   RLX: 0.780
       a =  0.000      CL =  0.4477
      Cm = -0.0750     CD =  0.01070   =>   CDf =  0.00703    CDp =  0.00367

 Side 1  free  transition at x/c =  0.6631   58
 Side 2  free  transition at x/c =  0.3323   38

   2   rms: 0.3127E-01   max: -.2575E+00   D at   59  1
       a =  0.000      CL =  0.4529
      Cm = -0.0734     CD =  0.01059   =>   CDf =  0.00721    CDp =  0.00338

 Side 1  free  transition at x/c =  0.6517   58
 Side 2  free  transition at x/c =  0.3472   38

   3   rms: 0.2450E-01   max: 0.4037E+00   C at   38  2
       a =  0.000      CL =  0.4520
      Cm = -0.0733     CD =  0.01056   =>   CDf =  0.00710    CDp =  0.00346

 Side 1  free  transition at x/c =  0.6515   58
 Side 2  free  transition at x/c =  0.3444   38

   4   rms: 0.3110E-02   max: -.4330E-01   D at   40  2
       a =  0.000      CL =  0.4520
      Cm = -0.0733     CD =  0.01056   =>   CDf =  0.00713    CDp =  0.00343

 Side 1  free  transition at x/c =  0.6515   58
 Side 2  free  transition at x/c =  0.3433   38

   5   rms: 0.8005E-04   max: -.1471E-02   D at   40  2
       a =  0.000      CL =  0.4520
      Cm = -0.0733     CD =  0.01056   =>   CDf =  0.00713    CDp =  0.00343
 plradd ia,ip,cpol            9           0  0.11769287    

 Point added to stored polar  1
 Point written to save file  goe509_Re300k.base.pol                          
 Dump file unspecified or not available
 Calculating wake trajectory ...
 Calculating source influence matrix ...

 Solving BL system ...

 Side 1  free  transition at x/c =  0.6515   58
 Side 2  free  transition at x/c =  0.3433   38

   1   rms: 0.9390E-01   max: -.4867E+00   T at   38  2
       a =  0.500      CL =  0.4921
      Cm = -0.0697     CD =  0.01054   =>   CDf =  0.00714    CDp =  0.00341

 Side 1  free  transition at x/c =  0.5973   55
 Side 2  free  transition at x/c =  0.3701   40

   2   rms: 0.3708E-01   max: -.3091E+00   C at   40  2
       a =  0.500      CL =  0.4898
      Cm = -0.0693     CD =  0.01054   =>   CDf =  0.00745    CDp =  0.00308

 Side 1  free  transition at x/c =  0.6007   55
 Side 2  free  transition at x/c =  0.3798   40

   3   rms: 0.1026E-01   max: -.1131E+00   C at   40  2
       a =  0.500      CL =  0.4908
      Cm = -0.0694     CD =  0.01061   =>   CDf =  0.00732    CDp =  0.00329

 Side 1  free  transition at x/c =  0.5983   55
 Side 2  free  transition at x/c =  0.3808   40

   4   rms: 0.1053E-01   max: -.1527E+00   C at   40  2
       a =  0.500      CL =  0.4908
      Cm = -0.0694     CD =  0.01061   =>   CDf =  0.00735    CDp =  0.00326

 Side 1  free  transition at x/c =  0.5983   55
 Side 2  free  transition at x/c =  0.3810   40

   5   rms: 0.1034E-01   max: -.1526E+00   C at   40  2
       a =  0.500      CL =  0.4908
      Cm = -0.0694     CD =  0.01061   =>   CDf =  0.00735    CDp =  0.00326

 Side 1  free  transition at x/c =  0.5983   55
 Side 2  free  transition at x/c =  0.3810   40

   6   rms: 0.1037E-01   max: -.1526E+00   C at   40  2
       a =  0.500      CL =  0.4908
      Cm = -0.0694     CD =  0.01061   =>   CDf =  0.00735    CDp =  0.00326

 Side 1  free  transition at x/c =  0.5983   55
 Side 2  free  transition at x/c =  0.3810   40

   7   rms: 0.1036E-01   max: -.1526E+00   C at   40  2
       a =  0.500      CL =  0.4908
      Cm = -0.0694     CD =  0.01061   =>   CDf =  0.00735    CDp =  0.00326

 Side 1  free  transition at x/c =  0.5983   55
 Side 2  free  transition at x/c =  0.3810   40

   8   rms: 0.1036E-01   max: -.1526E+00   C at   40  2
       a =  0.500      CL =  0.4908
      Cm = -0.0694     CD =  0.01061   =>   CDf =  0.00735    CDp =  0.00326

 Side 1  free  transition at x/c =  0.5983   55
 Side 2  free  transition at x/c =  0.3810   40

   9   rms: 0.1036E-01   max: -.1526E+00   C at   40  2
       a =  0.500      CL =  0.4908
      Cm = -0.0694     CD =  0.01061   =>   CDf =  0.00735    CDp =  0.00326

 Side 1  free  transition at x/c =  0.5983   55
 Side 2  free  transition at x/c =  0.3810   40

  10   rms: 0.1036E-01   max: -.1526E+00   C at   40  2
       a =  0.500      CL =  0.4908
      Cm = -0.0694     CD =  0.01061   =>   CDf =  0.00735    CDp =  0.00326

 Side 1  free  transition at x/c =  0.5983   55
 Side 2  free  transition at x/c =  0.3810   40

  11   rms: 0.1036E-01   max: -.1526E+00   C at   40  2
       a =  0.500      CL =  0.4908
      Cm = -0.0694     CD =  0.01061   =>   CDf =  0.00735    CDp =  0.00326

 Side 1  free  transition at x/c =  0.5983   55
 Side 2  free  transition at x/c =  0.3810   40

  12   rms: 0.1036E-01   max: -.1526E+00   C at   40  2
       a =  0.500      CL =  0.4908
      Cm = -0.0694     CD =  0.01061   =>   CDf =  0.00735    CDp =  0.00326

 Side 1  free  transition at x/c =  0.5983   55
 Side 2  free  transition at x/c =  0.3810   40

  13   rms: 0.1036E-01   max: -.1526E+00   C at   40  2
       a =  0.500      CL =  0.4908
      Cm = -0.0694     CD =  0.01061   =>   CDf =  0.00735    CDp =  0.00326

 Side 1  free  transition at x/c =  0.5983   55
 Side 2  free  transition at x/c =  0.3810   40

  14   rms: 0.1036E-01   max: -.1526E+00   C at   40  2
       a =  0.500      CL =  0.4908
      Cm = -0.0694     CD =  0.01061   =>   CDf =  0.00735    CDp =  0.00326

 Side 1  free  transition at x/c =  0.5983   55
 Side 2  free  transition at x/c =  0.3810   40

  15   rms: 0.1036E-01   max: -.1526E+00   C at   40  2
       a =  0.500      CL =  0.4908
      Cm = -0.0694     CD =  0.01061   =>   CDf =  0.00735    CDp =  0.00326

 Side 1  free  transition at x/c =  0.5983   55
 Side 2  free  transition at x/c =  0.3810   40

  16   rms: 0.1036E-01   max: -.1526E+00   C at   40  2
       a =  0.500      CL =  0.4908
      Cm = -0.0694     CD =  0.01061   =>   CDf =  0.00735    CDp =  0.00326

 Side 1  free  transition at x/c =  0.5983   55
 Side 2  free  transition at x/c =  0.3810   40

  17   rms: 0.1036E-01   max: -.1526E+00   C at   40  2
       a =  0.500      CL =  0.4908
      Cm = -0.0694     CD =  0.01061   =>   CDf =  0.00735    CDp =  0.00326

 Side 1  free  transition at x/c =  0.5983   55
 Side 2  free  transition at x/c =  0.3810   40

  18   rms: 0.1036E-01   max: -.1526E+00   C at   40  2
       a =  0.500      CL =  0.4908
      Cm = -0.0694     CD =  0.01061   =>   CDf =  0.00735    CDp =  0.00326

 Side 1  free  transition at x/c =  0.5983   55
 Side 2  free  transition at x/c =  0.3810   40

  19   rms: 0.1036E-01   max: -.1526E+00   C at   40  2
       a =  0.500      CL =  0.4908
      Cm = -0.0694     CD =  0.01061   =>   CDf =  0.00735    CDp =  0.00326

 Side 1  free  transition at x/c =  0.5983   55
 Side 2  free  transition at x/c =  0.3810   40

  20   rms: 0.1036E-01   max: -.1526E+00   C at   40  2
       a =  0.500      CL =  0.4908
      Cm = -0.0694     CD =  0.01061   =>   CDf =  0.00735    CDp =  0.00326

 Side 1  free  transition at x/c =  0.5983   55
 Side 2  free  transition at x/c =  0.3810   40

  21   rms: 0.1036E-01   max: -.1526E+00   C at   40  2
       a =  0.500      CL =  0.4908
      Cm = -0.0694     CD =  0.01061   =>   CDf =  0.00735    CDp =  0.00326

 Side 1  free  transition at x/c =  0.5983   55
 Side 2  free  transition at x/c =  0.3810   40

  22   rms: 0.1036E-01   max: -.1526E+00   C at   40  2
       a =  0.500      CL =  0.4908
      Cm = -0.0694     CD =  0.01061   =>   CDf =  0.00735    CDp =  0.00326

 Side 1  free  transition at x/c =  0.5983   55
 Side 2  free  transition at x/c =  0.3810   40

  23   rms: 0.1036E-01   max: -.1526E+00   C at   40  2
       a =  0.500      CL =  0.4908
      Cm = -0.0694     CD =  0.01061   =>   CDf =  0.00735    CDp =  0.00326

 Side 1  free  transition at x/c =  0.5983   55
 Side 2  free  transition at x/c =  0.3810   40

  24   rms: 0.1036E-01   max: -.1526E+00   C at   40  2
       a =  0.500      CL =  0.4908
      Cm = -0.0694     CD =  0.01061   =>   CDf =  0.00735    CDp =  0.00326

 Side 1  free  transition at x/c =  0.5983   55
 Side 2  free  transition at x/c =  0.3810   40

  25   rms: 0.1036E-01   max: -.1526E+00   C at   40  2
       a =  0.500      CL =  0.4908
      Cm = -0.0694     CD =  0.01061   =>   CDf =  0.00735    CDp =  0.00326

 Side 1  free  transition at x/c =  0.5983   55
 Side 2  free  transition at x/c =  0.3810   40

  26   rms: 0.1036E-01   max: -.1526E+00   C at   40  2
       a =  0.500      CL =  0.4908
      Cm = -0.0694     CD =  0.01061   =>   CDf =  0.00735    CDp =  0.00326

 Side 1  free  transition at x/c =  0.5983   55
 Side 2  free  transition at x/c =  0.3810   40

  27   rms: 0.1036E-01   max: -.1526E+00   C at   40  2
       a =  0.500      CL =  0.4908
      Cm = -0.0694     CD =  0.01061   =>   CDf =  0.00735    CDp =  0.00326

 Side 1  free  transition at x/c =  0.5983   55
 Side 2  free  transition at x/c =  0.3810   40

  28   rms: 0.1036E-01   max: -.1526E+00   C at   40  2
       a =  0.500      CL =  0.4908
      Cm = -0.0694     CD =  0.01061   =>   CDf =  0.00735    CDp =  0.00326

 Side 1  free  transition at x/c =  0.5983   55
 Side 2  free  transition at x/c =  0.3810   40

  29   rms: 0.1036E-01   max: -.1526E+00   C at   40  2
       a =  0.500      CL =  0.4908
      Cm = -0.0694     CD =  0.01061   =>   CDf =  0.00735    CDp =  0.00326

 Side 1  free  transition at x/c =  0.5983   55
 Side 2  free  transition at x/c =  0.3810   40

  30   rms: 0.1036E-01   max: -.1526E+00   C at   40  2
       a =  0.500      CL =  0.4908
      Cm = -0.0694     CD =  0.01061   =>   CDf =  0.00735    CDp =  0.00326

 Side 1  free  transition at x/c =  0.5983   55
 Side 2  free  transition at x/c =  0.3810   40

  31   rms: 0.1036E-01   max: -.1526E+00   C at   40  2
       a =  0.500      CL =  0.4908
      Cm = -0.0694     CD =  0.01061   =>   CDf =  0.00735    CDp =  0.00326

 Side 1  free  transition at x/c =  0.5983   55
 Side 2  free  transition at x/c =  0.3810   40

  32   rms: 0.1036E-01   max: -.1526E+00   C at   40  2
       a =  0.500      CL =  0.4908
      Cm = -0.0694     CD =  0.01061   =>   CDf =  0.00735    CDp =  0.00326

 Side 1  free  transition at x/c =  0.5983   55
 Side 2  free  transition at x/c =  0.3810   40

  33   rms: 0.1036E-01   max: -.1526E+00   C at   40  2
       a =  0.500      CL =  0.4908
      Cm = -0.0694     CD =  0.01061   =>   CDf =  0.00735    CDp =  0.00326

 Side 1  free  transition at x/c =  0.5983   55
 Side 2  free  transition at x/c =  0.3810   40

  34   rms: 0.1036E-01   max: -.1526E+00   C at   40  2
       a =  0.500      CL =  0.4908
      Cm = -0.0694     CD =  0.01061   =>   CDf =  0.00735    CDp =  0.00326

 Side 1  free  transition at x/c =  0.5983   55
 Side 2  free  transition at x/c =  0.3810   40

  35   rms: 0.1036E-01   max: -.1526E+00   C at   40  2
       a =  0.500      CL =  0.4908
      Cm = -0.0694     CD =  0.01061   =>   CDf =  0.00735    CDp =  0.00326

 Side 1  free  transition at x/c =  0.5983   55
 Side 2  free  transition at x/c =  0.3810   40

  36   rms: 0.1036E-01   max: -.1526E+00   C at   40  2
       a =  0.500      CL =  0.4908
      Cm = -0.0694     CD =  0.01061   =>   CDf =  0.00735    CDp =  0.00326

 Side 1  free  transition at x/c =  0.5983   55
 Side 2  free  transition at x/c =  0.3810   40

  37   rms: 0.1036E-01   max: -.1526E+00   C at   40  2
       a =  0.500      CL =  0.4908
      Cm = -0.0694     CD =  0.01061   =>   CDf =  0.00735    CDp =  0.00326

 Side 1  free  transition at x/c =  0.5983   55
 Side 2  free  transition at x/c =  0.3810   40

  38   rms: 0.1036E-01   max: -.1526E+00   C at   40  2
       a =  0.500      CL =  0.4908
      Cm = -0.0694     CD =  0.01061   =>   CDf =  0.00735    CDp =  0.00326

 Side 1  free  transition at x/c =  0.5983   55
 Side 2  free  transition at x/c =  0.3810   40

  39   rms: 0.1036E-01   max: -.1526E+00   C at   40  2
       a =  0.500      CL =  0.4908
      Cm = -0.0694     CD =  0.01061   =>   CDf =  0.00735    CDp =  0.00326

 Side 1  free  transition at x/c =  0.5983   55
 Side 2  free  transition at x/c =  0.3810   40

  40   rms: 0.1036E-01   max: -.1526E+00   C at   40  2
       a =  0.500      CL =  0.4908
      Cm = -0.0694     CD =  0.01061   =>   CDf =  0.00735    CDp =  0.00326

 Side 1  free  transition at x/c =  0.5983   55
 Side 2  free  transition at x/c =  0.3810   40

  41   rms: 0.1036E-01   max: -.1526E+00   C at   40  2
       a =  0.500      CL =  0.4908
      Cm = -0.0694     CD =  0.01061   =>   CDf =  0.00735    CDp =  0.00326

 Side 1  free  transition at x/c =  0.5983   55
 Side 2  free  transition at x/c =  0.3810   40

  42   rms: 0.1036E-01   max: -.1526E+00   C at   40  2
       a =  0.500      CL =  0.4908
      Cm = -0.0694     CD =  0.01061   =>   CDf =  0.00735    CDp =  0.00326

 Side 1  free  transition at x/c =  0.5983   55
 Side 2  free  transition at x/c =  0.3810   40

  43   rms: 0.1036E-01   max: -.1526E+00   C at   40  2
       a =  0.500      CL =  0.4908
      Cm = -0.0694     CD =  0.01061   =>   CDf =  0.00735    CDp =  0.00326

 Side 1  free  transition at x/c =  0.5983   55
 Side 2  free  transition at x/c =  0.3810   40

  44   rms: 0.1036E-01   max: -.1526E+00   C at   40  2
       a =  0.500      CL =  0.4908
      Cm = -0.0694     CD =  0.01061   =>   CDf =  0.00735    CDp =  0.00326

 Side 1  free  transition at x/c =  0.5983   55
 Side 2  free  transition at x/c =  0.3810   40

  45   rms: 0.1036E-01   max: -.1526E+00   C at   40  2
       a =  0.500      CL =  0.4908
      Cm = -0.0694     CD =  0.01061   =>   CDf =  0.00735    CDp =  0.00326

 Side 1  free  transition at x/c =  0.5983   55
 Side 2  free  transition at x/c =  0.3810   40

  46   rms: 0.1036E-01   max: -.1526E+00   C at   40  2
       a =  0.500      CL =  0.4908
      Cm = -0.0694     CD =  0.01061   =>   CDf =  0.00735    CDp =  0.00326

 Side 1  free  transition at x/c =  0.5983   55
 Side 2  free  transition at x/c =  0.3810   40

  47   rms: 0.1036E-01   max: -.1526E+00   C at   40  2
       a =  0.500      CL =  0.4908
      Cm = -0.0694     CD =  0.01061   =>   CDf =  0.00735    CDp =  0.00326

 Side 1  free  transition at x/c =  0.5983   55
 Side 2  free  transition at x/c =  0.3810   40

  48   rms: 0.1036E-01   max: -.1526E+00   C at   40  2
       a =  0.500      CL =  0.4908
      Cm = -0.0694     CD =  0.01061   =>   CDf =  0.00735    CDp =  0.00326

 Side 1  free  transition at x/c =  0.5983   55
 Side 2  free  transition at x/c =  0.3810   40

  49   rms: 0.1036E-01   max: -.1526E+00   C at   40  2
       a =  0.500      CL =  0.4908
      Cm = -0.0694     CD =  0.01061   =>   CDf =  0.00735    CDp =  0.00326

 Side 1  free  transition at x/c =  0.5983   55
 Side 2  free  transition at x/c =  0.3810   40

  50   rms: 0.1036E-01   max: -.1526E+00   C at   40  2
       a =  0.500      CL =  0.4908
      Cm = -0.0694     CD =  0.01061   =>   CDf =  0.00735    CDp =  0.00326

 Side 1  free  transition at x/c =  0.5983   55
 Side 2  free  transition at x/c =  0.3810   40

  51   rms: 0.1036E-01   max: -.1526E+00   C at   40  2
       a =  0.500      CL =  0.4908
      Cm = -0.0694     CD =  0.01061   =>   CDf =  0.00735    CDp =  0.00326

 Side 1  free  transition at x/c =  0.5983   55
 Side 2  free  transition at x/c =  0.3810   40

  52   rms: 0.1036E-01   max: -.1526E+00   C at   40  2
       a =  0.500      CL =  0.4908
      Cm = -0.0694     CD =  0.01061   =>   CDf =  0.00735    CDp =  0.00326

 Side 1  free  transition at x/c =  0.5983   55
 Side 2  free  transition at x/c =  0.3810   40

  53   rms: 0.1036E-01   max: -.1526E+00   C at   40  2
       a =  0.500      CL =  0.4908
      Cm = -0.0694     CD =  0.01061   =>   CDf =  0.00735    CDp =  0.00326

 Side 1  free  transition at x/c =  0.5983   55
 Side 2  free  transition at x/c =  0.3810   40

  54   rms: 0.1036E-01   max: -.1526E+00   C at   40  2
       a =  0.500      CL =  0.4908
      Cm = -0.0694     CD =  0.01061   =>   CDf =  0.00735    CDp =  0.00326

 Side 1  free  transition at x/c =  0.5983   55
 Side 2  free  transition at x/c =  0.3810   40

  55   rms: 0.1036E-01   max: -.1526E+00   C at   40  2
       a =  0.500      CL =  0.4908
      Cm = -0.0694     CD =  0.01061   =>   CDf =  0.00735    CDp =  0.00326

 Side 1  free  transition at x/c =  0.5983   55
 Side 2  free  transition at x/c =  0.3810   40

  56   rms: 0.1036E-01   max: -.1526E+00   C at   40  2
       a =  0.500      CL =  0.4908
      Cm = -0.0694     CD =  0.01061   =>   CDf =  0.00735    CDp =  0.00326

 Side 1  free  transition at x/c =  0.5983   55
 Side 2  free  transition at x/c =  0.3810   40

  57   rms: 0.1036E-01   max: -.1526E+00   C at   40  2
       a =  0.500      CL =  0.4908
      Cm = -0.0694     CD =  0.01061   =>   CDf =  0.00735    CDp =  0.00326

 Side 1  free  transition at x/c =  0.5983   55
 Side 2  free  transition at x/c =  0.3810   40

  58   rms: 0.1036E-01   max: -.1526E+00   C at   40  2
       a =  0.500      CL =  0.4908
      Cm = -0.0694     CD =  0.01061   =>   CDf =  0.00735    CDp =  0.00326

 Side 1  free  transition at x/c =  0.5983   55
 Side 2  free  transition at x/c =  0.3810   40

  59   rms: 0.1036E-01   max: -.1526E+00   C at   40  2
       a =  0.500      CL =  0.4908
      Cm = -0.0694     CD =  0.01061   =>   CDf =  0.00735    CDp =  0.00326

 Side 1  free  transition at x/c =  0.5983   55
 Side 2  free  transition at x/c =  0.3810   40

  60   rms: 0.1036E-01   max: -.1526E+00   C at   40  2
       a =  0.500      CL =  0.4908
      Cm = -0.0694     CD =  0.01061   =>   CDf =  0.00735    CDp =  0.00326

 Side 1  free  transition at x/c =  0.5983   55
 Side 2  free  transition at x/c =  0.3810   40

  61   rms: 0.1036E-01   max: -.1526E+00   C at   40  2
       a =  0.500      CL =  0.4908
      Cm = -0.0694     CD =  0.01061   =>   CDf =  0.00735    CDp =  0.00326

 Side 1  free  transition at x/c =  0.5983   55
 Side 2  free  transition at x/c =  0.3810   40

  62   rms: 0.1036E-01   max: -.1526E+00   C at   40  2
       a =  0.500      CL =  0.4908
      Cm = -0.0694     CD =  0.01061   =>   CDf =  0.00735    CDp =  0.00326

 Side 1  free  transition at x/c =  0.5983   55
 Side 2  free  transition at x/c =  0.3810   40

  63   rms: 0.1036E-01   max: -.1526E+00   C at   40  2
       a =  0.500      CL =  0.4908
      Cm = -0.0694     CD =  0.01061   =>   CDf =  0.00735    CDp =  0.00326

 Side 1  free  transition at x/c =  0.5983   55
 Side 2  free  transition at x/c =  0.3810   40

  64   rms: 0.1036E-01   max: -.1526E+00   C at   40  2
       a =  0.500      CL =  0.4908
      Cm = -0.0694     CD =  0.01061   =>   CDf =  0.00735    CDp =  0.00326

 Side 1  free  transition at x/c =  0.5983   55
 Side 2  free  transition at x/c =  0.3810   40

  65   rms: 0.1036E-01   max: -.1526E+00   C at   40  2
       a =  0.500      CL =  0.4908
      Cm = -0.0694     CD =  0.01061   =>   CDf =  0.00735    CDp =  0.00326

 Side 1  free  transition at x/c =  0.5983   55
 Side 2  free  transition at x/c =  0.3810   40

  66   rms: 0.1036E-01   max: -.1526E+00   C at   40  2
       a =  0.500      CL =  0.4908
      Cm = -0.0694     CD =  0.01061   =>   CDf =  0.00735    CDp =  0.00326

 Side 1  free  transition at x/c =  0.5983   55
 Side 2  free  transition at x/c =  0.3810   40

  67   rms: 0.1036E-01   max: -.1526E+00   C at   40  2
       a =  0.500      CL =  0.4908
      Cm = -0.0694     CD =  0.01061   =>   CDf =  0.00735    CDp =  0.00326

 Side 1  free  transition at x/c =  0.5983   55
 Side 2  free  transition at x/c =  0.3810   40

  68   rms: 0.1036E-01   max: -.1526E+00   C at   40  2
       a =  0.500      CL =  0.4908
      Cm = -0.0694     CD =  0.01061   =>   CDf =  0.00735    CDp =  0.00326

 Side 1  free  transition at x/c =  0.5983   55
 Side 2  free  transition at x/c =  0.3810   40

  69   rms: 0.1036E-01   max: -.1526E+00   C at   40  2
       a =  0.500      CL =  0.4908
      Cm = -0.0694     CD =  0.01061   =>   CDf =  0.00735    CDp =  0.00326

 Side 1  free  transition at x/c =  0.5983   55
 Side 2  free  transition at x/c =  0.3810   40

  70   rms: 0.1036E-01   max: -.1526E+00   C at   40  2
       a =  0.500      CL =  0.4908
      Cm = -0.0694     CD =  0.01061   =>   CDf =  0.00735    CDp =  0.00326

 Side 1  free  transition at x/c =  0.5983   55
 Side 2  free  transition at x/c =  0.3810   40

  71   rms: 0.1036E-01   max: -.1526E+00   C at   40  2
       a =  0.500      CL =  0.4908
      Cm = -0.0694     CD =  0.01061   =>   CDf =  0.00735    CDp =  0.00326

 Side 1  free  transition at x/c =  0.5983   55
 Side 2  free  transition at x/c =  0.3810   40

  72   rms: 0.1036E-01   max: -.1526E+00   C at   40  2
       a =  0.500      CL =  0.4908
      Cm = -0.0694     CD =  0.01061   =>   CDf =  0.00735    CDp =  0.00326

 Side 1  free  transition at x/c =  0.5983   55
 Side 2  free  transition at x/c =  0.3810   40

  73   rms: 0.1036E-01   max: -.1526E+00   C at   40  2
       a =  0.500      CL =  0.4908
      Cm = -0.0694     CD =  0.01061   =>   CDf =  0.00735    CDp =  0.00326

 Side 1  free  transition at x/c =  0.5983   55
 Side 2  free  transition at x/c =  0.3810   40

  74   rms: 0.1036E-01   max: -.1526E+00   C at   40  2
       a =  0.500      CL =  0.4908
      Cm = -0.0694     CD =  0.01061   =>   CDf =  0.00735    CDp =  0.00326

 Side 1  free  transition at x/c =  0.5983   55
 Side 2  free  transition at x/c =  0.3810   40

  75   rms: 0.1036E-01   max: -.1526E+00   C at   40  2
       a =  0.500      CL =  0.4908
      Cm = -0.0694     CD =  0.01061   =>   CDf =  0.00735    CDp =  0.00326

 Side 1  free  transition at x/c =  0.5983   55
 Side 2  free  transition at x/c =  0.3810   40

  76   rms: 0.1036E-01   max: -.1526E+00   C at   40  2
       a =  0.500      CL =  0.4908
      Cm = -0.0694     CD =  0.01061   =>   CDf =  0.00735    CDp =  0.00326

 Side 1  free  transition at x/c =  0.5983   55
 Side 2  free  transition at x/c =  0.3810   40

  77   rms: 0.1036E-01   max: -.1526E+00   C at   40  2
       a =  0.500      CL =  0.4908
      Cm = -0.0694     CD =  0.01061   =>   CDf =  0.00735    CDp =  0.00326

 Side 1  free  transition at x/c =  0.5983   55
 Side 2  free  transition at x/c =  0.3810   40

  78   rms: 0.1036E-01   max: -.1526E+00   C at   40  2
       a =  0.500      CL =  0.4908
      Cm = -0.0694     CD =  0.01061   =>   CDf =  0.00735    CDp =  0.00326

 Side 1  free  transition at x/c =  0.5983   55
 Side 2  free  transition at x/c =  0.3810   40

  79   rms: 0.1036E-01   max: -.1526E+00   C at   40  2
       a =  0.500      CL =  0.4908
      Cm = -0.0694     CD =  0.01061   =>   CDf =  0.00735    CDp =  0.00326

 Side 1  free  transition at x/c =  0.5983   55
 Side 2  free  transition at x/c =  0.3810   40

  80   rms: 0.1036E-01   max: -.1526E+00   C at   40  2
       a =  0.500      CL =  0.4908
      Cm = -0.0694     CD =  0.01061   =>   CDf =  0.00735    CDp =  0.00326

 Side 1  free  transition at x/c =  0.5983   55
 Side 2  free  transition at x/c =  0.3810   40

  81   rms: 0.1036E-01   max: -.1526E+00   C at   40  2
       a =  0.500      CL =  0.4908
      Cm = -0.0694     CD =  0.01061   =>   CDf =  0.00735    CDp =  0.00326

 Side 1  free  transition at x/c =  0.5983   55
 Side 2  free  transition at x/c =  0.3810   40

  82   rms: 0.1036E-01   max: -.1526E+00   C at   40  2
       a =  0.500      CL =  0.4908
      Cm = -0.0694     CD =  0.01061   =>   CDf =  0.00735    CDp =  0.00326

 Side 1  free  transition at x/c =  0.5983   55
 Side 2  free  transition at x/c =  0.3810   40

  83   rms: 0.1036E-01   max: -.1526E+00   C at   40  2
       a =  0.500      CL =  0.4908
      Cm = -0.0694     CD =  0.01061   =>   CDf =  0.00735    CDp =  0.00326

 Side 1  free  transition at x/c =  0.5983   55
 Side 2  free  transition at x/c =  0.3810   40

  84   rms: 0.1036E-01   max: -.1526E+00   C at   40  2
       a =  0.500      CL =  0.4908
      Cm = -0.0694     CD =  0.01061   =>   CDf =  0.00735    CDp =  0.00326

 Side 1  free  transition at x/c =  0.5983   55
 Side 2  free  transition at x/c =  0.3810   40

  85   rms: 0.1036E-01   max: -.1526E+00   C at   40  2
       a =  0.500      CL =  0.4908
      Cm = -0.0694     CD =  0.01061   =>   CDf =  0.00735    CDp =  0.00326

 Side 1  free  transition at x/c =  0.5983   55
 Side 2  free  transition at x/c =  0.3810   40

  86   rms: 0.1036E-01   max: -.1526E+00   C at   40  2
       a =  0.500      CL =  0.4908
      Cm = -0.0694     CD =  0.01061   =>   CDf =  0.00735    CDp =  0.00326

 Side 1  free  transition at x/c =  0.5983   55
 Side 2  free  transition at x/c =  0.3810   40

  87   rms: 0.1036E-01   max: -.1526E+00   C at   40  2
       a =  0.500      CL =  0.4908
      Cm = -0.0694     CD =  0.01061   =>   CDf =  0.00735    CDp =  0.00326

 Side 1  free  transition at x/c =  0.5983   55
 Side 2  free  transition at x/c =  0.3810   40

  88   rms: 0.1036E-01   max: -.1526E+00   C at   40  2
       a =  0.500      CL =  0.4908
      Cm = -0.0694     CD =  0.01061   =>   CDf =  0.00735    CDp =  0.00326

 Side 1  free  transition at x/c =  0.5983   55
 Side 2  free  transition at x/c =  0.3810   40

  89   rms: 0.1036E-01   max: -.1526E+00   C at   40  2
       a =  0.500      CL =  0.4908
      Cm = -0.0694     CD =  0.01061   =>   CDf =  0.00735    CDp =  0.00326

 Side 1  free  transition at x/c =  0.5983   55
 Side 2  free  transition at x/c =  0.3810   40

  90   rms: 0.1036E-01   max: -.1526E+00   C at   40  2
       a =  0.500      CL =  0.4908
      Cm = -0.0694     CD =  0.01061   =>   CDf =  0.00735    CDp =  0.00326

 Side 1  free  transition at x/c =  0.5983   55
 Side 2  free  transition at x/c =  0.3810   40

  91   rms: 0.1036E-01   max: -.1526E+00   C at   40  2
       a =  0.500      CL =  0.4908
      Cm = -0.0694     CD =  0.01061   =>   CDf =  0.00735    CDp =  0.00326

 Side 1  free  transition at x/c =  0.5983   55
 Side 2  free  transition at x/c =  0.3810   40

  92   rms: 0.1036E-01   max: -.1526E+00   C at   40  2
       a =  0.500      CL =  0.4908
      Cm = -0.0694     CD =  0.01061   =>   CDf =  0.00735    CDp =  0.00326

 Side 1  free  transition at x/c =  0.5983   55
 Side 2  free  transition at x/c =  0.3810   40

  93   rms: 0.1036E-01   max: -.1526E+00   C at   40  2
       a =  0.500      CL =  0.4908
      Cm = -0.0694     CD =  0.01061   =>   CDf =  0.00735    CDp =  0.00326

 Side 1  free  transition at x/c =  0.5983   55
 Side 2  free  transition at x/c =  0.3810   40

  94   rms: 0.1036E-01   max: -.1526E+00   C at   40  2
       a =  0.500      CL =  0.4908
      Cm = -0.0694     CD =  0.01061   =>   CDf =  0.00735    CDp =  0.00326

 Side 1  free  transition at x/c =  0.5983   55
 Side 2  free  transition at x/c =  0.3810   40

  95   rms: 0.1036E-01   max: -.1526E+00   C at   40  2
       a =  0.500      CL =  0.4908
      Cm = -0.0694     CD =  0.01061   =>   CDf =  0.00735    CDp =  0.00326

 Side 1  free  transition at x/c =  0.5983   55
 Side 2  free  transition at x/c =  0.3810   40

  96   rms: 0.1036E-01   max: -.1526E+00   C at   40  2
       a =  0.500      CL =  0.4908
      Cm = -0.0694     CD =  0.01061   =>   CDf =  0.00735    CDp =  0.00326

 Side 1  free  transition at x/c =  0.5983   55
 Side 2  free  transition at x/c =  0.3810   40

  97   rms: 0.1036E-01   max: -.1526E+00   C at   40  2
       a =  0.500      CL =  0.4908
      Cm = -0.0694     CD =  0.01061   =>   CDf =  0.00735    CDp =  0.00326

 Side 1  free  transition at x/c =  0.5983   55
 Side 2  free  transition at x/c =  0.3810   40

  98   rms: 0.1036E-01   max: -.1526E+00   C at   40  2
       a =  0.500      CL =  0.4908
      Cm = -0.0694     CD =  0.01061   =>   CDf =  0.00735    CDp =  0.00326

 Side 1  free  transition at x/c =  0.5983   55
 Side 2  free  transition at x/c =  0.3810   40

  99   rms: 0.1036E-01   max: -.1526E+00   C at   40  2
       a =  0.500      CL =  0.4908
      Cm = -0.0694     CD =  0.01061   =>   CDf =  0.00735    CDp =  0.00326

 Side 1  free  transition at x/c =  0.5983   55
 Side 2  free  transition at x/c =  0.3810   40

 100   rms: 0.1036E-01   max: -.1526E+00   C at   40  2
       a =  0.500      CL =  0.4908
      Cm = -0.0694     CD =  0.01061   =>   CDf =  0.00735    CDp =  0.00326

 Side 1  free  transition at x/c =  0.5983   55
 Side 2  free  transition at x/c =  0.3810   40

 101   rms: 0.1036E-01   max: -.1526E+00   C at   40  2
       a =  0.500      CL =  0.4908
      Cm = -0.0694     CD =  0.01061   =>   CDf =  0.00735    CDp =  0.00326

 Side 1  free  transition at x/c =  0.5983   55
 Side 2  free  transition at x/c =  0.3810   40

 102   rms: 0.1036E-01   max: -.1526E+00   C at   40  2
       a =  0.500      CL =  0.4908
      Cm = -0.0694     CD =  0.01061   =>   CDf =  0.00735    CDp =  0.00326

 Side 1  free  transition at x/c =  0.5983   55
 Side 2  free  transition at x/c =  0.3810   40

 103   rms: 0.1036E-01   max: -.1526E+00   C at   40  2
       a =  0.500      CL =  0.4908
      Cm = -0.0694     CD =  0.01061   =>   CDf =  0.00735    CDp =  0.00326

 Side 1  free  transition at x/c =  0.5983   55
 Side 2  free  transition at x/c =  0.3810   40

 104   rms: 0.1036E-01   max: -.1526E+00   C at   40  2
       a =  0.500      CL =  0.4908
      Cm = -0.0694     CD =  0.01061   =>   CDf =  0.00735    CDp =  0.00326

 Side 1  free  transition at x/c =  0.5983   55
 Side 2  free  transition at x/c =  0.3810   40

 105   rms: 0.1036E-01   max: -.1526E+00   C at   40  2
       a =  0.500      CL =  0.4908
      Cm = -0.0694     CD =  0.01061   =>   CDf =  0.00735    CDp =  0.00326

 Side 1  free  transition at x/c =  0.5983   55
 Side 2  free  transition at x/c =  0.3810   40

 106   rms: 0.1036E-01   max: -.1526E+00   C at   40  2
       a =  0.500      CL =  0.4908
      Cm = -0.0694     CD =  0.01061   =>   CDf =  0.00735    CDp =  0.00326

 Side 1  free  transition at x/c =  0.5983   55
 Side 2  free  transition at x/c =  0.3810   40

 107   rms: 0.1036E-01   max: -.1526E+00   C at   40  2
       a =  0.500      CL =  0.4908
      Cm = -0.0694     CD =  0.01061   =>   CDf =  0.00735    CDp =  0.00326

 Side 1  free  transition at x/c =  0.5983   55
 Side 2  free  transition at x/c =  0.3810   40

 108   rms: 0.1036E-01   max: -.1526E+00   C at   40  2
       a =  0.500      CL =  0.4908
      Cm = -0.0694     CD =  0.01061   =>   CDf =  0.00735    CDp =  0.00326

 Side 1  free  transition at x/c =  0.5983   55
 Side 2  free  transition at x/c =  0.3810   40

 109   rms: 0.1036E-01   max: -.1526E+00   C at   40  2
       a =  0.500      CL =  0.4908
      Cm = -0.0694     CD =  0.01061   =>   CDf =  0.00735    CDp =  0.00326

 Side 1  free  transition at x/c =  0.5983   55
 Side 2  free  transition at x/c =  0.3810   40

 110   rms: 0.1036E-01   max: -.1526E+00   C at   40  2
       a =  0.500      CL =  0.4908
      Cm = -0.0694     CD =  0.01061   =>   CDf =  0.00735    CDp =  0.00326

 Side 1  free  transition at x/c =  0.5983   55
 Side 2  free  transition at x/c =  0.3810   40

 111   rms: 0.1036E-01   max: -.1526E+00   C at   40  2
       a =  0.500      CL =  0.4908
      Cm = -0.0694     CD =  0.01061   =>   CDf =  0.00735    CDp =  0.00326

 Side 1  free  transition at x/c =  0.5983   55
 Side 2  free  transition at x/c =  0.3810   40

 112   rms: 0.1036E-01   max: -.1526E+00   C at   40  2
       a =  0.500      CL =  0.4908
      Cm = -0.0694     CD =  0.01061   =>   CDf =  0.00735    CDp =  0.00326

 Side 1  free  transition at x/c =  0.5983   55
 Side 2  free  transition at x/c =  0.3810   40

 113   rms: 0.1036E-01   max: -.1526E+00   C at   40  2
       a =  0.500      CL =  0.4908
      Cm = -0.0694     CD =  0.01061   =>   CDf =  0.00735    CDp =  0.00326

 Side 1  free  transition at x/c =  0.5983   55
 Side 2  free  transition at x/c =  0.3810   40

 114   rms: 0.1036E-01   max: -.1526E+00   C at   40  2
       a =  0.500      CL =  0.4908
      Cm = -0.0694     CD =  0.01061   =>   CDf =  0.00735    CDp =  0.00326

 Side 1  free  transition at x/c =  0.5983   55
 Side 2  free  transition at x/c =  0.3810   40

 115   rms: 0.1036E-01   max: -.1526E+00   C at   40  2
       a =  0.500      CL =  0.4908
      Cm = -0.0694     CD =  0.01061   =>   CDf =  0.00735    CDp =  0.00326

 Side 1  free  transition at x/c =  0.5983   55
 Side 2  free  transition at x/c =  0.3810   40

 116   rms: 0.1036E-01   max: -.1526E+00   C at   40  2
       a =  0.500      CL =  0.4908
      Cm = -0.0694     CD =  0.01061   =>   CDf =  0.00735    CDp =  0.00326

 Side 1  free  transition at x/c =  0.5983   55
 Side 2  free  transition at x/c =  0.3810   40

 117   rms: 0.1036E-01   max: -.1526E+00   C at   40  2
       a =  0.500      CL =  0.4908
      Cm = -0.0694     CD =  0.01061   =>   CDf =  0.00735    CDp =  0.00326

 Side 1  free  transition at x/c =  0.5983   55
 Side 2  free  transition at x/c =  0.3810   40

 118   rms: 0.1036E-01   max: -.1526E+00   C at   40  2
       a =  0.500      CL =  0.4908
      Cm = -0.0694     CD =  0.01061   =>   CDf =  0.00735    CDp =  0.00326

 Side 1  free  transition at x/c =  0.5983   55
 Side 2  free  transition at x/c =  0.3810   40

 119   rms: 0.1036E-01   max: -.1526E+00   C at   40  2
       a =  0.500      CL =  0.4908
      Cm = -0.0694     CD =  0.01061   =>   CDf =  0.00735    CDp =  0.00326

 Side 1  free  transition at x/c =  0.5983   55
 Side 2  free  transition at x/c =  0.3810   40

 120   rms: 0.1036E-01   max: -.1526E+00   C at   40  2
       a =  0.500      CL =  0.4908
      Cm = -0.0694     CD =  0.01061   =>   CDf =  0.00735    CDp =  0.00326

 Side 1  free  transition at x/c =  0.5983   55
 Side 2  free  transition at x/c =  0.3810   40

 121   rms: 0.1036E-01   max: -.1526E+00   C at   40  2
       a =  0.500      CL =  0.4908
      Cm = -0.0694     CD =  0.01061   =>   CDf =  0.00735    CDp =  0.00326

 Side 1  free  transition at x/c =  0.5983   55
 Side 2  free  transition at x/c =  0.3810   40

 122   rms: 0.1036E-01   max: -.1526E+00   C at   40  2
       a =  0.500      CL =  0.4908
      Cm = -0.0694     CD =  0.01061   =>   CDf =  0.00735    CDp =  0.00326

 Side 1  free  transition at x/c =  0.5983   55
 Side 2  free  transition at x/c =  0.3810   40

 123   rms: 0.1036E-01   max: -.1526E+00   C at   40  2
       a =  0.500      CL =  0.4908
      Cm = -0.0694     CD =  0.01061   =>   CDf =  0.00735    CDp =  0.00326

 Side 1  free  transition at x/c =  0.5983   55
 Side 2  free  transition at x/c =  0.3810   40

 124   rms: 0.1036E-01   max: -.1526E+00   C at   40  2
       a =  0.500      CL =  0.4908
      Cm = -0.0694     CD =  0.01061   =>   CDf =  0.00735    CDp =  0.00326

 Side 1  free  transition at x/c =  0.5983   55
 Side 2  free  transition at x/c =  0.3810   40

 125   rms: 0.1036E-01   max: -.1526E+00   C at   40  2
       a =  0.500      CL =  0.4908
      Cm = -0.0694     CD =  0.01061   =>   CDf =  0.00735    CDp =  0.00326

 Side 1  free  transition at x/c =  0.5983   55
 Side 2  free  transition at x/c =  0.3810   40

 126   rms: 0.1036E-01   max: -.1526E+00   C at   40  2
       a =  0.500      CL =  0.4908
      Cm = -0.0694     CD =  0.01061   =>   CDf =  0.00735    CDp =  0.00326

 Side 1  free  transition at x/c =  0.5983   55
 Side 2  free  transition at x/c =  0.3810   40

 127   rms: 0.1036E-01   max: -.1526E+00   C at   40  2
       a =  0.500      CL =  0.4908
      Cm = -0.0694     CD =  0.01061   =>   CDf =  0.00735    CDp =  0.00326

 Side 1  free  transition at x/c =  0.5983   55
 Side 2  free  transition at x/c =  0.3810   40

 128   rms: 0.1036E-01   max: -.1526E+00   C at   40  2
       a =  0.500      CL =  0.4908
      Cm = -0.0694     CD =  0.01061   =>   CDf =  0.00735    CDp =  0.00326

 Side 1  free  transition at x/c =  0.5983   55
 Side 2  free  transition at x/c =  0.3810   40

 129   rms: 0.1036E-01   max: -.1526E+00   C at   40  2
       a =  0.500      CL =  0.4908
      Cm = -0.0694     CD =  0.01061   =>   CDf =  0.00735    CDp =  0.00326

 Side 1  free  transition at x/c =  0.5983   55
 Side 2  free  transition at x/c =  0.3810   40

 130   rms: 0.1036E-01   max: -.1526E+00   C at   40  2
       a =  0.500      CL =  0.4908
      Cm = -0.0694     CD =  0.01061   =>   CDf =  0.00735    CDp =  0.00326

 Side 1  free  transition at x/c =  0.5983   55
 Side 2  free  transition at x/c =  0.3810   40

 131   rms: 0.1036E-01   max: -.1526E+00   C at   40  2
       a =  0.500      CL =  0.4908
      Cm = -0.0694     CD =  0.01061   =>   CDf =  0.00735    CDp =  0.00326

 Side 1  free  transition at x/c =  0.5983   55
 Side 2  free  transition at x/c =  0.3810   40

 132   rms: 0.1036E-01   max: -.1526E+00   C at   40  2
       a =  0.500      CL =  0.4908
      Cm = -0.0694     CD =  0.01061   =>   CDf =  0.00735    CDp =  0.00326

 Side 1  free  transition at x/c =  0.5983   55
 Side 2  free  transition at x/c =  0.3810   40

 133   rms: 0.1036E-01   max: -.1526E+00   C at   40  2
       a =  0.500      CL =  0.4908
      Cm = -0.0694     CD =  0.01061   =>   CDf =  0.00735    CDp =  0.00326

 Side 1  free  transition at x/c =  0.5983   55
 Side 2  free  transition at x/c =  0.3810   40

 134   rms: 0.1036E-01   max: -.1526E+00   C at   40  2
       a =  0.500      CL =  0.4908
      Cm = -0.0694     CD =  0.01061   =>   CDf =  0.00735    CDp =  0.00326

 Side 1  free  transition at x/c =  0.5983   55
 Side 2  free  transition at x/c =  0.3810   40

 135   rms: 0.1036E-01   max: -.1526E+00   C at   40  2
       a =  0.500      CL =  0.4908
      Cm = -0.0694     CD =  0.01061   =>   CDf =  0.00735    CDp =  0.00326

 Side 1  free  transition at x/c =  0.5983   55
 Side 2  free  transition at x/c =  0.3810   40

 136   rms: 0.1036E-01   max: -.1526E+00   C at   40  2
       a =  0.500      CL =  0.4908
      Cm = -0.0694     CD =  0.01061   =>   CDf =  0.00735    CDp =  0.00326

 Side 1  free  transition at x/c =  0.5983   55
 Side 2  free  transition at x/c =  0.3810   40

 137   rms: 0.1036E-01   max: -.1526E+00   C at   40  2
       a =  0.500      CL =  0.4908
      Cm = -0.0694     CD =  0.01061   =>   CDf =  0.00735    CDp =  0.00326

 Side 1  free  transition at x/c =  0.5983   55
 Side 2  free  transition at x/c =  0.3810   40

 138   rms: 0.1036E-01   max: -.1526E+00   C at   40  2
       a =  0.500      CL =  0.4908
      Cm = -0.0694     CD =  0.01061   =>   CDf =  0.00735    CDp =  0.00326

 Side 1  free  transition at x/c =  0.5983   55
 Side 2  free  transition at x/c =  0.3810   40

 139   rms: 0.1036E-01   max: -.1526E+00   C at   40  2
       a =  0.500      CL =  0.4908
      Cm = -0.0694     CD =  0.01061   =>   CDf =  0.00735    CDp =  0.00326

 Side 1  free  transition at x/c =  0.5983   55
 Side 2  free  transition at x/c =  0.3810   40

 140   rms: 0.1036E-01   max: -.1526E+00   C at   40  2
       a =  0.500      CL =  0.4908
      Cm = -0.0694     CD =  0.01061   =>   CDf =  0.00735    CDp =  0.00326

 Side 1  free  transition at x/c =  0.5983   55
 Side 2  free  transition at x/c =  0.3810   40

 141   rms: 0.1036E-01   max: -.1526E+00   C at   40  2
       a =  0.500      CL =  0.4908
      Cm = -0.0694     CD =  0.01061   =>   CDf =  0.00735    CDp =  0.00326

 Side 1  free  transition at x/c =  0.5983   55
 Side 2  free  transition at x/c =  0.3810   40

 142   rms: 0.1036E-01   max: -.1526E+00   C at   40  2
       a =  0.500      CL =  0.4908
      Cm = -0.0694     CD =  0.01061   =>   CDf =  0.00735    CDp =  0.00326

 Side 1  free  transition at x/c =  0.5983   55
 Side 2  free  transition at x/c =  0.3810   40

 143   rms: 0.1036E-01   max: -.1526E+00   C at   40  2
       a =  0.500      CL =  0.4908
      Cm = -0.0694     CD =  0.01061   =>   CDf =  0.00735    CDp =  0.00326

 Side 1  free  transition at x/c =  0.5983   55
 Side 2  free  transition at x/c =  0.3810   40

 144   rms: 0.1036E-01   max: -.1526E+00   C at   40  2
       a =  0.500      CL =  0.4908
      Cm = -0.0694     CD =  0.01061   =>   CDf =  0.00735    CDp =  0.00326

 Side 1  free  transition at x/c =  0.5983   55
 Side 2  free  transition at x/c =  0.3810   40

 145   rms: 0.1036E-01   max: -.1526E+00   C at   40  2
       a =  0.500      CL =  0.4908
      Cm = -0.0694     CD =  0.01061   =>   CDf =  0.00735    CDp =  0.00326

 Side 1  free  transition at x/c =  0.5983   55
 Side 2  free  transition at x/c =  0.3810   40

 146   rms: 0.1036E-01   max: -.1526E+00   C at   40  2
       a =  0.500      CL =  0.4908
      Cm = -0.0694     CD =  0.01061   =>   CDf =  0.00735    CDp =  0.00326

 Side 1  free  transition at x/c =  0.5983   55
 Side 2  free  transition at x/c =  0.3810   40

 147   rms: 0.1036E-01   max: -.1526E+00   C at   40  2
       a =  0.500      CL =  0.4908
      Cm = -0.0694     CD =  0.01061   =>   CDf =  0.00735    CDp =  0.00326

 Side 1  free  transition at x/c =  0.5983   55
 Side 2  free  transition at x/c =  0.3810   40

 148   rms: 0.1036E-01   max: -.1526E+00   C at   40  2
       a =  0.500      CL =  0.4908
      Cm = -0.0694     CD =  0.01061   =>   CDf =  0.00735    CDp =  0.00326

 Side 1  free  transition at x/c =  0.5983   55
 Side 2  free  transition at x/c =  0.3810   40

 149   rms: 0.1036E-01   max: -.1526E+00   C at   40  2
       a =  0.500      CL =  0.4908
      Cm = -0.0694     CD =  0.01061   =>   CDf =  0.00735    CDp =  0.00326

 Side 1  free  transition at x/c =  0.5983   55
 Side 2  free  transition at x/c =  0.3810   40

 150   rms: 0.1036E-01   max: -.1526E+00   C at   40  2
       a =  0.500      CL =  0.4908
      Cm = -0.0694     CD =  0.01061   =>   CDf =  0.00735    CDp =  0.00326

 Side 1  free  transition at x/c =  0.5983   55
 Side 2  free  transition at x/c =  0.3810   40

 151   rms: 0.1036E-01   max: -.1526E+00   C at   40  2
       a =  0.500      CL =  0.4908
      Cm = -0.0694     CD =  0.01061   =>   CDf =  0.00735    CDp =  0.00326

 Side 1  free  transition at x/c =  0.5983   55
 Side 2  free  transition at x/c =  0.3810   40

 152   rms: 0.1036E-01   max: -.1526E+00   C at   40  2
       a =  0.500      CL =  0.4908
      Cm = -0.0694     CD =  0.01061   =>   CDf =  0.00735    CDp =  0.00326

 Side 1  free  transition at x/c =  0.5983   55
 Side 2  free  transition at x/c =  0.3810   40

 153   rms: 0.1036E-01   max: -.1526E+00   C at   40  2
       a =  0.500      CL =  0.4908
      Cm = -0.0694     CD =  0.01061   =>   CDf =  0.00735    CDp =  0.00326

 Side 1  free  transition at x/c =  0.5983   55
 Side 2  free  transition at x/c =  0.3810   40

 154   rms: 0.1036E-01   max: -.1526E+00   C at   40  2
       a =  0.500      CL =  0.4908
      Cm = -0.0694     CD =  0.01061   =>   CDf =  0.00735    CDp =  0.00326

 Side 1  free  transition at x/c =  0.5983   55
 Side 2  free  transition at x/c =  0.3810   40

 155   rms: 0.1036E-01   max: -.1526E+00   C at   40  2
       a =  0.500      CL =  0.4908
      Cm = -0.0694     CD =  0.01061   =>   CDf =  0.00735    CDp =  0.00326
 VISCAL:  Convergence failed
 Calculating wake trajectory ...
 Calculating source influence matrix ...

 Solving BL system ...

 Side 1  free  transition at x/c =  0.5983   55
 Side 2  free  transition at x/c =  0.3810   40

   1   rms: 0.1036E+00   max: 0.8832E+00   C at   55  1   RLX: 0.860
       a =  1.000      CL =  0.5258
      Cm = -0.0664     CD =  0.01098   =>   CDf =  0.00734    CDp =  0.00364

 Side 1  free  transition at x/c =  0.5510   53
 Side 2  free  transition at x/c =  0.4132   41

   2   rms: 0.2938E-01   max: -.2780E+00   D at   41  2
       a =  1.000      CL =  0.5286
      Cm = -0.0655     CD =  0.01076   =>   CDf =  0.00759    CDp =  0.00317

[...]

 Side 1  free  transition at x/c =  0.4569   45
 Side 2  free  transition at x/c =  0.8503   70

  37   rms: 0.2113E+02   max: -.4484E+03   C at   70  2   RLX: 0.001
       a = 10.500      CL = -0.5767
      Cm =  0.3850     CD =  0.00652   =>   CDf =  0.00802    CDp = -0.00150

 Side 1  free  transition at x/c =  0.4569   45
 Side 2  free  transition at x/c =  0.7880   67

  38   rms: 0.4518E+02   max: -.7015E+03   C at   67  2   RLX: 0.001
       a = 10.500      CL = -0.5751
      Cm =  0.3839     CD =  0.00656   =>   CDf =  0.00820    CDp = -0.00164

 Side 1  free  transition at x/c =  0.4569   45
 Side 2  free  transition at x/c =  0.7985   67

  39   rms: 0.4201E+02   max: -.6140E+03   C at   67  2   RLX: 0.001
       a = 10.500      CL = -0.5755
      Cm =  0.3841     CD =  0.00655   =>   CDf =  0.00814    CDp = -0.00159

 Side 1  free  transition at x/c =  0.4569   45
 Side 2  free  transition at x/c =  0.8084   68

  40   rms: 0.5971E+02   max: -.9185E+03   C at   68  2   RLX: 0.001
       a = 10.500      CL = -0.5758
      Cm =  0.3842     CD =  0.00655   =>   CDf =  0.00809    CDp = -0.00154

 Side 1  free  transition at x/c =  0.4568   45
 Side 2  free  transition at x/c =  0.8188   68

  41   rms: 0.2262E+03   max: 0.3276E+04   C at   68  2   RLX: 0.000
       a = 10.500      CL = -0.5764
      Cm =  0.3844     CD =  0.00657   =>   CDf =  0.00803    CDp = -0.00146

 Side 1  free  transition at x/c =  0.4568   45
 Side 2  free  transition at x/c =  0.7866   67

  42   rms: 0.3783E+02   max: -.5971E+03   C at   67  2   RLX: 0.001
       a = 10.500      CL = -0.5772
      Cm =  0.3848     CD =  0.00656   =>   CDf =  0.00822    CDp = -0.00166

 Side 1  free  transition at x/c =  0.4568   45
 Side 2  free  transition at x/c =  0.7973   67

  43   rms: 0.3987E+02   max: -.5865E+03   C at   67  2   RLX: 0.001
       a = 10.500      CL = -0.5777
      Cm =  0.3850     CD =  0.00655   =>   CDf =  0.00816    CDp = -0.00161

 Side 1  free  transition at x/c =  0.4568   45
 Side 2  free  transition at x/c =  0.8072   68

  44   rms: 0.5425E+02   max: -.8401E+03   C at   68  2   RLX: 0.001
       a = 10.500      CL = -0.5780
      Cm =  0.3852     CD =  0.00654   =>   CDf =  0.00811    CDp = -0.00156

 Side 1  free  transition at x/c =  0.4568   45
 Side 2  free  transition at x/c =  0.8179   68

  45   rms: 0.3185E+03   max: 0.4637E+04   C at   68  2   RLX: 0.000
       a = 10.500      CL = -0.5786
      Cm =  0.3853     CD =  0.00656   =>   CDf =  0.00805    CDp = -0.00148

 Side 1  free  transition at x/c =  0.4567   45
 Side 2  free  transition at x/c =  0.7854   66

  46   rms: 0.4369E+02   max: -.6271E+03   C at   66  2   RLX: 0.001
       a = 10.500      CL = -0.5795
      Cm =  0.3858     CD =  0.00656   =>   CDf =  0.00824    CDp = -0.00168

 Side 1  free  transition at x/c =  0.4567   45
 Side 2  free  transition at x/c =  0.7931   67

  47   rms: 0.3890E+02   max: -.5863E+03   C at   67  2   RLX: 0.001
       a = 10.500      CL = -0.5798
      Cm =  0.3859     CD =  0.00655   =>   CDf =  0.00819    CDp = -0.00164

 Side 1  free  transition at x/c =  0.4567   45
 Side 2  free  transition at x/c =  0.8031   68

  48   rms: 0.5228E+02   max: -.8280E+03   C at   68  2   RLX: 0.001
       a = 10.500      CL = -0.5801
      Cm =  0.3861     CD =  0.00654   =>   CDf =  0.00814    CDp = -0.00160

 Side 1  free  transition at x/c =  0.4567   45
 Side 2  free  transition at x/c =  0.8144   68

  49   rms: 0.4527E+02   max: -.6733E+03   C at   68  2   RLX: 0.001
       a = 10.500      CL = -0.5806
      Cm =  0.3863     CD =  0.00653   =>   CDf =  0.00808    CDp = -0.00155

 Side 1  free  transition at x/c =  0.4566   45
 Side 2  free  transition at x/c =  0.8247   69

  50   rms: 0.3797E+03   max: 0.5913E+04   C at   69  2   RLX: 0.000
       a = 10.500      CL = -0.5813
      Cm =  0.3866     CD =  0.00656   =>   CDf =  0.00802    CDp = -0.00146

 Side 1  free  transition at x/c =  0.4566   45
 Side 2  free  transition at x/c =  0.8016   67

  51   rms: 0.5769E+02   max: -.8237E+03   C at   67  2   RLX: 0.001
       a = 10.500      CL = -0.5827
      Cm =  0.3875     CD =  0.00654   =>   CDf =  0.00816    CDp = -0.00162

 Side 1  free  transition at x/c =  0.4566   45
 Side 2  free  transition at x/c =  0.8115   68

  52   rms: 0.4301E+02   max: -.6500E+03   C at   68  2   RLX: 0.001
       a = 10.500      CL = -0.5830
      Cm =  0.3876     CD =  0.00653   =>   CDf =  0.00811    CDp = -0.00158

 Side 1  free  transition at x/c =  0.4566   45
 Side 2  free  transition at x/c =  0.8219   69

  53   rms: 0.8106E+03   max: 0.1285E+05   C at   69  2   RLX: 0.000
       a = 10.500      CL = -0.5836
      Cm =  0.3878     CD =  0.00656   =>   CDf =  0.00806    CDp = -0.00151

 Side 1  free  transition at x/c =  0.4566   45
 Side 2  free  transition at x/c =  0.7977   67

  54   rms: 0.3455E+02   max: -.5071E+03   C at   67  2   RLX: 0.001
       a = 10.500      CL = -0.5852
      Cm =  0.3888     CD =  0.00654   =>   CDf =  0.00820    CDp = -0.00166

 Side 1  free  transition at x/c =  0.4566   45
 Side 2  free  transition at x/c =  0.8077   68

  55   rms: 0.4130E+02   max: -.6377E+03   C at   68  2   RLX: 0.001
       a = 10.500      CL = -0.5856
      Cm =  0.3890     CD =  0.00653   =>   CDf =  0.00815    CDp = -0.00162

 Side 1  free  transition at x/c =  0.4565   45
 Side 2  free  transition at x/c =  0.8183   68

  56   rms: 0.7447E+03   max: -.1081E+05   C at   68  2   RLX: 0.000
       a = 10.500      CL = -0.5856
      Cm =  0.3890     CD =  0.00652   =>   CDf =  0.00810    CDp = -0.00158

 Side 1  free  transition at x/c =  0.4565   45
 Side 2  free  transition at x/c =  0.8285   69

  57   rms: 0.8628E+03   max: -.1315E+05   C at   69  2   RLX: 0.000
       a = 10.500      CL = -0.5864
      Cm =  0.3896     CD =  0.00651   =>   CDf =  0.00803    CDp = -0.00153

 Side 1  free  transition at x/c =  0.4565   45
 Side 2  free  transition at x/c =  0.8351   69

  58   rms: 0.7556E+03   max: 0.1115E+05   C at   69  2   RLX: 0.000
       a = 10.500      CL = -0.5869
      Cm =  0.3897     CD =  0.00654   =>   CDf =  0.00798    CDp = -0.00143

 Side 1  free  transition at x/c =  0.4565   45
 Side 2  free  transition at x/c =  0.8119   68

  59   rms: 0.3977E+02   max: -.5998E+03   C at   68  2   RLX: 0.001
       a = 10.500      CL = -0.5882
      Cm =  0.3905     CD =  0.00653   =>   CDf =  0.00814    CDp = -0.00161

 Side 1  free  transition at x/c =  0.4565   45
 Side 2  free  transition at x/c =  0.8222   69

  60   rms: 0.1233E+04   max: -.1952E+05   C at   69  2   RLX: 0.000
       a = 10.500      CL = -0.5882
      Cm =  0.3906     CD =  0.00652   =>   CDf =  0.00809    CDp = -0.00157

 Side 1  free  transition at x/c =  0.4565   45
 Side 2  free  transition at x/c =  0.8297   69

  61   rms: 0.6215E+03   max: -.9416E+04   C at   69  2   RLX: 0.000
       a = 10.500      CL = -0.5884
      Cm =  0.3908     CD =  0.00651   =>   CDf =  0.00803    CDp = -0.00153

 Side 1  free  transition at x/c =  0.4565   45
 Side 2  free  transition at x/c =  0.8363   70

  62   rms: 0.1303E+03   max: 0.2116E+04   C at   70  2   RLX: 0.001
       a = 10.500      CL = -0.5887
      Cm =  0.3908     CD =  0.00654   =>   CDf =  0.00798    CDp = -0.00144

 Side 1  free  transition at x/c =  0.4564   45
 Side 2  free  transition at x/c =  0.8474   70

  63   rms: 0.5385E+02   max: -.1035E+04   C at   70  2   RLX: 0.000
       a = 10.500      CL = -0.5927
      Cm =  0.3933     CD =  0.00651   =>   CDf =  0.00809    CDp = -0.00158

 Side 1  free  transition at x/c =  0.4564   45
 Side 2  free  transition at x/c =  0.8234   69

  64   rms: 0.5200E+03   max: -.8172E+04   C at   69  2   RLX: 0.000
       a = 10.500      CL = -0.5908
      Cm =  0.3921     CD =  0.00651   =>   CDf =  0.00810    CDp = -0.00159

 Side 1  free  transition at x/c =  0.4564   45
 Side 2  free  transition at x/c =  0.8307   69

  65   rms: 0.4409E+03   max: -.6645E+04   C at   69  2   RLX: 0.000
       a = 10.500      CL = -0.5909
      Cm =  0.3922     CD =  0.00650   =>   CDf =  0.00804    CDp = -0.00154

 Side 1  free  transition at x/c =  0.4564   45
 Side 2  free  transition at x/c =  0.8374   70

  66   rms: 0.8209E+03   max: 0.1364E+05   C at   70  2   RLX: 0.000
       a = 10.500      CL = -0.5899
      Cm =  0.3915     CD =  0.00654   =>   CDf =  0.00803    CDp = -0.00149

 Side 1  free  transition at x/c =  0.4564   45
 Side 2  free  transition at x/c =  0.8481   70

  67   rms: 0.4187E+02   max: -.8167E+03   C at   70  2   RLX: 0.001
       a = 10.500      CL = -0.5934
      Cm =  0.3936     CD =  0.00651   =>   CDf =  0.00810    CDp = -0.00159

 Side 1  free  transition at x/c =  0.4564   45
 Side 2  free  transition at x/c =  0.8178   68

  68   rms: 0.3017E+03   max: -.4392E+04   C at   68  2   RLX: 0.000
       a = 10.500      CL = -0.5906
      Cm =  0.3918     CD =  0.00652   =>   CDf =  0.00814    CDp = -0.00163

 Side 1  free  transition at x/c =  0.4564   45
 Side 2  free  transition at x/c =  0.8279   69

  69   rms: 0.3181E+03   max: -.4851E+04   C at   69  2   RLX: 0.000
       a = 10.500      CL = -0.5914
      Cm =  0.3923     CD =  0.00650   =>   CDf =  0.00808    CDp = -0.00158

 Side 1  free  transition at x/c =  0.4564   45
 Side 2  free  transition at x/c =  0.8347   69

  70   rms: 0.1112E+04   max: -.1642E+05   C at   69  2   RLX: 0.000
       a = 10.500      CL = -0.5913
      Cm =  0.3924     CD =  0.00649   =>   CDf =  0.00803    CDp = -0.00154

 Side 1  free  transition at x/c =  0.4564   45
 Side 2  free  transition at x/c =  0.8421   70

  71   rms: 0.4235E+02   max: -.7454E+03   C at   70  2   RLX: 0.001
       a = 10.500      CL = -0.5882
      Cm =  0.3900     CD =  0.00648   =>   CDf =  0.00820    CDp = -0.00172

 Side 1  free  transition at x/c =  0.4564   45
 Side 2  free  transition at x/c =  0.8333   69

  72   rms: 0.1569E+03   max: 0.2321E+04   C at   69  2   RLX: 0.001
       a = 10.500      CL = -0.5883
      Cm =  0.3899     CD =  0.00652   =>   CDf =  0.00822    CDp = -0.00170

 Side 1  free  transition at x/c =  0.4564   45
 Side 2  free  transition at x/c =  0.8103   68

  73   rms: 0.3025E+02   max: -.4585E+03   C at   68  2   RLX: 0.001
       a = 10.500      CL = -0.5901
      Cm =  0.3909     CD =  0.00651   =>   CDf =  0.00825    CDp = -0.00175

 Side 1  free  transition at x/c =  0.4563   45
 Side 2  free  transition at x/c =  0.8207   69

  74   rms: 0.1127E+03   max: -.1795E+04   C at   69  2   RLX: 0.000
       a = 10.500      CL = -0.5902
      Cm =  0.3910     CD =  0.00649   =>   CDf =  0.00822    CDp = -0.00172

 Side 1  free  transition at x/c =  0.4563   45
 Side 2  free  transition at x/c =  0.8287   69

  75   rms: 0.8099E+02   max: -.1226E+04   C at   69  2   RLX: 0.000
       a = 10.500      CL = -0.5906
      Cm =  0.3912     CD =  0.00648   =>   CDf =  0.00818    CDp = -0.00170

 Side 1  free  transition at x/c =  0.4563   45
 Side 2  free  transition at x/c =  0.8356   69

  76   rms: 0.4319E+03   max: -.6323E+04   C at   69  2   RLX: 0.000
       a = 10.500      CL = -0.5906
      Cm =  0.3913     CD =  0.00647   =>   CDf =  0.00815    CDp = -0.00168

 Side 1  free  transition at x/c =  0.4563   45
 Side 2  free  transition at x/c =  0.8433   70

  77   rms: 0.1957E+03   max: -.3519E+04   C at   70  2   RLX: 0.000
       a = 10.500      CL = -0.5865
      Cm =  0.3885     CD =  0.00645   =>   CDf =  0.00847    CDp = -0.00202

 Side 1  free  transition at x/c =  0.4563   45
 Side 2  free  transition at x/c =  0.8319   69

  78   rms: 0.6941E+02   max: 0.1034E+04   C at   69  2   RLX: 0.001
       a = 10.500      CL = -0.5868
      Cm =  0.3882     CD =  0.00649   =>   CDf =  0.00854    CDp = -0.00205

 Side 1  free  transition at x/c =  0.4563   45
 Side 2  free  transition at x/c =  0.8090   68

  79   rms: 0.1463E+02   max: -.2198E+03   C at   68  2   RLX: 0.002
       a = 10.500      CL = -0.5891
      Cm =  0.3894     CD =  0.00647   =>   CDf =  0.00849    CDp = -0.00201

 Side 1  free  transition at x/c =  0.4562   45
 Side 2  free  transition at x/c =  0.8196   69

  80   rms: 0.2841E+02   max: -.4520E+03   C at   69  2   RLX: 0.001
       a = 10.500      CL = -0.5895
      Cm =  0.3896     CD =  0.00646   =>   CDf =  0.00852    CDp = -0.00205

 Side 1  free  transition at x/c =  0.4562   45
 Side 2  free  transition at x/c =  0.8280   69

  81   rms: 0.1757E+03   max: -.2663E+04   C at   69  2   RLX: 0.000
       a = 10.500      CL = -0.5899
      Cm =  0.3898     CD =  0.00645   =>   CDf =  0.00850    CDp = -0.00205

 Side 1  free  transition at x/c =  0.4561   45
 Side 2  free  transition at x/c =  0.8348   69

  82   rms: 0.3465E+02   max: 0.5095E+03   C at   69  2   RLX: 0.003
       a = 10.500      CL = -0.5919
      Cm =  0.3905     CD =  0.00649   =>   CDf =  0.00847    CDp = -0.00198

 Side 1  free  transition at x/c =  0.4561   45
 Side 2  free  transition at x/c =  0.8108   68

  83   rms: 0.1346E+02   max: -.1999E+03   C at   68  2   RLX: 0.003
       a = 10.500      CL = -0.5942
      Cm =  0.3916     CD =  0.00648   =>   CDf =  0.00847    CDp = -0.00199

 Side 1  free  transition at x/c =  0.4560   45
 Side 2  free  transition at x/c =  0.8213   69

  84   rms: 0.2665E+02   max: -.4192E+03   C at   69  2   RLX: 0.001
       a = 10.500      CL = -0.5946
      Cm =  0.3917     CD =  0.00647   =>   CDf =  0.00850    CDp = -0.00204

 Side 1  free  transition at x/c =  0.4559   45
 Side 2  free  transition at x/c =  0.8292   69

  85   rms: 0.2609E+03   max: -.3941E+04   C at   69  2   RLX: 0.000
       a = 10.500      CL = -0.5948
      Cm =  0.3919     CD =  0.00645   =>   CDf =  0.00850    CDp = -0.00204

 Side 1  free  transition at x/c =  0.4559   45
 Side 2  free  transition at x/c =  0.8363   70

  86   rms: 0.2231E+02   max: 0.3621E+03   C at   70  2   RLX: 0.004
       a = 10.500      CL = -0.5972
      Cm =  0.3927     CD =  0.00649   =>   CDf =  0.00847    CDp = -0.00198

 Side 1  free  transition at x/c =  0.4558   45
 Side 2  free  transition at x/c =  0.8500   70

  87   rms: 0.2610E+02   max: -.5484E+03   C at   70  2   RLX: 0.001
       a = 10.500      CL = -0.6033
      Cm =  0.3964     CD =  0.00646   =>   CDf =  0.00827    CDp = -0.00181

 Side 1  free  transition at x/c =  0.4558   45
 Side 2  free  transition at x/c =  0.7686   65

  88   rms: 0.5376E+02   max: -.7942E+03   C at   65  2   RLX: 0.001
       a = 10.500      CL = -0.5997
      Cm =  0.3939     CD =  0.00648   =>   CDf =  0.00913    CDp = -0.00265

 Side 1  free  transition at x/c =  0.4558   45
 Side 2  free  transition at x/c =  0.7778   66

  89   rms: 0.4543E+02   max: -.6906E+03   C at   66  2   RLX: 0.001
       a = 10.500      CL = -0.6000
      Cm =  0.3940     CD =  0.00647   =>   CDf =  0.00910    CDp = -0.00263

 Side 1  free  transition at x/c =  0.4557   45
 Side 2  free  transition at x/c =  0.7856   66

  90   rms: 0.4826E+02   max: -.6917E+03   C at   66  2   RLX: 0.001
       a = 10.500      CL = -0.6004
      Cm =  0.3941     CD =  0.00646   =>   CDf =  0.00908    CDp = -0.00262

 Side 1  free  transition at x/c =  0.4557   45
 Side 2  free  transition at x/c =  0.7932   67

  91   rms: 0.4002E+02   max: -.6017E+03   C at   67  2   RLX: 0.001
       a = 10.500      CL = -0.6007
      Cm =  0.3942     CD =  0.00646   =>   CDf =  0.00909    CDp = -0.00263

 Side 1  free  transition at x/c =  0.4557   45
 Side 2  free  transition at x/c =  0.8032   68

  92   rms: 0.5215E+02   max: -.8234E+03   C at   68  2   RLX: 0.001
       a = 10.500      CL = -0.6009
      Cm =  0.3943     CD =  0.00645   =>   CDf =  0.00907    CDp = -0.00261

 Side 1  free  transition at x/c =  0.4557   45
 Side 2  free  transition at x/c =  0.8144   68

  93   rms: 0.8109E+02   max: -.1203E+04   C at   68  2   RLX: 0.000
       a = 10.500      CL = -0.6011
      Cm =  0.3945     CD =  0.00644   =>   CDf =  0.00903    CDp = -0.00258

 Side 1  free  transition at x/c =  0.4557   45
 Side 2  free  transition at x/c =  0.8247   69

  94   rms: 0.9016E+02   max: 0.1400E+04   C at   69  2   RLX: 0.001
       a = 10.500      CL = -0.6021
      Cm =  0.3947     CD =  0.00648   =>   CDf =  0.00897    CDp = -0.00250

 Side 1  free  transition at x/c =  0.4556   45
 Side 2  free  transition at x/c =  0.8000   67

  95   rms: 0.3264E+02   max: -.4714E+03   C at   67  2   RLX: 0.001
       a = 10.500      CL = -0.6032
      Cm =  0.3954     CD =  0.00646   =>   CDf =  0.00891    CDp = -0.00246

 Side 1  free  transition at x/c =  0.4556   45
 Side 2  free  transition at x/c =  0.8100   68

  96   rms: 0.4499E+02   max: -.6830E+03   C at   68  2   RLX: 0.001
       a = 10.500      CL = -0.6035
      Cm =  0.3955     CD =  0.00645   =>   CDf =  0.00891    CDp = -0.00246

 Side 1  free  transition at x/c =  0.4556   45
 Side 2  free  transition at x/c =  0.8204   69

  97   rms: 0.1510E+03   max: 0.2413E+04   C at   69  2   RLX: 0.001
       a = 10.500      CL = -0.6043
      Cm =  0.3957     CD =  0.00648   =>   CDf =  0.00889    CDp = -0.00241

 Side 1  free  transition at x/c =  0.4555   45
 Side 2  free  transition at x/c =  0.7939   67

  98   rms: 0.2062E+02   max: -.3074E+03   C at   67  2   RLX: 0.002
       a = 10.500      CL = -0.6057
      Cm =  0.3965     CD =  0.00647   =>   CDf =  0.00878    CDp = -0.00231

 Side 1  free  transition at x/c =  0.4555   45
 Side 2  free  transition at x/c =  0.8039   68

  99   rms: 0.2304E+02   max: -.3606E+03   C at   68  2   RLX: 0.001
       a = 10.500      CL = -0.6063
      Cm =  0.3967     CD =  0.00646   =>   CDf =  0.00879    CDp = -0.00233

 Side 1  free  transition at x/c =  0.4555   45
 Side 2  free  transition at x/c =  0.8150   68

 100   rms: 0.8308E+02   max: -.1224E+04   C at   68  2   RLX: 0.000
       a = 10.500      CL = -0.6065
      Cm =  0.3968     CD =  0.00645   =>   CDf =  0.00878    CDp = -0.00233

 Side 1  free  transition at x/c =  0.4554   45
 Side 2  free  transition at x/c =  0.8252   69

 101   rms: 0.1459E+03   max: 0.2258E+04   C at   69  2   RLX: 0.001
       a = 10.500      CL = -0.6077
      Cm =  0.3973     CD =  0.00648   =>   CDf =  0.00873    CDp = -0.00225

 Side 1  free  transition at x/c =  0.4554   45
 Side 2  free  transition at x/c =  0.8010   67

 102   rms: 0.1513E+02   max: -.2159E+03   C at   67  2   RLX: 0.002
       a = 10.500      CL = -0.6097
      Cm =  0.3984     CD =  0.00647   =>   CDf =  0.00859    CDp = -0.00212

 Side 1  free  transition at x/c =  0.4553   45
 Side 2  free  transition at x/c =  0.8110   68

 103   rms: 0.1413E+02   max: -.2110E+03   C at   68  2   RLX: 0.002
       a = 10.500      CL = -0.6109
      Cm =  0.3988     CD =  0.00646   =>   CDf =  0.00860    CDp = -0.00214

 Side 1  free  transition at x/c =  0.4553   45
 Side 2  free  transition at x/c =  0.8213   69

 104   rms: 0.3984E+02   max: -.6303E+03   C at   69  2   RLX: 0.001
       a = 10.500      CL = -0.6111
      Cm =  0.3988     CD =  0.00645   =>   CDf =  0.00864    CDp = -0.00219

 Side 1  free  transition at x/c =  0.4553   45
 Side 2  free  transition at x/c =  0.8293   69

 105   rms: 0.6785E+02   max: 0.1024E+04   C at   69  2   RLX: 0.001
       a = 10.500      CL = -0.6126
      Cm =  0.3994     CD =  0.00648   =>   CDf =  0.00863    CDp = -0.00214

 Side 1  free  transition at x/c =  0.4552   45
 Side 2  free  transition at x/c =  0.8057   68

 106   rms: 0.1792E+02   max: -.2776E+03   C at   68  2   RLX: 0.002
       a = 10.500      CL = -0.6144
      Cm =  0.4004     CD =  0.00647   =>   CDf =  0.00850    CDp = -0.00203

 Side 1  free  transition at x/c =  0.4551   45
 Side 2  free  transition at x/c =  0.8165   68

 107   rms: 0.2015E+02   max: -.2920E+03   C at   68  2   RLX: 0.002
       a = 10.500      CL = -0.6153
      Cm =  0.4008     CD =  0.00646   =>   CDf =  0.00850    CDp = -0.00204

 Side 1  free  transition at x/c =  0.4551   45

[TIMEOUT]
