
 ===================================================
  XFOIL Version 6.99
  Copyright (C) 2000   Mark Drela, Harold Youngren

  This software comes with ABSOLUTELY NO WARRANTY,
    subject to the GNU General Public License.

  Caveat computor
 ===================================================

 File  xfoil.def  not found

   QUIT    Exit program

  .OPER    Direct operating point(s)
  .MDES    Complex mapping design routine
  .QDES    Surface speed design routine
  .GDES    Geometry design routine

   SAVE f  Write airfoil to labeled coordinate file
   PSAV f  Write airfoil to plain coordinate file
   ISAV f  Write airfoil to ISES coordinate file
   MSAV f  Write airfoil to MSES coordinate file
   REVE    Reverse written-airfoil node ordering

   LOAD f  Read buffer airfoil from coordinate file
   NACA i  Set NACA 4,5-digit airfoil and buffer airfoil
   INTE    Set buffer airfoil by interpolating two airfoils
   NORM    Buffer airfoil normalization toggle
   XYCM rr Change CM reference location, currently  0.25000 0.00000

   BEND    Display structural properties of current airfoil

   PCOP    Set current-airfoil panel nodes directly from buffer airfoil points
   PANE    Set current-airfoil panel nodes ( 160 ) based on curvature
  .PPAR    Show/change paneling

  .PLOP    Plotting options

   WDEF f  Write  current-settings file
   RDEF f  Reread current-settings file
   NAME s  Specify new airfoil name
   NINC    Increment name version number

   Z       Zoom    | (available in all menus)
   U       Unzoom  | 

 XFOIL   c>  
 Labeled airfoil file.  Name:  GOE 599 AIRFOIL                                 

 Number of input coordinate points:  33
 Counterclockwise ordering
 Max thickness =     0.099844  at x =   0.302
 Max camber    =     0.015039  at x =   0.597

  LE  x,y  =  -0.00002   0.00053  |   Chord =   1.00002
  TE  x,y  =   1.00000   0.00000  |

 Current airfoil nodes set from buffer airfoil nodes (  33 )

 WARNING: Poor input coordinate distribution
          Excessive panel angle   85.7  at i =  17
          Repaneling with PANE and/or PPAR suggested
           (doing GDES,CADD before repaneling _may_
            improve excessively coarse LE spacing

 XFOIL   c>  
 XFOIL   c>  
 Blunt trailing edge.  Gap =  0.00350

 Paneling parameters used...
   Number of panel nodes       160
   Panel bunching parameter    1.000
   TE/LE panel density ratio   0.150
   Refined-area/LE panel density ratio    0.200
   Top    side refined area x/c limits  1.000 1.000
   Bottom side refined area x/c limits  1.000 1.000

 XFOIL   c>  
.OPERi   c>  
 Xtr/c     =  1.0000    top    side
 Xtr/c     =  1.0000    bottom side
 Ncrit     =    9.00   ( 0.070 % turb. level )
 Vacc      =  0.0100

 Klag  =  5.6000     Uxwt  =    1.00
 A     =  6.7000     B     =  0.7500       KCt = 0.01485
 CtiniK=  1.8000     CtiniX=  3.3000

..VPAR   c>  
..VPAR   c>  
.OPERi   c>  
 M  =    0.0000
 Re =    200000

.OPERv   c>  
.OPERv   c>  
.OPERv   c>  
 Polar  1 newly created for accumulation
 Airfoil archived with polar: GOE 599 AIRFOIL                                 

Enter  polar save filename  OR  <return> for no file   s>  
 New polar save file available

Enter  polar dump filename  OR  <return> for no file   s>  
 Polar dump file will NOT be written

 Polar accumulation enabled

.OPERva   c>   Calculating unit vorticity distributions ...
 Calculating wake trajectory ...
 Calculating source influence matrix ...

 Solving BL system ...

 Initializing BL ...
    side            1  ...
 MRCHUE: Inverse mode at  58     Hk =   4.071
 MRCHUE: Inverse mode at  59     Hk =   4.414
 MRCHUE: Inverse mode at  60     Hk =   4.753
 MRCHUE: Inverse mode at  61     Hk =   5.085
 MRCHUE: Inverse mode at  62     Hk =   5.407
 MRCHUE: Inverse mode at  63     Hk =   5.721
 MRCHUE: Inverse mode at  64     Hk =   6.026
 MRCHUE: Inverse mode at  65     Hk =   6.326
 MRCHUE: Inverse mode at  66     Hk =   6.621
 MRCHUE: Inverse mode at  67     Hk =   6.916
 MRCHUE: Inverse mode at  68     Hk =   7.215
 MRCHUE: Inverse mode at  69     Hk =   7.520
 MRCHUE: Inverse mode at  70     Hk =   7.822
 MRCHUE: Inverse mode at  71     Hk =   8.121
 MRCHUE: Inverse mode at  72     Hk =   8.396
 MRCHUE: Inverse mode at  73     Hk =   8.637
 MRCHUE: Inverse mode at  74     Hk =   8.846
 MRCHUE: Inverse mode at  75     Hk =   9.029
 MRCHUE: Inverse mode at  76     Hk =   9.138
    side            2  ...
 MRCHUE: Inverse mode at  17     Hk =   3.931
 MRCHUE: Inverse mode at  18     Hk =   5.121
 MRCHUE: Inverse mode at  19     Hk =   6.254
 MRCHUE: Inverse mode at  20     Hk =   7.399
 MRCHUE: Inverse mode at  21     Hk =   8.472
 MRCHUE: Inverse mode at  22     Hk =   9.433
 MRCHUE: Inverse mode at  23     Hk =  10.034
 MRCHUE: Inverse mode at  24     Hk =   5.412
 MRCHUE: Inverse mode at  25     Hk =   3.538
 MRCHUE: Inverse mode at  26     Hk =   2.500
 MRCHUE: Inverse mode at  86     Hk =   2.500

 Side 1 forced transition at x/c =  1.0000   76
 Side 2  free  transition at x/c =  0.0923   23

   1   rms: 0.3235E+00   max: -.1169E+01   D at   86  2   RLX: 0.428
       a = -4.000      CL = -0.3659
      Cm = -0.0290     CD =  0.01230   =>   CDf =  0.00823    CDp =  0.00408

 Side 1 forced transition at x/c =  1.0000   76
 Side 2  free  transition at x/c =  0.0904   23
 idif Ue xi dudx           1  0.20559709      3.18884850E-03   64.473770    
 Uenew xinew           2  3.25189270E-02  5.04374504E-04

   2   rms: 0.1442E+00   max: -.8769E+00   D at   26  2   RLX: 0.570
       a = -4.000      CL = -0.4159
      Cm = -0.0169     CD =  0.01323   =>   CDf =  0.00790    CDp =  0.00533

 Side 1 forced transition at x/c =  1.0000   75
 Side 2  free  transition at x/c =  0.0959   25

   3   rms: 0.7447E-01   max: -.5316E+00   T at   25  2   RLX: 0.941
       a = -4.000      CL = -0.3978
      Cm = -0.0203     CD =  0.01394   =>   CDf =  0.00789    CDp =  0.00606

 Side 1 forced transition at x/c =  1.0000   75
 Side 2  free  transition at x/c =  0.1097   26

   4   rms: 0.1756E+00   max: -.1476E+01   T at   26  2   RLX: 0.339
       a = -4.000      CL = -0.3895
      Cm = -0.0215     CD =  0.01408   =>   CDf =  0.00802    CDp =  0.00606

 Side 1 forced transition at x/c =  1.0000   75
 Side 2  free  transition at x/c =  0.1176   26

   5   rms: 0.8899E-01   max: -.9344E+00   T at   26  2   RLX: 0.535
       a = -4.000      CL = -0.3844
      Cm = -0.0227     CD =  0.01445   =>   CDf =  0.00810    CDp =  0.00636

 Side 1 forced transition at x/c =  1.0000   76
 Side 2  free  transition at x/c =  0.1332   26

   6   rms: 0.5111E-01   max: -.4369E+00   T at    2  1
       a = -4.000      CL = -0.3808
      Cm = -0.0241     CD =  0.01383   =>   CDf =  0.00786    CDp =  0.00597

 Side 1 forced transition at x/c =  1.0000   76
 Side 2  free  transition at x/c =  0.1516   28

   7   rms: 0.2278E-01   max: -.2555E+00   C at   28  2
       a = -4.000      CL = -0.3804
      Cm = -0.0244     CD =  0.01358   =>   CDf =  0.00765    CDp =  0.00593

 Side 1 forced transition at x/c =  1.0000   76
 Side 2  free  transition at x/c =  0.1575   28

   8   rms: 0.1123E-01   max: 0.2176E+00   C at   28  2
       a = -4.000      CL = -0.3805
      Cm = -0.0244     CD =  0.01365   =>   CDf =  0.00748    CDp =  0.00617

 Side 1 forced transition at x/c =  1.0000   76
 Side 2  free  transition at x/c =  0.1531   28

   9   rms: 0.3422E-03   max: -.3875E-02   D at   30  2
       a = -4.000      CL = -0.3805
      Cm = -0.0244     CD =  0.01366   =>   CDf =  0.00753    CDp =  0.00612

 Side 1 forced transition at x/c =  1.0000   76
 Side 2  free  transition at x/c =  0.1531   28

  10   rms: 0.3175E-05   max: -.2427E-04   C at   28  2
       a = -4.000      CL = -0.3805
      Cm = -0.0244     CD =  0.01366   =>   CDf =  0.00753    CDp =  0.00612
 plradd ia,ip,cpol            1           0  2.13777041E-03

 Point added to stored polar  1
 Point written to save file  goe599_Re200k.base.pol                          
 Dump file unspecified or not available
 Calculating wake trajectory ...
 Calculating source influence matrix ...

 Solving BL system ...

 Side 1 forced transition at x/c =  1.0000   76
 Side 2  free  transition at x/c =  0.1531   28

   1   rms: 0.3072E+00   max: -.4834E+01   C at   28  2   RLX: 0.103
       a = -3.500      CL = -0.3753
      Cm = -0.0245     CD =  0.01343   =>   CDf =  0.00753    CDp =  0.00589

 Side 1 forced transition at x/c =  1.0000   76
 Side 2  free  transition at x/c =  0.1665   29

   2   rms: 0.2256E+00   max: -.3187E+01   C at   29  2   RLX: 0.157
       a = -3.500      CL = -0.3672
      Cm = -0.0246     CD =  0.01331   =>   CDf =  0.00749    CDp =  0.00582

 Side 1 forced transition at x/c =  1.0000   76
 Side 2  free  transition at x/c =  0.1814   30

   3   rms: 0.1772E+00   max: -.2510E+01   C at   30  2   RLX: 0.199
       a = -3.500      CL = -0.3589
      Cm = -0.0246     CD =  0.01324   =>   CDf =  0.00744    CDp =  0.00579

 Side 1 forced transition at x/c =  1.0000   76
 Side 2  free  transition at x/c =  0.1951   31

   4   rms: 0.1511E+00   max: -.2034E+01   C at   31  2   RLX: 0.246
       a = -3.500      CL = -0.3509
      Cm = -0.0247     CD =  0.01313   =>   CDf =  0.00741    CDp =  0.00572

 Side 1 forced transition at x/c =  1.0000   76
 Side 2  free  transition at x/c =  0.2095   32

   5   rms: 0.1339E+00   max: -.1801E+01   C at   32  2   RLX: 0.278
       a = -3.500      CL = -0.3441
      Cm = -0.0248     CD =  0.01305   =>   CDf =  0.00737    CDp =  0.00568

 Side 1 forced transition at x/c =  1.0000   76
 Side 2  free  transition at x/c =  0.2239   33

   6   rms: 0.1178E+00   max: -.1572E+01   C at   33  2   RLX: 0.318
       a = -3.500      CL = -0.3387
      Cm = -0.0248     CD =  0.01296   =>   CDf =  0.00732    CDp =  0.00564

 Side 1 forced transition at x/c =  1.0000   76
 Side 2  free  transition at x/c =  0.2386   34

   7   rms: 0.9986E-01   max: -.1347E+01   C at   34  2   RLX: 0.371
       a = -3.500      CL = -0.3347
      Cm = -0.0249     CD =  0.01288   =>   CDf =  0.00727    CDp =  0.00561

 Side 1 forced transition at x/c =  1.0000   76
 Side 2  free  transition at x/c =  0.2533   35

   8   rms: 0.7967E-01   max: -.1097E+01   C at   35  2   RLX: 0.456
       a = -3.500      CL = -0.3320
      Cm = -0.0249     CD =  0.01281   =>   CDf =  0.00722    CDp =  0.00559

 Side 1 forced transition at x/c =  1.0000   76
 Side 2  free  transition at x/c =  0.2683   36

   9   rms: 0.5841E-01   max: -.8353E+00   C at   36  2   RLX: 0.599
       a = -3.500      CL = -0.3310
      Cm = -0.0248     CD =  0.01274   =>   CDf =  0.00715    CDp =  0.00559

 Side 1 forced transition at x/c =  1.0000   76
 Side 2  free  transition at x/c =  0.2837   37

  10   rms: 0.3589E-01   max: -.5459E+00   C at   37  2   RLX: 0.916
       a = -3.500      CL = -0.3315
      Cm = -0.0246     CD =  0.01268   =>   CDf =  0.00706    CDp =  0.00561

 Side 1 forced transition at x/c =  1.0000   76
 Side 2  free  transition at x/c =  0.3005   38

  11   rms: 0.1107E-01   max: -.1793E+00   C at   38  2
       a = -3.500      CL = -0.3319
      Cm = -0.0244     CD =  0.01274   =>   CDf =  0.00695    CDp =  0.00579

 Side 1 forced transition at x/c =  1.0000   76
 Side 2  free  transition at x/c =  0.3062   38

  12   rms: 0.5244E-03   max: -.7301E-02   C at   38  2
       a = -3.500      CL = -0.3319
      Cm = -0.0244     CD =  0.01275   =>   CDf =  0.00690    CDp =  0.00585

 Side 1 forced transition at x/c =  1.0000   76
 Side 2  free  transition at x/c =  0.3062   38

  13   rms: 0.4795E-05   max: -.1848E-04   D at   49  2
       a = -3.500      CL = -0.3319
      Cm = -0.0244     CD =  0.01275   =>   CDf =  0.00690    CDp =  0.00585
 plradd ia,ip,cpol            2           0  2.13777041E-03

 Point added to stored polar  1
 Point written to save file  goe599_Re200k.base.pol                          
 Dump file unspecified or not available
 Calculating wake trajectory ...
 Calculating source influence matrix ...

 Solving BL system ...

 Side 1 forced transition at x/c =  1.0000   76
 Side 2  free  transition at x/c =  0.3062   38

   1   rms: 0.1418E+00   max: -.1874E+01   C at   38  2   RLX: 0.267
       a = -3.000      CL = -0.3191
      Cm = -0.0243     CD =  0.01264   =>   CDf =  0.00690    CDp =  0.00574

 Side 1 forced transition at x/c =  1.0000   76
 Side 2  free  transition at x/c =  0.3343   40

   2   rms: 0.1204E+00   max: -.1722E+01   C at   40  2   RLX: 0.290
       a = -3.000      CL = -0.3086
      Cm = -0.0244     CD =  0.01254   =>   CDf =  0.00682    CDp =  0.00571

 Side 1  free  transition at x/c =  0.9976   76
 Side 2  free  transition at x/c =  0.3550   41

   3   rms: 0.8250E-01   max: -.8240E+00   C at   41  2   RLX: 0.607
       a = -3.000      CL = -0.2813
      Cm = -0.0266     CD =  0.01264   =>   CDf =  0.00691    CDp =  0.00573

 Side 1  free  transition at x/c =  0.9961   77
 Side 2  free  transition at x/c =  0.3973   43

   4   rms: 0.5583E-01   max: -.7089E+00   T at    2  1   RLX: 0.705
       a = -3.000      CL = -0.2688
      Cm = -0.0277     CD =  0.01249   =>   CDf =  0.00674    CDp =  0.00575

 Side 1  free  transition at x/c =  0.9956   77
 Side 2  free  transition at x/c =  0.4447   47

   5   rms: 0.3085E-01   max: -.4583E+00   C at   47  2
       a = -3.000      CL = -0.2659
      Cm = -0.0278     CD =  0.01208   =>   CDf =  0.00648    CDp =  0.00560

 Side 1  free  transition at x/c =  0.9958   77
 Side 2  free  transition at x/c =  0.4576   47

   6   rms: 0.6331E-02   max: -.9669E-01   C at   47  2
       a = -3.000      CL = -0.2655
      Cm = -0.0278     CD =  0.01215   =>   CDf =  0.00637    CDp =  0.00578

 Side 1  free  transition at x/c =  0.9957   77
 Side 2  free  transition at x/c =  0.4610   48

   7   rms: 0.2623E-02   max: -.4121E-01   C at   48  2
       a = -3.000      CL = -0.2656
      Cm = -0.0278     CD =  0.01214   =>   CDf =  0.00634    CDp =  0.00580

 Side 1  free  transition at x/c =  0.9958   77
 Side 2  free  transition at x/c =  0.4611   48

   8   rms: 0.3730E-04   max: 0.5809E-03   C at   48  2
       a = -3.000      CL = -0.2656
      Cm = -0.0278     CD =  0.01214   =>   CDf =  0.00633    CDp =  0.00581
 plradd ia,ip,cpol            3           0  3.45247542E-03

 Point added to stored polar  1
 Point written to save file  goe599_Re200k.base.pol                          
 Dump file unspecified or not available
 Calculating wake trajectory ...
 Calculating source influence matrix ...

 Solving BL system ...

 Side 1  free  transition at x/c =  0.9958   77
 Side 2  free  transition at x/c =  0.4611   48

   1   rms: 0.2163E+00   max: -.2996E+01   C at   48  2   RLX: 0.167
       a = -2.500      CL = -0.2529
      Cm = -0.0286     CD =  0.01203   =>   CDf =  0.00633    CDp =  0.00570

 Side 1  free  transition at x/c =  0.9948   77
 Side 2  free  transition at x/c =  0.4817   49

   2   rms: 0.1207E+00   max: -.1086E+01   C at   49  2   RLX: 0.460
       a = -2.500      CL = -0.2210
      Cm = -0.0311     CD =  0.01209   =>   CDf =  0.00629    CDp =  0.00579

 Side 1  free  transition at x/c =  0.9928   76
 Side 2  free  transition at x/c =  0.5329   52

   3   rms: 0.5679E-01   max: -.2942E+00   T at   52  2
       a = -2.500      CL = -0.1900
      Cm = -0.0326     CD =  0.01205   =>   CDf =  0.00619    CDp =  0.00586

 MRCHDU: Convergence failed at  58  side 2    Res =  0.5519E+01
 MRCHDU: Convergence failed at  59  side 2    Res =  0.9295E+00
 MRCHDU: Convergence failed at  60  side 2    Res =  0.1087E+01
 MRCHDU: Convergence failed at  61  side 2    Res =  0.1199E+01
 MRCHDU: Convergence failed at  62  side 2    Res =  0.1354E+01
 MRCHDU: Convergence failed at  63  side 2    Res =  0.1470E+01
 MRCHDU: Convergence failed at  64  side 2    Res =  0.1569E+01
 MRCHDU: Convergence failed at  65  side 2    Res =  0.1653E+01
 MRCHDU: Convergence failed at  66  side 2    Res =  0.1726E+01
 MRCHDU: Convergence failed at  67  side 2    Res =  0.1781E+01
 MRCHDU: Convergence failed at  68  side 2    Res =  0.2444E+01
 MRCHDU: Convergence failed at  69  side 2    Res =  0.2991E+01
 MRCHDU: Convergence failed at  70  side 2    Res =  0.2868E+01
 MRCHDU: Convergence failed at  71  side 2    Res =  0.2761E+01
 MRCHDU: Convergence failed at  72  side 2    Res =  0.2666E+01
 MRCHDU: Convergence failed at  73  side 2    Res =  0.2582E+01
 MRCHDU: Convergence failed at  74  side 2    Res =  0.2513E+01
 MRCHDU: Convergence failed at  75  side 2    Res =  0.2455E+01
 MRCHDU: Convergence failed at  76  side 2    Res =  0.2386E+01
 MRCHDU: Convergence failed at  77  side 2    Res =  0.2322E+01
 MRCHDU: Convergence failed at  78  side 2    Res =  0.2277E+01
 MRCHDU: Convergence failed at  79  side 2    Res =  0.2240E+01
 MRCHDU: Convergence failed at  80  side 2    Res =  0.2198E+01
 MRCHDU: Convergence failed at  81  side 2    Res =  0.2182E+01
 MRCHDU: Convergence failed at  82  side 2    Res =  0.2192E+01
 MRCHDU: Convergence failed at  83  side 2    Res =  0.2208E+01
 MRCHDU: Convergence failed at  84  side 2    Res =  0.2221E+01
 MRCHDU: Convergence failed at  85  side 2    Res =  0.2306E+01
 Side 1  free  transition at x/c =  0.9855   75
 Side 2  free  transition at x/c =  0.7675   68

   4   rms: 0.1162E+00   max: 0.5488E+00   D at   52  2
       a = -2.500      CL = -0.1815
      Cm = -0.0334     CD =  0.01132   =>   CDf =  0.00485    CDp =  0.00647

 Side 1  free  transition at x/c =  0.9995   77
 Side 2  free  transition at x/c =  0.6394   60

   5   rms: 0.6184E-01   max: 0.4121E+00   D at   77  1
       a = -2.500      CL = -0.1890
      Cm = -0.0325     CD =  0.01154   =>   CDf =  0.00577    CDp =  0.00577

 Side 1  free  transition at x/c =  0.9912   76
 Side 2  free  transition at x/c =  0.6100   58

   6   rms: 0.1524E-01   max: 0.1543E+00   T at   76  1
       a = -2.500      CL = -0.1918
      Cm = -0.0321     CD =  0.01178   =>   CDf =  0.00589    CDp =  0.00589

 Side 1  free  transition at x/c =  0.9865   76
 Side 2  free  transition at x/c =  0.6069   57

   7   rms: 0.5868E-02   max: -.3920E-01   T at   76  1
       a = -2.500      CL = -0.1906
      Cm = -0.0323     CD =  0.01178   =>   CDf =  0.00588    CDp =  0.00590

 Side 1  free  transition at x/c =  0.9876   76
 Side 2  free  transition at x/c =  0.6074   57

   8   rms: 0.4146E-02   max: -.6167E-01   C at   57  2
       a = -2.500      CL = -0.1905
      Cm = -0.0323     CD =  0.01179   =>   CDf =  0.00591    CDp =  0.00588

 Side 1  free  transition at x/c =  0.9877   76
 Side 2  free  transition at x/c =  0.6076   57

   9   rms: 0.4025E-02   max: -.6053E-01   C at   57  2
       a = -2.500      CL = -0.1905
      Cm = -0.0323     CD =  0.01179   =>   CDf =  0.00590    CDp =  0.00588

 Side 1  free  transition at x/c =  0.9877   76
 Side 2  free  transition at x/c =  0.6076   57

  10   rms: 0.4040E-02   max: -.6072E-01   C at   57  2
       a = -2.500      CL = -0.1905
      Cm = -0.0323     CD =  0.01179   =>   CDf =  0.00591    CDp =  0.00588

 Side 1  free  transition at x/c =  0.9877   76
 Side 2  free  transition at x/c =  0.6076   57

  11   rms: 0.4039E-02   max: -.6070E-01   C at   57  2
       a = -2.500      CL = -0.1905
      Cm = -0.0323     CD =  0.01179   =>   CDf =  0.00591    CDp =  0.00588

 Side 1  free  transition at x/c =  0.9877   76
 Side 2  free  transition at x/c =  0.6076   57

  12   rms: 0.4039E-02   max: -.6070E-01   C at   57  2
       a = -2.500      CL = -0.1905
      Cm = -0.0323     CD =  0.01179   =>   CDf =  0.00591    CDp =  0.00588

 Side 1  free  transition at x/c =  0.9877   76
 Side 2  free  transition at x/c =  0.6076   57

  13   rms: 0.4039E-02   max: -.6071E-01   C at   57  2
       a = -2.500      CL = -0.1905
      Cm = -0.0323     CD =  0.01179   =>   CDf =  0.00591    CDp =  0.00588

 Side 1  free  transition at x/c =  0.9877   76
 Side 2  free  transition at x/c =  0.6076   57

  14   rms: 0.4039E-02   max: -.6071E-01   C at   57  2
       a = -2.500      CL = -0.1905
      Cm = -0.0323     CD =  0.01179   =>   CDf =  0.00591    CDp =  0.00588

 Side 1  free  transition at x/c =  0.9877   76
 Side 2  free  transition at x/c =  0.6076   57

  15   rms: 0.4039E-02   max: -.6071E-01   C at   57  2
       a = -2.500      CL = -0.1905
      Cm = -0.0323     CD =  0.01179   =>   CDf =  0.00591    CDp =  0.00588

 Side 1  free  transition at x/c =  0.9877   76
 Side 2  free  transition at x/c =  0.6076   57

  16   rms: 0.4039E-02   max: -.6071E-01   C at   57  2
       a = -2.500      CL = -0.1905
      Cm = -0.0323     CD =  0.01179   =>   CDf =  0.00591    CDp =  0.00588

 Side 1  free  transition at x/c =  0.9877   76
 Side 2  free  transition at x/c =  0.6076   57

  17   rms: 0.4039E-02   max: -.6070E-01   C at   57  2
       a = -2.500      CL = -0.1905
      Cm = -0.0323     CD =  0.01179   =>   CDf =  0.00591    CDp =  0.00588

 Side 1  free  transition at x/c =  0.9877   76
 Side 2  free  transition at x/c =  0.6076   57

  18   rms: 0.4039E-02   max: -.6071E-01   C at   57  2
       a = -2.500      CL = -0.1905
      Cm = -0.0323     CD =  0.01179   =>   CDf =  0.00591    CDp =  0.00588

 Side 1  free  transition at x/c =  0.9877   76
 Side 2  free  transition at x/c =  0.6076   57

  19   rms: 0.4039E-02   max: -.6070E-01   C at   57  2
       a = -2.500      CL = -0.1905
      Cm = -0.0323     CD =  0.01179   =>   CDf =  0.00591    CDp =  0.00588

 Side 1  free  transition at x/c =  0.9877   76
 Side 2  free  transition at x/c =  0.6076   57

  20   rms: 0.4039E-02   max: -.6070E-01   C at   57  2
       a = -2.500      CL = -0.1905
      Cm = -0.0323     CD =  0.01179   =>   CDf =  0.00591    CDp =  0.00588

 Side 1  free  transition at x/c =  0.9877   76
 Side 2  free  transition at x/c =  0.6076   57

  21   rms: 0.4039E-02   max: -.6071E-01   C at   57  2
       a = -2.500      CL = -0.1905
      Cm = -0.0323     CD =  0.01179   =>   CDf =  0.00591    CDp =  0.00588

 Side 1  free  transition at x/c =  0.9877   76
 Side 2  free  transition at x/c =  0.6076   57

  22   rms: 0.4039E-02   max: -.6070E-01   C at   57  2
       a = -2.500      CL = -0.1905
      Cm = -0.0323     CD =  0.01179   =>   CDf =  0.00591    CDp =  0.00588

 Side 1  free  transition at x/c =  0.9877   76
 Side 2  free  transition at x/c =  0.6076   57

  23   rms: 0.4039E-02   max: -.6071E-01   C at   57  2
       a = -2.500      CL = -0.1905
      Cm = -0.0323     CD =  0.01179   =>   CDf =  0.00591    CDp =  0.00588

 Side 1  free  transition at x/c =  0.9877   76
 Side 2  free  transition at x/c =  0.6076   57

  24   rms: 0.4039E-02   max: -.6070E-01   C at   57  2
       a = -2.500      CL = -0.1905
      Cm = -0.0323     CD =  0.01179   =>   CDf =  0.00591    CDp =  0.00588

 Side 1  free  transition at x/c =  0.9877   76
 Side 2  free  transition at x/c =  0.6076   57

  25   rms: 0.4039E-02   max: -.6071E-01   C at   57  2
       a = -2.500      CL = -0.1905
      Cm = -0.0323     CD =  0.01179   =>   CDf =  0.00591    CDp =  0.00588

 Side 1  free  transition at x/c =  0.9877   76
 Side 2  free  transition at x/c =  0.6076   57

  26   rms: 0.4039E-02   max: -.6070E-01   C at   57  2
       a = -2.500      CL = -0.1905
      Cm = -0.0323     CD =  0.01179   =>   CDf =  0.00591    CDp =  0.00588

 Side 1  free  transition at x/c =  0.9877   76
 Side 2  free  transition at x/c =  0.6076   57

  27   rms: 0.4039E-02   max: -.6070E-01   C at   57  2
       a = -2.500      CL = -0.1905
      Cm = -0.0323     CD =  0.01179   =>   CDf =  0.00591    CDp =  0.00588

 Side 1  free  transition at x/c =  0.9877   76
 Side 2  free  transition at x/c =  0.6076   57

  28   rms: 0.4039E-02   max: -.6071E-01   C at   57  2
       a = -2.500      CL = -0.1905
      Cm = -0.0323     CD =  0.01179   =>   CDf =  0.00591    CDp =  0.00588

 Side 1  free  transition at x/c =  0.9877   76
 Side 2  free  transition at x/c =  0.6076   57

  29   rms: 0.4039E-02   max: -.6070E-01   C at   57  2
       a = -2.500      CL = -0.1905
      Cm = -0.0323     CD =  0.01179   =>   CDf =  0.00591    CDp =  0.00588

 Side 1  free  transition at x/c =  0.9877   76
 Side 2  free  transition at x/c =  0.6076   57

  30   rms: 0.4039E-02   max: -.6070E-01   C at   57  2
       a = -2.500      CL = -0.1905
      Cm = -0.0323     CD =  0.01179   =>   CDf =  0.00591    CDp =  0.00588

 Side 1  free  transition at x/c =  0.9877   76
 Side 2  free  transition at x/c =  0.6076   57

  31   rms: 0.4039E-02   max: -.6070E-01   C at   57  2
       a = -2.500      CL = -0.1905
      Cm = -0.0323     CD =  0.01179   =>   CDf =  0.00591    CDp =  0.00588

 Side 1  free  transition at x/c =  0.9877   76
 Side 2  free  transition at x/c =  0.6076   57

  32   rms: 0.4039E-02   max: -.6070E-01   C at   57  2
       a = -2.500      CL = -0.1905
      Cm = -0.0323     CD =  0.01179   =>   CDf =  0.00591    CDp =  0.00588

 Side 1  free  transition at x/c =  0.9877   76
 Side 2  free  transition at x/c =  0.6076   57

  33   rms: 0.4039E-02   max: -.6070E-01   C at   57  2
       a = -2.500      CL = -0.1905
      Cm = -0.0323     CD =  0.01179   =>   CDf =  0.00591    CDp =  0.00588

 Side 1  free  transition at x/c =  0.9877   76
 Side 2  free  transition at x/c =  0.6076   57

  34   rms: 0.4039E-02   max: -.6070E-01   C at   57  2
       a = -2.500      CL = -0.1905
      Cm = -0.0323     CD =  0.01179   =>   CDf =  0.00591    CDp =  0.00588

 Side 1  free  transition at x/c =  0.9877   76
 Side 2  free  transition at x/c =  0.6076   57

  35   rms: 0.4039E-02   max: -.6071E-01   C at   57  2
       a = -2.500      CL = -0.1905
      Cm = -0.0323     CD =  0.01179   =>   CDf =  0.00591    CDp =  0.00588

 Side 1  free  transition at x/c =  0.9877   76
 Side 2  free  transition at x/c =  0.6076   57

  36   rms: 0.4039E-02   max: -.6071E-01   C at   57  2
       a = -2.500      CL = -0.1905
      Cm = -0.0323     CD =  0.01179   =>   CDf =  0.00591    CDp =  0.00588

 Side 1  free  transition at x/c =  0.9877   76
 Side 2  free  transition at x/c =  0.6076   57

  37   rms: 0.4039E-02   max: -.6070E-01   C at   57  2
       a = -2.500      CL = -0.1905
      Cm = -0.0323     CD =  0.01179   =>   CDf =  0.00591    CDp =  0.00588

 Side 1  free  transition at x/c =  0.9877   76
 Side 2  free  transition at x/c =  0.6076   57

  38   rms: 0.4039E-02   max: -.6070E-01   C at   57  2
       a = -2.500      CL = -0.1905
      Cm = -0.0323     CD =  0.01179   =>   CDf =  0.00591    CDp =  0.00588

 Side 1  free  transition at x/c =  0.9877   76
 Side 2  free  transition at x/c =  0.6076   57

  39   rms: 0.4039E-02   max: -.6071E-01   C at   57  2
       a = -2.500      CL = -0.1905
      Cm = -0.0323     CD =  0.01179   =>   CDf =  0.00591    CDp =  0.00588

 Side 1  free  transition at x/c =  0.9877   76
 Side 2  free  transition at x/c =  0.6076   57

  40   rms: 0.4039E-02   max: -.6071E-01   C at   57  2
       a = -2.500      CL = -0.1905
      Cm = -0.0323     CD =  0.01179   =>   CDf =  0.00591    CDp =  0.00588

 Side 1  free  transition at x/c =  0.9877   76
 Side 2  free  transition at x/c =  0.6076   57

  41   rms: 0.4039E-02   max: -.6070E-01   C at   57  2
       a = -2.500      CL = -0.1905
      Cm = -0.0323     CD =  0.01179   =>   CDf =  0.00591    CDp =  0.00588

 Side 1  free  transition at x/c =  0.9877   76
 Side 2  free  transition at x/c =  0.6076   57

  42   rms: 0.4039E-02   max: -.6070E-01   C at   57  2
       a = -2.500      CL = -0.1905
      Cm = -0.0323     CD =  0.01179   =>   CDf =  0.00591    CDp =  0.00588

 Side 1  free  transition at x/c =  0.9877   76
 Side 2  free  transition at x/c =  0.6076   57

  43   rms: 0.4039E-02   max: -.6071E-01   C at   57  2
       a = -2.500      CL = -0.1905
      Cm = -0.0323     CD =  0.01179   =>   CDf =  0.00591    CDp =  0.00588

 Side 1  free  transition at x/c =  0.9877   76
 Side 2  free  transition at x/c =  0.6076   57

  44   rms: 0.4039E-02   max: -.6071E-01   C at   57  2
       a = -2.500      CL = -0.1905
      Cm = -0.0323     CD =  0.01179   =>   CDf =  0.00591    CDp =  0.00588

 Side 1  free  transition at x/c =  0.9877   76
 Side 2  free  transition at x/c =  0.6076   57

  45   rms: 0.4039E-02   max: -.6071E-01   C at   57  2
       a = -2.500      CL = -0.1905
      Cm = -0.0323     CD =  0.01179   =>   CDf =  0.00591    CDp =  0.00588

 Side 1  free  transition at x/c =  0.9877   76
 Side 2  free  transition at x/c =  0.6076   57

  46   rms: 0.4039E-02   max: -.6070E-01   C at   57  2
       a = -2.500      CL = -0.1905
      Cm = -0.0323     CD =  0.01179   =>   CDf =  0.00591    CDp =  0.00588

 Side 1  free  transition at x/c =  0.9877   76
 Side 2  free  transition at x/c =  0.6076   57

  47   rms: 0.4039E-02   max: -.6071E-01   C at   57  2
       a = -2.500      CL = -0.1905
      Cm = -0.0323     CD =  0.01179   =>   CDf =  0.00591    CDp =  0.00588

 Side 1  free  transition at x/c =  0.9877   76
 Side 2  free  transition at x/c =  0.6076   57

  48   rms: 0.4039E-02   max: -.6070E-01   C at   57  2
       a = -2.500      CL = -0.1905
      Cm = -0.0323     CD =  0.01179   =>   CDf =  0.00591    CDp =  0.00588

 Side 1  free  transition at x/c =  0.9877   76
 Side 2  free  transition at x/c =  0.6076   57

  49   rms: 0.4039E-02   max: -.6071E-01   C at   57  2
       a = -2.500      CL = -0.1905
      Cm = -0.0323     CD =  0.01179   =>   CDf =  0.00591    CDp =  0.00588

 Side 1  free  transition at x/c =  0.9877   76
 Side 2  free  transition at x/c =  0.6076   57

  50   rms: 0.4039E-02   max: -.6070E-01   C at   57  2
       a = -2.500      CL = -0.1905
      Cm = -0.0323     CD =  0.01179   =>   CDf =  0.00591    CDp =  0.00588

 Side 1  free  transition at x/c =  0.9877   76
 Side 2  free  transition at x/c =  0.6076   57

  51   rms: 0.4039E-02   max: -.6070E-01   C at   57  2
       a = -2.500      CL = -0.1905
      Cm = -0.0323     CD =  0.01179   =>   CDf =  0.00591    CDp =  0.00588

 Side 1  free  transition at x/c =  0.9877   76
 Side 2  free  transition at x/c =  0.6076   57

  52   rms: 0.4039E-02   max: -.6071E-01   C at   57  2
       a = -2.500      CL = -0.1905
      Cm = -0.0323     CD =  0.01179   =>   CDf =  0.00591    CDp =  0.00588

 Side 1  free  transition at x/c =  0.9877   76
 Side 2  free  transition at x/c =  0.6076   57

  53   rms: 0.4039E-02   max: -.6071E-01   C at   57  2
       a = -2.500      CL = -0.1905
      Cm = -0.0323     CD =  0.01179   =>   CDf =  0.00591    CDp =  0.00588

 Side 1  free  transition at x/c =  0.9877   76
 Side 2  free  transition at x/c =  0.6076   57

  54   rms: 0.4039E-02   max: -.6070E-01   C at   57  2
       a = -2.500      CL = -0.1905
      Cm = -0.0323     CD =  0.01179   =>   CDf =  0.00591    CDp =  0.00588

 Side 1  free  transition at x/c =  0.9877   76
 Side 2  free  transition at x/c =  0.6076   57

  55   rms: 0.4039E-02   max: -.6071E-01   C at   57  2
       a = -2.500      CL = -0.1905
      Cm = -0.0323     CD =  0.01179   =>   CDf =  0.00591    CDp =  0.00588

 Side 1  free  transition at x/c =  0.9877   76
 Side 2  free  transition at x/c =  0.6076   57

  56   rms: 0.4039E-02   max: -.6070E-01   C at   57  2
       a = -2.500      CL = -0.1905
      Cm = -0.0323     CD =  0.01179   =>   CDf =  0.00591    CDp =  0.00588

 Side 1  free  transition at x/c =  0.9877   76
 Side 2  free  transition at x/c =  0.6076   57

  57   rms: 0.4039E-02   max: -.6071E-01   C at   57  2
       a = -2.500      CL = -0.1905
      Cm = -0.0323     CD =  0.01179   =>   CDf =  0.00591    CDp =  0.00588

 Side 1  free  transition at x/c =  0.9877   76
 Side 2  free  transition at x/c =  0.6076   57

  58   rms: 0.4039E-02   max: -.6071E-01   C at   57  2
       a = -2.500      CL = -0.1905
      Cm = -0.0323     CD =  0.01179   =>   CDf =  0.00591    CDp =  0.00588

 Side 1  free  transition at x/c =  0.9877   76
 Side 2  free  transition at x/c =  0.6076   57

  59   rms: 0.4039E-02   max: -.6070E-01   C at   57  2
       a = -2.500      CL = -0.1905
      Cm = -0.0323     CD =  0.01179   =>   CDf =  0.00591    CDp =  0.00588

 Side 1  free  transition at x/c =  0.9877   76
 Side 2  free  transition at x/c =  0.6076   57

  60   rms: 0.4039E-02   max: -.6071E-01   C at   57  2
       a = -2.500      CL = -0.1905
      Cm = -0.0323     CD =  0.01179   =>   CDf =  0.00591    CDp =  0.00588

 Side 1  free  transition at x/c =  0.9877   76
 Side 2  free  transition at x/c =  0.6076   57

  61   rms: 0.4039E-02   max: -.6070E-01   C at   57  2
       a = -2.500      CL = -0.1905
      Cm = -0.0323     CD =  0.01179   =>   CDf =  0.00591    CDp =  0.00588

 Side 1  free  transition at x/c =  0.9877   76
 Side 2  free  transition at x/c =  0.6076   57

  62   rms: 0.4039E-02   max: -.6071E-01   C at   57  2
       a = -2.500      CL = -0.1905
      Cm = -0.0323     CD =  0.01179   =>   CDf =  0.00591    CDp =  0.00588

 Side 1  free  transition at x/c =  0.9877   76
 Side 2  free  transition at x/c =  0.6076   57

  63   rms: 0.4039E-02   max: -.6070E-01   C at   57  2
       a = -2.500      CL = -0.1905
      Cm = -0.0323     CD =  0.01179   =>   CDf =  0.00591    CDp =  0.00588

 Side 1  free  transition at x/c =  0.9877   76
 Side 2  free  transition at x/c =  0.6076   57

  64   rms: 0.4039E-02   max: -.6070E-01   C at   57  2
       a = -2.500      CL = -0.1905
      Cm = -0.0323     CD =  0.01179   =>   CDf =  0.00591    CDp =  0.00588

 Side 1  free  transition at x/c =  0.9877   76
 Side 2  free  transition at x/c =  0.6076   57

  65   rms: 0.4039E-02   max: -.6071E-01   C at   57  2
       a = -2.500      CL = -0.1905
      Cm = -0.0323     CD =  0.01179   =>   CDf =  0.00591    CDp =  0.00588

 Side 1  free  transition at x/c =  0.9877   76
 Side 2  free  transition at x/c =  0.6076   57

  66   rms: 0.4039E-02   max: -.6071E-01   C at   57  2
       a = -2.500      CL = -0.1905
      Cm = -0.0323     CD =  0.01179   =>   CDf =  0.00591    CDp =  0.00588

 Side 1  free  transition at x/c =  0.9877   76
 Side 2  free  transition at x/c =  0.6076   57

  67   rms: 0.4039E-02   max: -.6071E-01   C at   57  2
       a = -2.500      CL = -0.1905
      Cm = -0.0323     CD =  0.01179   =>   CDf =  0.00591    CDp =  0.00588

 Side 1  free  transition at x/c =  0.9877   76
 Side 2  free  transition at x/c =  0.6076   57

  68   rms: 0.4039E-02   max: -.6070E-01   C at   57  2
       a = -2.500      CL = -0.1905
      Cm = -0.0323     CD =  0.01179   =>   CDf =  0.00591    CDp =  0.00588

 Side 1  free  transition at x/c =  0.9877   76
 Side 2  free  transition at x/c =  0.6076   57

  69   rms: 0.4039E-02   max: -.6071E-01   C at   57  2
       a = -2.500      CL = -0.1905
      Cm = -0.0323     CD =  0.01179   =>   CDf =  0.00591    CDp =  0.00588

 Side 1  free  transition at x/c =  0.9877   76
 Side 2  free  transition at x/c =  0.6076   57

  70   rms: 0.4039E-02   max: -.6070E-01   C at   57  2
       a = -2.500      CL = -0.1905
      Cm = -0.0323     CD =  0.01179   =>   CDf =  0.00591    CDp =  0.00588

 Side 1  free  transition at x/c =  0.9877   76
 Side 2  free  transition at x/c =  0.6076   57

  71   rms: 0.4039E-02   max: -.6071E-01   C at   57  2
       a = -2.500      CL = -0.1905
      Cm = -0.0323     CD =  0.01179   =>   CDf =  0.00591    CDp =  0.00588

 Side 1  free  transition at x/c =  0.9877   76
 Side 2  free  transition at x/c =  0.6076   57

  72   rms: 0.4039E-02   max: -.6070E-01   C at   57  2
       a = -2.500      CL = -0.1905
      Cm = -0.0323     CD =  0.01179   =>   CDf =  0.00591    CDp =  0.00588

 Side 1  free  transition at x/c =  0.9877   76
 Side 2  free  transition at x/c =  0.6076   57

  73   rms: 0.4039E-02   max: -.6070E-01   C at   57  2
       a = -2.500      CL = -0.1905
      Cm = -0.0323     CD =  0.01179   =>   CDf =  0.00591    CDp =  0.00588

 Side 1  free  transition at x/c =  0.9877   76
 Side 2  free  transition at x/c =  0.6076   57

  74   rms: 0.4039E-02   max: -.6071E-01   C at   57  2
       a = -2.500      CL = -0.1905
      Cm = -0.0323     CD =  0.01179   =>   CDf =  0.00591    CDp =  0.00588

 Side 1  free  transition at x/c =  0.9877   76
 Side 2  free  transition at x/c =  0.6076   57

  75   rms: 0.4039E-02   max: -.6071E-01   C at   57  2
       a = -2.500      CL = -0.1905
      Cm = -0.0323     CD =  0.01179   =>   CDf =  0.00591    CDp =  0.00588

 Side 1  free  transition at x/c =  0.9877   76
 Side 2  free  transition at x/c =  0.6076   57

  76   rms: 0.4039E-02   max: -.6071E-01   C at   57  2
       a = -2.500      CL = -0.1905
      Cm = -0.0323     CD =  0.01179   =>   CDf =  0.00591    CDp =  0.00588

 Side 1  free  transition at x/c =  0.9877   76
 Side 2  free  transition at x/c =  0.6076   57

  77   rms: 0.4039E-02   max: -.6070E-01   C at   57  2
       a = -2.500      CL = -0.1905
      Cm = -0.0323     CD =  0.01179   =>   CDf =  0.00591    CDp =  0.00588

 Side 1  free  transition at x/c =  0.9877   76
 Side 2  free  transition at x/c =  0.6076   57

  78   rms: 0.4039E-02   max: -.6071E-01   C at   57  2
       a = -2.500      CL = -0.1905
      Cm = -0.0323     CD =  0.01179   =>   CDf =  0.00591    CDp =  0.00588

 Side 1  free  transition at x/c =  0.9877   76
 Side 2  free  transition at x/c =  0.6076   57

  79   rms: 0.4039E-02   max: -.6070E-01   C at   57  2
       a = -2.500      CL = -0.1905
      Cm = -0.0323     CD =  0.01179   =>   CDf =  0.00591    CDp =  0.00588

 Side 1  free  transition at x/c =  0.9877   76
 Side 2  free  transition at x/c =  0.6076   57

  80   rms: 0.4039E-02   max: -.6070E-01   C at   57  2
       a = -2.500      CL = -0.1905
      Cm = -0.0323     CD =  0.01179   =>   CDf =  0.00591    CDp =  0.00588

 Side 1  free  transition at x/c =  0.9877   76
 Side 2  free  transition at x/c =  0.6076   57

  81   rms: 0.4039E-02   max: -.6071E-01   C at   57  2
       a = -2.500      CL = -0.1905
      Cm = -0.0323     CD =  0.01179   =>   CDf =  0.00591    CDp =  0.00588

 Side 1  free  transition at x/c =  0.9877   76
 Side 2  free  transition at x/c =  0.6076   57

  82   rms: 0.4039E-02   max: -.6070E-01   C at   57  2
       a = -2.500      CL = -0.1905
      Cm = -0.0323     CD =  0.01179   =>   CDf =  0.00591    CDp =  0.00588

 Side 1  free  transition at x/c =  0.9877   76
 Side 2  free  transition at x/c =  0.6076   57

  83   rms: 0.4039E-02   max: -.6071E-01   C at   57  2
       a = -2.500      CL = -0.1905
      Cm = -0.0323     CD =  0.01179   =>   CDf =  0.00591    CDp =  0.00588

 Side 1  free  transition at x/c =  0.9877   76
 Side 2  free  transition at x/c =  0.6076   57

  84   rms: 0.4039E-02   max: -.6070E-01   C at   57  2
       a = -2.500      CL = -0.1905
      Cm = -0.0323     CD =  0.01179   =>   CDf =  0.00591    CDp =  0.00588

 Side 1  free  transition at x/c =  0.9877   76
 Side 2  free  transition at x/c =  0.6076   57

  85   rms: 0.4039E-02   max: -.6071E-01   C at   57  2
       a = -2.500      CL = -0.1905
      Cm = -0.0323     CD =  0.01179   =>   CDf =  0.00591    CDp =  0.00588

 Side 1  free  transition at x/c =  0.9877   76
 Side 2  free  transition at x/c =  0.6076   57

  86   rms: 0.4039E-02   max: -.6071E-01   C at   57  2
       a = -2.500      CL = -0.1905
      Cm = -0.0323     CD =  0.01179   =>   CDf =  0.00591    CDp =  0.00588

 Side 1  free  transition at x/c =  0.9877   76
 Side 2  free  transition at x/c =  0.6076   57

  87   rms: 0.4039E-02   max: -.6071E-01   C at   57  2
       a = -2.500      CL = -0.1905
      Cm = -0.0323     CD =  0.01179   =>   CDf =  0.00591    CDp =  0.00588

 Side 1  free  transition at x/c =  0.9877   76
 Side 2  free  transition at x/c =  0.6076   57

  88   rms: 0.4039E-02   max: -.6071E-01   C at   57  2
       a = -2.500      CL = -0.1905
      Cm = -0.0323     CD =  0.01179   =>   CDf =  0.00591    CDp =  0.00588

 Side 1  free  transition at x/c =  0.9877   76
 Side 2  free  transition at x/c =  0.6076   57

  89   rms: 0.4039E-02   max: -.6071E-01   C at   57  2
       a = -2.500      CL = -0.1905
      Cm = -0.0323     CD =  0.01179   =>   CDf =  0.00591    CDp =  0.00588

 Side 1  free  transition at x/c =  0.9877   76
 Side 2  free  transition at x/c =  0.6076   57

  90   rms: 0.4039E-02   max: -.6071E-01   C at   57  2
       a = -2.500      CL = -0.1905
      Cm = -0.0323     CD =  0.01179   =>   CDf =  0.00591    CDp =  0.00588

 Side 1  free  transition at x/c =  0.9877   76
 Side 2  free  transition at x/c =  0.6076   57

  91   rms: 0.4039E-02   max: -.6071E-01   C at   57  2
       a = -2.500      CL = -0.1905
      Cm = -0.0323     CD =  0.01179   =>   CDf =  0.00591    CDp =  0.00588

 Side 1  free  transition at x/c =  0.9877   76
 Side 2  free  transition at x/c =  0.6076   57

  92   rms: 0.4039E-02   max: -.6070E-01   C at   57  2
       a = -2.500      CL = -0.1905
      Cm = -0.0323     CD =  0.01179   =>   CDf =  0.00591    CDp =  0.00588

 Side 1  free  transition at x/c =  0.9877   76
 Side 2  free  transition at x/c =  0.6076   57

  93   rms: 0.4039E-02   max: -.6071E-01   C at   57  2
       a = -2.500      CL = -0.1905
      Cm = -0.0323     CD =  0.01179   =>   CDf =  0.00591    CDp =  0.00588

 Side 1  free  transition at x/c =  0.9877   76
 Side 2  free  transition at x/c =  0.6076   57

  94   rms: 0.4039E-02   max: -.6071E-01   C at   57  2
       a = -2.500      CL = -0.1905
      Cm = -0.0323     CD =  0.01179   =>   CDf =  0.00591    CDp =  0.00588

 Side 1  free  transition at x/c =  0.9877   76
 Side 2  free  transition at x/c =  0.6076   57

  95   rms: 0.4039E-02   max: -.6070E-01   C at   57  2
       a = -2.500      CL = -0.1905
      Cm = -0.0323     CD =  0.01179   =>   CDf =  0.00591    CDp =  0.00588

 Side 1  free  transition at x/c =  0.9877   76
 Side 2  free  transition at x/c =  0.6076   57

  96   rms: 0.4039E-02   max: -.6071E-01   C at   57  2
       a = -2.500      CL = -0.1905
      Cm = -0.0323     CD =  0.01179   =>   CDf =  0.00591    CDp =  0.00588

 Side 1  free  transition at x/c =  0.9877   76
 Side 2  free  transition at x/c =  0.6076   57

  97   rms: 0.4039E-02   max: -.6070E-01   C at   57  2
       a = -2.500      CL = -0.1905
      Cm = -0.0323     CD =  0.01179   =>   CDf =  0.00591    CDp =  0.00588

 Side 1  free  transition at x/c =  0.9877   76
 Side 2  free  transition at x/c =  0.6076   57

  98   rms: 0.4039E-02   max: -.6070E-01   C at   57  2
       a = -2.500      CL = -0.1905
      Cm = -0.0323     CD =  0.01179   =>   CDf =  0.00591    CDp =  0.00588

 Side 1  free  transition at x/c =  0.9877   76
 Side 2  free  transition at x/c =  0.6076   57

  99   rms: 0.4039E-02   max: -.6070E-01   C at   57  2
       a = -2.500      CL = -0.1905
      Cm = -0.0323     CD =  0.01179   =>   CDf =  0.00591    CDp =  0.00588

 Side 1  free  transition at x/c =  0.9877   76
 Side 2  free  transition at x/c =  0.6076   57

 100   rms: 0.4039E-02   max: -.6070E-01   C at   57  2
       a = -2.500      CL = -0.1905
      Cm = -0.0323     CD =  0.01179   =>   CDf =  0.00591    CDp =  0.00588

 Side 1  free  transition at x/c =  0.9877   76
 Side 2  free  transition at x/c =  0.6076   57

 101   rms: 0.4039E-02   max: -.6070E-01   C at   57  2
       a = -2.500      CL = -0.1905
      Cm = -0.0323     CD =  0.01179   =>   CDf =  0.00591    CDp =  0.00588

 Side 1  free  transition at x/c =  0.9877   76
 Side 2  free  transition at x/c =  0.6076   57

 102   rms: 0.4039E-02   max: -.6071E-01   C at   57  2
       a = -2.500      CL = -0.1905
      Cm = -0.0323     CD =  0.01179   =>   CDf =  0.00591    CDp =  0.00588

 Side 1  free  transition at x/c =  0.9877   76
 Side 2  free  transition at x/c =  0.6076   57

 103   rms: 0.4039E-02   max: -.6071E-01   C at   57  2
       a = -2.500      CL = -0.1905
      Cm = -0.0323     CD =  0.01179   =>   CDf =  0.00591    CDp =  0.00588

 Side 1  free  transition at x/c =  0.9877   76
 Side 2  free  transition at x/c =  0.6076   57

 104   rms: 0.4039E-02   max: -.6070E-01   C at   57  2
       a = -2.500      CL = -0.1905
      Cm = -0.0323     CD =  0.01179   =>   CDf =  0.00591    CDp =  0.00588

 Side 1  free  transition at x/c =  0.9877   76
 Side 2  free  transition at x/c =  0.6076   57

 105   rms: 0.4039E-02   max: -.6070E-01   C at   57  2
       a = -2.500      CL = -0.1905
      Cm = -0.0323     CD =  0.01179   =>   CDf =  0.00591    CDp =  0.00588

 Side 1  free  transition at x/c =  0.9877   76
 Side 2  free  transition at x/c =  0.6076   57

 106   rms: 0.4039E-02   max: -.6070E-01   C at   57  2
       a = -2.500      CL = -0.1905
      Cm = -0.0323     CD =  0.01179   =>   CDf =  0.00591    CDp =  0.00588

 Side 1  free  transition at x/c =  0.9877   76
 Side 2  free  transition at x/c =  0.6076   57

 107   rms: 0.4039E-02   max: -.6071E-01   C at   57  2
       a = -2.500      CL = -0.1905
      Cm = -0.0323     CD =  0.01179   =>   CDf =  0.00591    CDp =  0.00588

 Side 1  free  transition at x/c =  0.9877   76
 Side 2  free  transition at x/c =  0.6076   57

 108   rms: 0.4039E-02   max: -.6070E-01   C at   57  2
       a = -2.500      CL = -0.1905
      Cm = -0.0323     CD =  0.01179   =>   CDf =  0.00591    CDp =  0.00588

 Side 1  free  transition at x/c =  0.9877   76
 Side 2  free  transition at x/c =  0.6076   57

 109   rms: 0.4039E-02   max: -.6071E-01   C at   57  2
       a = -2.500      CL = -0.1905
      Cm = -0.0323     CD =  0.01179   =>   CDf =  0.00591    CDp =  0.00588

 Side 1  free  transition at x/c =  0.9877   76
 Side 2  free  transition at x/c =  0.6076   57

 110   rms: 0.4039E-02   max: -.6071E-01   C at   57  2
       a = -2.500      CL = -0.1905
      Cm = -0.0323     CD =  0.01179   =>   CDf =  0.00591    CDp =  0.00588

 Side 1  free  transition at x/c =  0.9877   76
 Side 2  free  transition at x/c =  0.6076   57

 111   rms: 0.4039E-02   max: -.6070E-01   C at   57  2
       a = -2.500      CL = -0.1905
      Cm = -0.0323     CD =  0.01179   =>   CDf =  0.00591    CDp =  0.00588

 Side 1  free  transition at x/c =  0.9877   76
 Side 2  free  transition at x/c =  0.6076   57

 112   rms: 0.4039E-02   max: -.6070E-01   C at   57  2
       a = -2.500      CL = -0.1905
      Cm = -0.0323     CD =  0.01179   =>   CDf =  0.00591    CDp =  0.00588

 Side 1  free  transition at x/c =  0.9877   76
 Side 2  free  transition at x/c =  0.6076   57

 113   rms: 0.4039E-02   max: -.6071E-01   C at   57  2
       a = -2.500      CL = -0.1905
      Cm = -0.0323     CD =  0.01179   =>   CDf =  0.00591    CDp =  0.00588

 Side 1  free  transition at x/c =  0.9877   76
 Side 2  free  transition at x/c =  0.6076   57

 114   rms: 0.4039E-02   max: -.6071E-01   C at   57  2
       a = -2.500      CL = -0.1905
      Cm = -0.0323     CD =  0.01179   =>   CDf =  0.00591    CDp =  0.00588

 Side 1  free  transition at x/c =  0.9877   76
 Side 2  free  transition at x/c =  0.6076   57

 115   rms: 0.4039E-02   max: -.6070E-01   C at   57  2
       a = -2.500      CL = -0.1905
      Cm = -0.0323     CD =  0.01179   =>   CDf =  0.00591    CDp =  0.00588

 Side 1  free  transition at x/c =  0.9877   76
 Side 2  free  transition at x/c =  0.6076   57

 116   rms: 0.4039E-02   max: -.6070E-01   C at   57  2
       a = -2.500      CL = -0.1905
      Cm = -0.0323     CD =  0.01179   =>   CDf =  0.00591    CDp =  0.00588

 Side 1  free  transition at x/c =  0.9877   76
 Side 2  free  transition at x/c =  0.6076   57

 117   rms: 0.4039E-02   max: -.6071E-01   C at   57  2
       a = -2.500      CL = -0.1905
      Cm = -0.0323     CD =  0.01179   =>   CDf =  0.00591    CDp =  0.00588

 Side 1  free  transition at x/c =  0.9877   76
 Side 2  free  transition at x/c =  0.6076   57

 118   rms: 0.4039E-02   max: -.6070E-01   C at   57  2
       a = -2.500      CL = -0.1905
      Cm = -0.0323     CD =  0.01179   =>   CDf =  0.00591    CDp =  0.00588

 Side 1  free  transition at x/c =  0.9877   76
 Side 2  free  transition at x/c =  0.6076   57

 119   rms: 0.4039E-02   max: -.6071E-01   C at   57  2
       a = -2.500      CL = -0.1905
      Cm = -0.0323     CD =  0.01179   =>   CDf =  0.00591    CDp =  0.00588

 Side 1  free  transition at x/c =  0.9877   76
 Side 2  free  transition at x/c =  0.6076   57

 120   rms: 0.4039E-02   max: -.6071E-01   C at   57  2
       a = -2.500      CL = -0.1905
      Cm = -0.0323     CD =  0.01179   =>   CDf =  0.00591    CDp =  0.00588

 Side 1  free  transition at x/c =  0.9877   76
 Side 2  free  transition at x/c =  0.6076   57

 121   rms: 0.4039E-02   max: -.6070E-01   C at   57  2
       a = -2.500      CL = -0.1905
      Cm = -0.0323     CD =  0.01179   =>   CDf =  0.00591    CDp =  0.00588

 Side 1  free  transition at x/c =  0.9877   76
 Side 2  free  transition at x/c =  0.6076   57

 122   rms: 0.4039E-02   max: -.6070E-01   C at   57  2
       a = -2.500      CL = -0.1905
      Cm = -0.0323     CD =  0.01179   =>   CDf =  0.00591    CDp =  0.00588

 Side 1  free  transition at x/c =  0.9877   76
 Side 2  free  transition at x/c =  0.6076   57

 123   rms: 0.4039E-02   max: -.6071E-01   C at   57  2
       a = -2.500      CL = -0.1905
      Cm = -0.0323     CD =  0.01179   =>   CDf =  0.00591    CDp =  0.00588

 Side 1  free  transition at x/c =  0.9877   76
 Side 2  free  transition at x/c =  0.6076   57

 124   rms: 0.4039E-02   max: -.6070E-01   C at   57  2
       a = -2.500      CL = -0.1905
      Cm = -0.0323     CD =  0.01179   =>   CDf =  0.00591    CDp =  0.00588

 Side 1  free  transition at x/c =  0.9877   76
 Side 2  free  transition at x/c =  0.6076   57

 125   rms: 0.4039E-02   max: -.6070E-01   C at   57  2
       a = -2.500      CL = -0.1905
      Cm = -0.0323     CD =  0.01179   =>   CDf =  0.00591    CDp =  0.00588

 Side 1  free  transition at x/c =  0.9877   76
 Side 2  free  transition at x/c =  0.6076   57

 126   rms: 0.4039E-02   max: -.6071E-01   C at   57  2
       a = -2.500      CL = -0.1905
      Cm = -0.0323     CD =  0.01179   =>   CDf =  0.00591    CDp =  0.00588

 Side 1  free  transition at x/c =  0.9877   76
 Side 2  free  transition at x/c =  0.6076   57

 127   rms: 0.4039E-02   max: -.6070E-01   C at   57  2
       a = -2.500      CL = -0.1905
      Cm = -0.0323     CD =  0.01179   =>   CDf =  0.00591    CDp =  0.00588

 Side 1  free  transition at x/c =  0.9877   76
 Side 2  free  transition at x/c =  0.6076   57

 128   rms: 0.4039E-02   max: -.6071E-01   C at   57  2
       a = -2.500      CL = -0.1905
      Cm = -0.0323     CD =  0.01179   =>   CDf =  0.00591    CDp =  0.00588

 Side 1  free  transition at x/c =  0.9877   76
 Side 2  free  transition at x/c =  0.6076   57

 129   rms: 0.4039E-02   max: -.6070E-01   C at   57  2
       a = -2.500      CL = -0.1905
      Cm = -0.0323     CD =  0.01179   =>   CDf =  0.00591    CDp =  0.00588

 Side 1  free  transition at x/c =  0.9877   76
 Side 2  free  transition at x/c =  0.6076   57

 130   rms: 0.4039E-02   max: -.6070E-01   C at   57  2
       a = -2.500      CL = -0.1905
      Cm = -0.0323     CD =  0.01179   =>   CDf =  0.00591    CDp =  0.00588

 Side 1  free  transition at x/c =  0.9877   76
 Side 2  free  transition at x/c =  0.6076   57

 131   rms: 0.4039E-02   max: -.6071E-01   C at   57  2
       a = -2.500      CL = -0.1905
      Cm = -0.0323     CD =  0.01179   =>   CDf =  0.00591    CDp =  0.00588

 Side 1  free  transition at x/c =  0.9877   76
 Side 2  free  transition at x/c =  0.6076   57

 132   rms: 0.4039E-02   max: -.6070E-01   C at   57  2
       a = -2.500      CL = -0.1905
      Cm = -0.0323     CD =  0.01179   =>   CDf =  0.00591    CDp =  0.00588

 Side 1  free  transition at x/c =  0.9877   76
 Side 2  free  transition at x/c =  0.6076   57

 133   rms: 0.4039E-02   max: -.6070E-01   C at   57  2
       a = -2.500      CL = -0.1905
      Cm = -0.0323     CD =  0.01179   =>   CDf =  0.00591    CDp =  0.00588

 Side 1  free  transition at x/c =  0.9877   76
 Side 2  free  transition at x/c =  0.6076   57

 134   rms: 0.4039E-02   max: -.6071E-01   C at   57  2
       a = -2.500      CL = -0.1905
      Cm = -0.0323     CD =  0.01179   =>   CDf =  0.00591    CDp =  0.00588

 Side 1  free  transition at x/c =  0.9877   76
 Side 2  free  transition at x/c =  0.6076   57

 135   rms: 0.4039E-02   max: -.6070E-01   C at   57  2
       a = -2.500      CL = -0.1905
      Cm = -0.0323     CD =  0.01179   =>   CDf =  0.00591    CDp =  0.00588

 Side 1  free  transition at x/c =  0.9877   76
 Side 2  free  transition at x/c =  0.6076   57

 136   rms: 0.4039E-02   max: -.6070E-01   C at   57  2
       a = -2.500      CL = -0.1905
      Cm = -0.0323     CD =  0.01179   =>   CDf =  0.00591    CDp =  0.00588

 Side 1  free  transition at x/c =  0.9877   76
 Side 2  free  transition at x/c =  0.6076   57

 137   rms: 0.4039E-02   max: -.6070E-01   C at   57  2
       a = -2.500      CL = -0.1905
      Cm = -0.0323     CD =  0.01179   =>   CDf =  0.00591    CDp =  0.00588

 Side 1  free  transition at x/c =  0.9877   76
 Side 2  free  transition at x/c =  0.6076   57

 138   rms: 0.4039E-02   max: -.6071E-01   C at   57  2
       a = -2.500      CL = -0.1905
      Cm = -0.0323     CD =  0.01179   =>   CDf =  0.00591    CDp =  0.00588

 Side 1  free  transition at x/c =  0.9877   76
 Side 2  free  transition at x/c =  0.6076   57

 139   rms: 0.4039E-02   max: -.6071E-01   C at   57  2
       a = -2.500      CL = -0.1905
      Cm = -0.0323     CD =  0.01179   =>   CDf =  0.00591    CDp =  0.00588

 Side 1  free  transition at x/c =  0.9877   76
 Side 2  free  transition at x/c =  0.6076   57

 140   rms: 0.4039E-02   max: -.6071E-01   C at   57  2
       a = -2.500      CL = -0.1905
      Cm = -0.0323     CD =  0.01179   =>   CDf =  0.00591    CDp =  0.00588

 Side 1  free  transition at x/c =  0.9877   76
 Side 2  free  transition at x/c =  0.6076   57

 141   rms: 0.4039E-02   max: -.6070E-01   C at   57  2
       a = -2.500      CL = -0.1905
      Cm = -0.0323     CD =  0.01179   =>   CDf =  0.00591    CDp =  0.00588

 Side 1  free  transition at x/c =  0.9877   76
 Side 2  free  transition at x/c =  0.6076   57

 142   rms: 0.4039E-02   max: -.6070E-01   C at   57  2
       a = -2.500      CL = -0.1905
      Cm = -0.0323     CD =  0.01179   =>   CDf =  0.00591    CDp =  0.00588

 Side 1  free  transition at x/c =  0.9877   76
 Side 2  free  transition at x/c =  0.6076   57

 143   rms: 0.4039E-02   max: -.6071E-01   C at   57  2
       a = -2.500      CL = -0.1905
      Cm = -0.0323     CD =  0.01179   =>   CDf =  0.00591    CDp =  0.00588

 Side 1  free  transition at x/c =  0.9877   76
 Side 2  free  transition at x/c =  0.6076   57

 144   rms: 0.4039E-02   max: -.6070E-01   C at   57  2
       a = -2.500      CL = -0.1905
      Cm = -0.0323     CD =  0.01179   =>   CDf =  0.00591    CDp =  0.00588

 Side 1  free  transition at x/c =  0.9877   76
 Side 2  free  transition at x/c =  0.6076   57

 145   rms: 0.4039E-02   max: -.6071E-01   C at   57  2
       a = -2.500      CL = -0.1905
      Cm = -0.0323     CD =  0.01179   =>   CDf =  0.00591    CDp =  0.00588

 Side 1  free  transition at x/c =  0.9877   76
 Side 2  free  transition at x/c =  0.6076   57

 146   rms: 0.4039E-02   max: -.6070E-01   C at   57  2
       a = -2.500      CL = -0.1905
      Cm = -0.0323     CD =  0.01179   =>   CDf =  0.00591    CDp =  0.00588

 Side 1  free  transition at x/c =  0.9877   76
 Side 2  free  transition at x/c =  0.6076   57

 147   rms: 0.4039E-02   max: -.6071E-01   C at   57  2
       a = -2.500      CL = -0.1905
      Cm = -0.0323     CD =  0.01179   =>   CDf =  0.00591    CDp =  0.00588

 Side 1  free  transition at x/c =  0.9877   76
 Side 2  free  transition at x/c =  0.6076   57

 148   rms: 0.4039E-02   max: -.6070E-01   C at   57  2
       a = -2.500      CL = -0.1905
      Cm = -0.0323     CD =  0.01179   =>   CDf =  0.00591    CDp =  0.00588

 Side 1  free  transition at x/c =  0.9877   76
 Side 2  free  transition at x/c =  0.6076   57

 149   rms: 0.4039E-02   max: -.6070E-01   C at   57  2
       a = -2.500      CL = -0.1905
      Cm = -0.0323     CD =  0.01179   =>   CDf =  0.00591    CDp =  0.00588

 Side 1  free  transition at x/c =  0.9877   76
 Side 2  free  transition at x/c =  0.6076   57

 150   rms: 0.4039E-02   max: -.6071E-01   C at   57  2
       a = -2.500      CL = -0.1905
      Cm = -0.0323     CD =  0.01179   =>   CDf =  0.00591    CDp =  0.00588

 Side 1  free  transition at x/c =  0.9877   76
 Side 2  free  transition at x/c =  0.6076   57

 151   rms: 0.4039E-02   max: -.6070E-01   C at   57  2
       a = -2.500      CL = -0.1905
      Cm = -0.0323     CD =  0.01179   =>   CDf =  0.00591    CDp =  0.00588

 Side 1  free  transition at x/c =  0.9877   76
 Side 2  free  transition at x/c =  0.6076   57

 152   rms: 0.4039E-02   max: -.6070E-01   C at   57  2
       a = -2.500      CL = -0.1905
      Cm = -0.0323     CD =  0.01179   =>   CDf =  0.00591    CDp =  0.00588

 Side 1  free  transition at x/c =  0.9877   76
 Side 2  free  transition at x/c =  0.6076   57

 153   rms: 0.4039E-02   max: -.6070E-01   C at   57  2
       a = -2.500      CL = -0.1905
      Cm = -0.0323     CD =  0.01179   =>   CDf =  0.00591    CDp =  0.00588

 Side 1  free  transition at x/c =  0.9877   76
 Side 2  free  transition at x/c =  0.6076   57

 154   rms: 0.4039E-02   max: -.6071E-01   C at   57  2
       a = -2.500      CL = -0.1905
      Cm = -0.0323     CD =  0.01179   =>   CDf =  0.00591    CDp =  0.00588

 Side 1  free  transition at x/c =  0.9877   76
 Side 2  free  transition at x/c =  0.6076   57

 155   rms: 0.4039E-02   max: -.6071E-01   C at   57  2
       a = -2.500      CL = -0.1905
      Cm = -0.0323     CD =  0.01179   =>   CDf =  0.00591    CDp =  0.00588
 VISCAL:  Convergence failed
 Calculating wake trajectory ...
 Calculating source influence matrix ...

 Solving BL system ...

 Side 1  free  transition at x/c =  0.9877   76
 Side 2  free  transition at x/c =  0.6076   57

   1   rms: 0.1276E+00   max: -.5348E+00   T at   57  2   RLX: 0.935
       a = -2.000      CL = -0.1143
      Cm = -0.0379     CD =  0.01200   =>   CDf =  0.00600    CDp =  0.00600

 MRCHDU: Convergence failed at  69  side 2    Res =  0.6624E+01
 MRCHDU: Convergence failed at  70  side 2    Res =  0.6539E+01
 MRCHDU: Convergence failed at  71  side 2    Res =  0.6293E+01
 MRCHDU: Convergence failed at  72  side 2    Res =  0.5871E+01
 MRCHDU: Convergence failed at  73  side 2    Res =  0.5411E+01
 MRCHDU: Convergence failed at  74  side 2    Res =  0.4328E+01
 MRCHDU: Convergence failed at  75  side 2    Res =  0.4112E+01
 MRCHDU: Convergence failed at  76  side 2    Res =  0.3879E+01
 MRCHDU: Convergence failed at  77  side 2    Res =  0.3698E+01
 MRCHDU: Convergence failed at  78  side 2    Res =  0.3543E+01
 MRCHDU: Convergence failed at  79  side 2    Res =  0.3396E+01
 MRCHDU: Convergence failed at  80  side 2    Res =  0.3306E+01
 MRCHDU: Convergence failed at  81  side 2    Res =  0.3274E+01
 MRCHDU: Convergence failed at  82  side 2    Res =  0.3246E+01
 MRCHDU: Convergence failed at  83  side 2    Res =  0.3219E+01
 MRCHDU: Convergence failed at  84  side 2    Res =  0.3206E+01
 Side 1  free  transition at x/c =  0.9807   76
 Side 2  free  transition at x/c =  0.7876   69

   2   rms: 0.1401E+00   max: 0.1098E+01   D at   56  2   RLX: 0.765
       a = -2.000      CL = -0.1365
      Cm = -0.0295     CD =  0.01107   =>   CDf =  0.00488    CDp =  0.00619

 Side 1  free  transition at x/c =  0.9762   76
 Side 2  free  transition at x/c =  0.7556   66

   3   rms: 0.3699E-01   max: -.3021E+00   C at   66  2
       a = -2.000      CL = -0.1207
      Cm = -0.0351     CD =  0.01130   =>   CDf =  0.00548    CDp =  0.00583

 Side 1  free  transition at x/c =  0.9784   76
 Side 2  free  transition at x/c =  0.7479   66

   4   rms: 0.2559E-01   max: 0.3793E+00   C at   66  2
       a = -2.000      CL = -0.1189
      Cm = -0.0357     CD =  0.01148   =>   CDf =  0.00535    CDp =  0.00612

 Side 1  free  transition at x/c =  0.9783   76
 Side 2  free  transition at x/c =  0.7286   65

   5   rms: 0.2177E-02   max: -.3410E-01   D at   65  2
       a = -2.000      CL = -0.1192
      Cm = -0.0356     CD =  0.01147   =>   CDf =  0.00548    CDp =  0.00600

 Side 1  free  transition at x/c =  0.9783   76
 Side 2  free  transition at x/c =  0.7278   65

   6   rms: 0.5381E-04   max: -.7056E-03   C at   65  2
       a = -2.000      CL = -0.1192
      Cm = -0.0356     CD =  0.01147   =>   CDf =  0.00548    CDp =  0.00599
 plradd ia,ip,cpol            4           0  1.53522808E-02

 Point added to stored polar  1
 Point written to save file  goe599_Re200k.base.pol                          
 Dump file unspecified or not available
 Calculating wake trajectory ...
 Calculating source influence matrix ...

 Solving BL system ...

 Side 1  free  transition at x/c =  0.9783   76
 Side 2  free  transition at x/c =  0.7278   65

   1   rms: 0.1445E+00   max: -.1502E+01   C at   65  2   RLX: 0.333
       a = -1.500      CL = -0.0953
      Cm = -0.0365     CD =  0.01135   =>   CDf =  0.00548    CDp =  0.00587

 Side 1  free  transition at x/c =  0.9756   76
 Side 2  free  transition at x/c =  0.7517   66

   2   rms: 0.8257E-01   max: -.3457E+00   T at   66  2
       a = -1.500      CL = -0.0380
      Cm = -0.0409     CD =  0.01141   =>   CDf =  0.00555    CDp =  0.00585

 Side 1  free  transition at x/c =  0.9716   76
 Side 2  free  transition at x/c =  0.8190   70

   3   rms: 0.3662E-01   max: -.3890E+00   C at   70  2
       a = -1.500      CL = -0.0573
      Cm = -0.0362     CD =  0.01123   =>   CDf =  0.00533    CDp =  0.00590

 Side 1  free  transition at x/c =  0.9646   76
 Side 2  free  transition at x/c =  0.8299   70

   4   rms: 0.1642E-01   max: -.8708E-01   D at   79  1
       a = -1.500      CL = -0.0524
      Cm = -0.0373     CD =  0.01124   =>   CDf =  0.00520    CDp =  0.00604

 Side 1  free  transition at x/c =  0.9669   76
 Side 2  free  transition at x/c =  0.8317   71

   5   rms: 0.4700E-02   max: -.6225E-01   C at   71  2
       a = -1.500      CL = -0.0519
      Cm = -0.0374     CD =  0.01125   =>   CDf =  0.00521    CDp =  0.00604

 Side 1  free  transition at x/c =  0.9672   76
 Side 2  free  transition at x/c =  0.8322   71

   6   rms: 0.8088E-04   max: 0.9756E-03   C at   71  2
       a = -1.500      CL = -0.0520
      Cm = -0.0374     CD =  0.01126   =>   CDf =  0.00520    CDp =  0.00606
 plradd ia,ip,cpol            5           0  1.53522808E-02

 Point added to stored polar  1
 Point written to save file  goe599_Re200k.base.pol                          
 Dump file unspecified or not available
 Calculating wake trajectory ...
 Calculating source influence matrix ...

 Solving BL system ...

 Side 1  free  transition at x/c =  0.9672   76
 Side 2  free  transition at x/c =  0.8321   71

   1   rms: 0.1358E+00   max: -.1403E+01   C at   71  2   RLX: 0.356
       a = -1.000      CL = -0.0274
      Cm = -0.0379     CD =  0.01115   =>   CDf =  0.00520    CDp =  0.00596

 Side 1  free  transition at x/c =  0.9636   76
 Side 2  free  transition at x/c =  0.8588   72

   2   rms: 0.7761E-01   max: -.2655E+00   T at   72  2
       a = -1.000      CL =  0.0293
      Cm = -0.0423     CD =  0.01112   =>   CDf =  0.00526    CDp =  0.00587

 MRCHDU: Convergence failed at  78  side 2    Res =  0.1526E+01
 MRCHDU: Convergence failed at  79  side 2    Res =  0.1163E+01
 MRCHDU: Convergence failed at  80  side 2    Res =  0.1419E+01
 MRCHDU: Convergence failed at  81  side 2    Res =  0.1660E+01
 MRCHDU: Convergence failed at  82  side 2    Res =  0.1882E+01
 Side 1  free  transition at x/c =  0.9564   76
 Side 2  free  transition at x/c =  0.9559   78

   3   rms: 0.3568E-01   max: -.2457E+00   D at   82  2
       a = -1.000      CL =  0.0232
      Cm = -0.0402     CD =  0.01112   =>   CDf =  0.00509    CDp =  0.00603

 Side 1  free  transition at x/c =  0.9543   76
 Side 2  free  transition at x/c =  0.9349   77

   4   rms: 0.4420E-02   max: -.2649E-01   D at   77  2
       a = -1.000      CL =  0.0252
      Cm = -0.0407     CD =  0.01112   =>   CDf =  0.00510    CDp =  0.00602

 Side 1  free  transition at x/c =  0.9549   76
 Side 2  free  transition at x/c =  0.9353   77

   5   rms: 0.1114E-03   max: 0.1065E-02   C at   77  2
       a = -1.000      CL =  0.0253
      Cm = -0.0407     CD =  0.01112   =>   CDf =  0.00510    CDp =  0.00602

 Side 1  free  transition at x/c =  0.9550   76
 Side 2  free  transition at x/c =  0.9353   77

   6   rms: 0.1693E-05   max: 0.1599E-04   D at    4  1
       a = -1.000      CL =  0.0253
      Cm = -0.0407     CD =  0.01112   =>   CDf =  0.00510    CDp =  0.00602
 plradd ia,ip,cpol            6           0  6.71567917E-02

 Point added to stored polar  1
 Point written to save file  goe599_Re200k.base.pol                          
 Dump file unspecified or not available
 Calculating wake trajectory ...
 Calculating source influence matrix ...

 Solving BL system ...

 Side 1  free  transition at x/c =  0.9550   76
 Side 2  free  transition at x/c =  0.9353   77

   1   rms: 0.1476E+00   max: -.8390E+00   C at   77  2   RLX: 0.596
       a = -0.500      CL =  0.0931
      Cm = -0.0473     CD =  0.01097   =>   CDf =  0.00510    CDp =  0.00586

 Side 1  free  transition at x/c =  0.9500   75
 Side 2  free  transition at x/c =  0.9722   79

   2   rms: 0.4702E-01   max: -.1949E+00   T at   79  2
       a = -0.500      CL =  0.1196
      Cm = -0.0483     CD =  0.01098   =>   CDf =  0.00522    CDp =  0.00576

 Side 1  free  transition at x/c =  0.9395   76
 Side 2 forced transition at x/c =  1.0000   81

   3   rms: 0.3193E-01   max: 0.2015E+00   C at   81  2
       a = -0.500      CL =  0.1425
      Cm = -0.0533     CD =  0.01093   =>   CDf =  0.00519    CDp =  0.00574

 Side 1  free  transition at x/c =  0.9457   76
 Side 2  free  transition at x/c =  0.9936   80

   4   rms: 0.1644E-01   max: -.8220E-01   D at   81  1
       a = -0.500      CL =  0.1457
      Cm = -0.0538     CD =  0.01089   =>   CDf =  0.00519    CDp =  0.00570

 Side 1  free  transition at x/c =  0.9491   76
 Side 2  free  transition at x/c =  0.9948   81

   5   rms: 0.6879E-02   max: -.4782E-01   T at   76  1
       a = -0.500      CL =  0.1498
      Cm = -0.0546     CD =  0.01087   =>   CDf =  0.00519    CDp =  0.00568

 Side 1  free  transition at x/c =  0.9516   77
 Side 2  free  transition at x/c =  0.9929   80

   6   rms: 0.1248E-01   max: 0.7451E-01   D at   81  1
       a = -0.500      CL =  0.1481
      Cm = -0.0543     CD =  0.01087   =>   CDf =  0.00520    CDp =  0.00568

 Side 1  free  transition at x/c =  0.9502   77
 Side 2  free  transition at x/c =  0.9935   80

   7   rms: 0.3691E-03   max: -.3287E-02   D at   77  1
       a = -0.500      CL =  0.1480
      Cm = -0.0543     CD =  0.01088   =>   CDf =  0.00519    CDp =  0.00568

 Side 1  free  transition at x/c =  0.9502   77
 Side 2  free  transition at x/c =  0.9934   80

   8   rms: 0.3623E-05   max: -.2262E-04   T at   80  2
       a = -0.500      CL =  0.1480
      Cm = -0.0543     CD =  0.01088   =>   CDf =  0.00519    CDp =  0.00568
 plradd ia,ip,cpol            7           0  0.23398574    

 Point added to stored polar  1
 Point written to save file  goe599_Re200k.base.pol                          
 Dump file unspecified or not available
 Calculating wake trajectory ...
 Calculating source influence matrix ...

 Solving BL system ...

 Side 1  free  transition at x/c =  0.9502   77
 Side 2  free  transition at x/c =  0.9934   80

   1   rms: 0.1386E+00   max: 0.4394E+00   C at   80  2
       a =  0.000      CL =  0.2690
      Cm = -0.0682     CD =  0.01068   =>   CDf =  0.00525    CDp =  0.00543

 Side 1  free  transition at x/c =  0.9510   78
 Side 2 forced transition at x/c =  1.0000   80

   2   rms: 0.3420E-01   max: -.2574E+00   C at   80  2
       a =  0.000      CL =  0.2484
      Cm = -0.0640     CD =  0.01051   =>   CDf =  0.00525    CDp =  0.00527

 Side 1  free  transition at x/c =  0.9454   77
 Side 2 forced transition at x/c =  1.0000   80

   3   rms: 0.5887E-01   max: 0.3410E+00   T at   77  1
       a =  0.000      CL =  0.2063
      Cm = -0.0556     CD =  0.01082   =>   CDf =  0.00527    CDp =  0.00555

 Side 1  free  transition at x/c =  0.9263   76
 Side 2 forced transition at x/c =  1.0000   80

   4   rms: 0.6001E-01   max: 0.3175E+00   C at   80  2
       a =  0.000      CL =  0.2457
      Cm = -0.0634     CD =  0.01045   =>   CDf =  0.00529    CDp =  0.00516

 Side 1  free  transition at x/c =  0.9452   77
 Side 2 forced transition at x/c =  1.0000   80

   5   rms: 0.4217E-01   max: 0.2266E+00   D at   80  1
       a =  0.000      CL =  0.2275
      Cm = -0.0598     CD =  0.01059   =>   CDf =  0.00527    CDp =  0.00532

 Side 1  free  transition at x/c =  0.9355   76
 Side 2 forced transition at x/c =  1.0000   80
 idif Ue xi dudx           1  0.25122243      1.49905682E-03   167.58701    
 Uenew xinew           2  3.37027647E-02  2.01106071E-04

   6   rms: 0.1832E+00   max: 0.1184E+01   T at   76  1   RLX: 0.486
       a =  0.000      CL =  0.1560
      Cm = -0.0455     CD =  0.01116   =>   CDf =  0.00529    CDp =  0.00588

 Side 1  free  transition at x/c =  0.9083   74
 Side 2 forced transition at x/c =  1.0000   81

   7   rms: 0.1105E+00   max: 0.6251E+00   C at   81  2   RLX: 0.983
       a =  0.000      CL =  0.2209
      Cm = -0.0584     CD =  0.01043   =>   CDf =  0.00538    CDp =  0.00505

 Side 1  free  transition at x/c =  0.9368   77
 Side 2 forced transition at x/c =  1.0000   80

   8   rms: 0.2618E-01   max: 0.2760E+00   C at   80  2
       a =  0.000      CL =  0.2303
      Cm = -0.0603     CD =  0.01055   =>   CDf =  0.00531    CDp =  0.00524

 Side 1  free  transition at x/c =  0.9372   77
 Side 2 forced transition at x/c =  1.0000   80

   9   rms: 0.2926E-02   max: 0.3003E-01   C at   80  2
       a =  0.000      CL =  0.2311
      Cm = -0.0604     CD =  0.01059   =>   CDf =  0.00527    CDp =  0.00532

 Side 1  free  transition at x/c =  0.9373   77
 Side 2 forced transition at x/c =  1.0000   80

  10   rms: 0.9114E-04   max: 0.8227E-03   C at   80  2
       a =  0.000      CL =  0.2311
      Cm = -0.0604     CD =  0.01060   =>   CDf =  0.00527    CDp =  0.00533
 plradd ia,ip,cpol            8           0  0.23398574    

 Point added to stored polar  1
 Point written to save file  goe599_Re200k.base.pol                          
 Dump file unspecified or not available
 Calculating wake trajectory ...
 Calculating source influence matrix ...

 Solving BL system ...

 Side 1  free  transition at x/c =  0.9373   77
 Side 2 forced transition at x/c =  1.0000   80

   1   rms: 0.1115E+00   max: -.1291E+00   n at   75  2
       a =  0.500      CL =  0.3184
      Cm = -0.0671     CD =  0.01021   =>   CDf =  0.00530    CDp =  0.00491

 Side 1  free  transition at x/c =  0.9235   77
 Side 2 forced transition at x/c =  1.0000   79

   2   rms: 0.2144E-01   max: -.1403E+00   D at   77  1
       a =  0.500      CL =  0.2995
      Cm = -0.0631     CD =  0.01028   =>   CDf =  0.00530    CDp =  0.00498

 Side 1  free  transition at x/c =  0.9197   76
 Side 2 forced transition at x/c =  1.0000   79

   3   rms: 0.1473E-01   max: -.7630E-01   D at   79  1
       a =  0.500      CL =  0.3085
      Cm = -0.0648     CD =  0.01013   =>   CDf =  0.00530    CDp =  0.00483

 Side 1  free  transition at x/c =  0.9244   77
 Side 2 forced transition at x/c =  1.0000   79

   4   rms: 0.1887E-01   max: 0.1106E+00   D at   78  1
       a =  0.500      CL =  0.3029
      Cm = -0.0637     CD =  0.01020   =>   CDf =  0.00530    CDp =  0.00490

 Side 1  free  transition at x/c =  0.9215   77
 Side 2 forced transition at x/c =  1.0000   79

   5   rms: 0.4930E-03   max: -.5723E-02   D at   77  1
       a =  0.500      CL =  0.3028
      Cm = -0.0637     CD =  0.01021   =>   CDf =  0.00530    CDp =  0.00491

 Side 1  free  transition at x/c =  0.9214   77
 Side 2 forced transition at x/c =  1.0000   79

   6   rms: 0.5544E-05   max: -.5078E-04   C at   79  2
       a =  0.500      CL =  0.3028
      Cm = -0.0637     CD =  0.01021   =>   CDf =  0.00530    CDp =  0.00491
 plradd ia,ip,cpol            9           0  2.44925059E-02

 Point added to stored polar  1
 Point written to save file  goe599_Re200k.base.pol                          
 Dump file unspecified or not available
 Calculating wake trajectory ...
 Calculating source influence matrix ...

 Solving BL system ...

 Side 1  free  transition at x/c =  0.9214   77
 Side 2 forced transition at x/c =  1.0000   79

   1   rms: 0.1242E+00   max: 0.1583E+00   C at   79  2
       a =  1.000      CL =  0.3947
      Cm = -0.0701     CD =  0.00935   =>   CDf =  0.00530    CDp =  0.00404

 Side 1  free  transition at x/c =  0.8885   75
 Side 2 forced transition at x/c =  1.0000   78
 idif Ue xi dudx           1  0.20506811      1.57427788E-03   130.26170    
 Uenew xinew           2  1.44724734E-02  1.11103058E-04

   2   rms: 0.3397E-01   max: -.2891E+00   D at   77  1
       a =  1.000      CL =  0.3644
      Cm = -0.0636     CD =  0.00954   =>   CDf =  0.00536    CDp =  0.00418

 Side 1  free  transition at x/c =  0.8891   74
 Side 2 forced transition at x/c =  1.0000   79

   3   rms: 0.3870E-02   max: -.3276E-01   D at    2  2
       a =  1.000      CL =  0.3635
      Cm = -0.0634     CD =  0.00952   =>   CDf =  0.00535    CDp =  0.00417

 Side 1  free  transition at x/c =  0.8884   74
 Side 2 forced transition at x/c =  1.0000   79

   4   rms: 0.9025E-03   max: 0.1054E-01   D at    4  2
       a =  1.000      CL =  0.3635
      Cm = -0.0634     CD =  0.00952   =>   CDf =  0.00535    CDp =  0.00417

 Side 1  free  transition at x/c =  0.8884   74
 Side 2 forced transition at x/c =  1.0000   79

   5   rms: 0.3038E-05   max: -.3621E-04   D at    4  2
       a =  1.000      CL =  0.3635
      Cm = -0.0634     CD =  0.00952   =>   CDf =  0.00535    CDp =  0.00417
 plradd ia,ip,cpol           10           0  2.44925059E-02

 Point added to stored polar  1
 Point written to save file  goe599_Re200k.base.pol                          
 Dump file unspecified or not available
 Calculating wake trajectory ...
 Calculating source influence matrix ...

 Solving BL system ...

 Side 1  free  transition at x/c =  0.8884   74
 Side 2 forced transition at x/c =  1.0000   79

   1   rms: 0.9259E-01   max: -.1733E+00   C at   79  2
       a =  1.500      CL =  0.4046
      Cm = -0.0596     CD =  0.00921   =>   CDf =  0.00533    CDp =  0.00388

 Side 1  free  transition at x/c =  0.8453   72
 Side 2 forced transition at x/c =  1.0000   78

   2   rms: 0.4108E-01   max: -.4121E+00   D at   74  1
       a =  1.500      CL =  0.4234
      Cm = -0.0630     CD =  0.00901   =>   CDf =  0.00547    CDp =  0.00355

 Side 1  free  transition at x/c =  0.8560   73
 Side 2 forced transition at x/c =  1.0000   78

   3   rms: 0.1068E-01   max: 0.8585E-01   D at   74  1
       a =  1.500      CL =  0.4214
      Cm = -0.0628     CD =  0.00910   =>   CDf =  0.00539    CDp =  0.00371

 Side 1  free  transition at x/c =  0.8526   73
 Side 2 forced transition at x/c =  1.0000   78

   4   rms: 0.2278E-02   max: 0.1390E-01   C at   73  1
       a =  1.500      CL =  0.4200
      Cm = -0.0625     CD =  0.00912   =>   CDf =  0.00541    CDp =  0.00371

 Side 1  free  transition at x/c =  0.8521   73
 Side 2 forced transition at x/c =  1.0000   78

   5   rms: 0.4596E-04   max: -.3643E-03   C at   78  2
       a =  1.500      CL =  0.4199
      Cm = -0.0625     CD =  0.00912   =>   CDf =  0.00542    CDp =  0.00370
 plradd ia,ip,cpol           11           0  2.44925059E-02

 Point added to stored polar  1
 Point written to save file  goe599_Re200k.base.pol                          
 Dump file unspecified or not available
 Calculating wake trajectory ...
 Calculating source influence matrix ...

 Solving BL system ...

 Side 1  free  transition at x/c =  0.8521   73
 Side 2 forced transition at x/c =  1.0000   78

   1   rms: 0.1047E+00   max: -.1133E+00   C at   84  2
       a =  2.000      CL =  0.4830
      Cm = -0.0628     CD =  0.00879   =>   CDf =  0.00539    CDp =  0.00341

 Side 1  free  transition at x/c =  0.8238   72
 Side 2 forced transition at x/c =  1.0000   77

   2   rms: 0.2449E-01   max: -.1973E+00   D at   76  1
       a =  2.000      CL =  0.4731
      Cm = -0.0612     CD =  0.00904   =>   CDf =  0.00539    CDp =  0.00365

 Side 1  free  transition at x/c =  0.8172   71
 Side 2 forced transition at x/c =  1.0000   77

   3   rms: 0.3100E-02   max: -.2925E-01   D at   71  1
       a =  2.000      CL =  0.4718
      Cm = -0.0610     CD =  0.00910   =>   CDf =  0.00550    CDp =  0.00361

 Side 1  free  transition at x/c =  0.8159   71
 Side 2 forced transition at x/c =  1.0000   77

   4   rms: 0.2814E-03   max: -.2435E-02   C at   71  1
       a =  2.000      CL =  0.4719
      Cm = -0.0610     CD =  0.00910   =>   CDf =  0.00549    CDp =  0.00361

 Side 1  free  transition at x/c =  0.8160   71
 Side 2 forced transition at x/c =  1.0000   77

   5   rms: 0.1497E-05   max: -.7689E-05   D at   84  1
       a =  2.000      CL =  0.4719
      Cm = -0.0610     CD =  0.00910   =>   CDf =  0.00549    CDp =  0.00361
 plradd ia,ip,cpol           12           0  2.44925059E-02

 Point added to stored polar  1
 Point written to save file  goe599_Re200k.base.pol                          
 Dump file unspecified or not available
 Calculating wake trajectory ...
 Calculating source influence matrix ...

 Solving BL system ...

 Side 1  free  transition at x/c =  0.8160   71
 Side 2 forced transition at x/c =  1.0000   77

   1   rms: 0.8683E-01   max: -.1412E+00   C at   77  2
       a =  2.500      CL =  0.5201
      Cm = -0.0590     CD =  0.00921   =>   CDf =  0.00549    CDp =  0.00372

 Side 1  free  transition at x/c =  0.7554   67
 Side 2 forced transition at x/c =  1.0000   77

   2   rms: 0.3068E-01   max: -.4297E+00   D at   69  1
       a =  2.500      CL =  0.5186
      Cm = -0.0584     CD =  0.00937   =>   CDf =  0.00577    CDp =  0.00361

 Side 1  free  transition at x/c =  0.7661   68
 Side 2 forced transition at x/c =  1.0000   77

   3   rms: 0.5064E-02   max: 0.4483E-01   D at   71  1
       a =  2.500      CL =  0.5206
      Cm = -0.0587     CD =  0.00921   =>   CDf =  0.00563    CDp =  0.00358

 Side 1  free  transition at x/c =  0.7647   68
 Side 2 forced transition at x/c =  1.0000   77

   4   rms: 0.2502E-03   max: 0.2539E-02   C at   68  1
       a =  2.500      CL =  0.5205
      Cm = -0.0587     CD =  0.00921   =>   CDf =  0.00563    CDp =  0.00358

 Side 1  free  transition at x/c =  0.7646   68
 Side 2 forced transition at x/c =  1.0000   77

   5   rms: 0.2317E-05   max: -.1773E-04   D at    4  2
       a =  2.500      CL =  0.5205
      Cm = -0.0587     CD =  0.00921   =>   CDf =  0.00563    CDp =  0.00358
 plradd ia,ip,cpol           13           0  2.44925059E-02

 Point added to stored polar  1
 Point written to save file  goe599_Re200k.base.pol                          
 Dump file unspecified or not available
 Calculating wake trajectory ...
 Calculating source influence matrix ...

 Solving BL system ...

 Side 1  free  transition at x/c =  0.7646   68
 Side 2 forced transition at x/c =  1.0000   77

   1   rms: 0.1075E+00   max: 0.5230E+00   C at   68  1   RLX: 0.990
       a =  3.000      CL =  0.5707
      Cm = -0.0566     CD =  0.00938   =>   CDf =  0.00556    CDp =  0.00383

 Side 1  free  transition at x/c =  0.6997   64
 Side 2 forced transition at x/c =  1.0000   76

   2   rms: 0.3135E-01   max: 0.3496E+00   D at   68  1
       a =  3.000      CL =  0.5665
      Cm = -0.0560     CD =  0.00935   =>   CDf =  0.00574    CDp =  0.00361

 Side 1  free  transition at x/c =  0.6972   64
 Side 2 forced transition at x/c =  1.0000   76

   3   rms: 0.4232E-02   max: -.5641E-01   D at   68  1
       a =  3.000      CL =  0.5667
[...]
 MRCHDU: Convergence failed at  86  side 1    Res =  0.2452E-04
 MRCHDU: Convergence failed at  87  side 1    Res =  0.6211E-05
 Side 1  free  transition at x/c =  0.0485   22
 Side 2 forced transition at x/c =  1.0000   73

 116   rms: 0.1412E+05   max: 0.2732E+06   T at   95  2   RLX: 0.000
       a = 13.750      CL =  0.7551
      Cm = -0.1187     CD =+Infinity   =>   CDf =  0.00373    CDp =+Infinity

 MRCHDU: Convergence failed at  82  side 1    Res =  0.9422E-02
 MRCHDU: Convergence failed at  83  side 1    Res =  0.1532E+00
 MRCHDU: Convergence failed at  84  side 1    Res =  0.1243E+00
 MRCHDU: Convergence failed at  85  side 1    Res =  0.7178E-04
 MRCHDU: Convergence failed at  86  side 1    Res =  0.2356E-04
 MRCHDU: Convergence failed at  87  side 1    Res =  0.5954E-05
 Side 1  free  transition at x/c =  0.0485   22
 Side 2 forced transition at x/c =  1.0000   73

 117   rms: 0.2554E+05   max: 0.5603E+06   T at   95  2   RLX: 0.000
       a = 13.750      CL =  0.7553
      Cm = -0.1187     CD =*********   =>   CDf =  0.00373    CDp =*********

 MRCHDU: Convergence failed at  82  side 1    Res =  0.9318E-02
 MRCHDU: Convergence failed at  83  side 1    Res =  0.1530E+00
 MRCHDU: Convergence failed at  84  side 1    Res =  0.1206E+00
 MRCHDU: Convergence failed at  85  side 1    Res =  0.6918E-04
 MRCHDU: Convergence failed at  86  side 1    Res =  0.2250E-04
 MRCHDU: Convergence failed at  87  side 1    Res =  0.5665E-05
 Side 1  free  transition at x/c =  0.0485   22
 Side 2 forced transition at x/c =  1.0000   73

 118   rms: 0.1768E+05   max: -.3871E+06   T at   95  2   RLX: 0.000
       a = 13.750      CL =  0.7553
      Cm = -0.1187     CD =+Infinity   =>   CDf =  0.00373    CDp =+Infinity

 MRCHDU: Convergence failed at  82  side 1    Res =  0.9346E-02
 MRCHDU: Convergence failed at  83  side 1    Res =  0.1473E+00
 MRCHDU: Convergence failed at  84  side 1    Res =  0.1493E+00
 MRCHDU: Convergence failed at  85  side 1    Res =  0.6976E-04
 MRCHDU: Convergence failed at  86  side 1    Res =  0.2274E-04
 MRCHDU: Convergence failed at  87  side 1    Res =  0.5731E-05
 Side 1  free  transition at x/c =  0.0485   22
 Side 2 forced transition at x/c =  1.0000   73

 119   rms: 0.7122E+05   max: -.1637E+07   T at   83  2   RLX: 0.000
       a = 13.750      CL =  0.7552
      Cm = -0.1187     CD =+Infinity   =>   CDf =  0.00373    CDp =+Infinity

 MRCHDU: Convergence failed at  82  side 1    Res =  0.9371E-02
 MRCHDU: Convergence failed at  83  side 1    Res =  0.1476E+00
 MRCHDU: Convergence failed at  84  side 1    Res =  0.1489E+00
 MRCHDU: Convergence failed at  85  side 1    Res =  0.7031E-04
 MRCHDU: Convergence failed at  86  side 1    Res =  0.2297E-04
 MRCHDU: Convergence failed at  87  side 1    Res =  0.5792E-05
 Side 1  free  transition at x/c =  0.0485   22
 Side 2 forced transition at x/c =  1.0000   73

 120   rms: 0.2014E+05   max: 0.5151E+06   T at   83  2   RLX: 0.000
       a = 13.750      CL =  0.7553
      Cm = -0.1187     CD =+Infinity   =>   CDf =  0.00373    CDp =+Infinity

 MRCHDU: Convergence failed at  82  side 1    Res =  0.9321E-02
 MRCHDU: Convergence failed at  83  side 1    Res =  0.1505E+00
 MRCHDU: Convergence failed at  84  side 1    Res =  0.1307E+00
 MRCHDU: Convergence failed at  85  side 1    Res =  0.6904E-04
 MRCHDU: Convergence failed at  86  side 1    Res =  0.2245E-04
 MRCHDU: Convergence failed at  87  side 1    Res =  0.5653E-05
 Side 1  free  transition at x/c =  0.0485   22
 Side 2 forced transition at x/c =  1.0000   73

 121   rms: 0.7416E+04   max: 0.1716E+06   T at   95  2   RLX: 0.000
       a = 13.750      CL =  0.7556
      Cm = -0.1187     CD =*********   =>   CDf =  0.00373    CDp =*********

 MRCHDU: Convergence failed at  82  side 1    Res =  0.9220E-02
 MRCHDU: Convergence failed at  83  side 1    Res =  0.1523E+00
 MRCHDU: Convergence failed at  84  side 1    Res =  0.1180E+00
 MRCHDU: Convergence failed at  85  side 1    Res =  0.6638E-04
 MRCHDU: Convergence failed at  86  side 1    Res =  0.2134E-04
 MRCHDU: Convergence failed at  87  side 1    Res =  0.5339E-05
 Side 1  free  transition at x/c =  0.0485   22
 Side 2 forced transition at x/c =  1.0000   73

 122   rms: 0.2025E+05   max: 0.5358E+06   T at   83  2   RLX: 0.000
       a = 13.750      CL =  0.7556
      Cm = -0.1187     CD =*********   =>   CDf =  0.00373    CDp =*********

 MRCHDU: Convergence failed at  82  side 1    Res =  0.9226E-02
 MRCHDU: Convergence failed at  83  side 1    Res =  0.1470E+00
 MRCHDU: Convergence failed at  84  side 1    Res =  0.1418E+00
 MRCHDU: Convergence failed at  85  side 1    Res =  0.6641E-04
 MRCHDU: Convergence failed at  86  side 1    Res =  0.2135E-04
 MRCHDU: Convergence failed at  87  side 1    Res =  0.5338E-05
 Side 1  free  transition at x/c =  0.0485   22
 Side 2 forced transition at x/c =  1.0000   73

 123   rms: 0.6431E+05   max: -.1204E+07   T at   95  2   RLX: 0.000
       a = 13.750      CL =  0.7555
      Cm = -0.1187     CD =+Infinity   =>   CDf =  0.00373    CDp =+Infinity

 MRCHDU: Convergence failed at  82  side 1    Res =  0.9252E-02
 MRCHDU: Convergence failed at  83  side 1    Res =  0.1463E+00
 MRCHDU: Convergence failed at  84  side 1    Res =  0.1473E+00
 MRCHDU: Convergence failed at  85  side 1    Res =  0.6688E-04
 MRCHDU: Convergence failed at  86  side 1    Res =  0.2154E-04
 MRCHDU: Convergence failed at  87  side 1    Res =  0.5392E-05
 Side 1  free  transition at x/c =  0.0485   22
 Side 2 forced transition at x/c =  1.0000   73

 124   rms: 0.1075E+05   max: -.1987E+06   T at   95  2   RLX: 0.000
       a = 13.750      CL =  0.7554
      Cm = -0.1187     CD =+Infinity   =>   CDf =  0.00373    CDp =+Infinity

 MRCHDU: Convergence failed at  82  side 1    Res =  0.9308E-02
 MRCHDU: Convergence failed at  83  side 1    Res =  0.1454E+00
 MRCHDU: Convergence failed at  84  side 1    Res =  0.1564E+00
 MRCHDU: Convergence failed at  85  side 1    Res =  0.6805E-04
 MRCHDU: Convergence failed at  86  side 1    Res =  0.2203E-04
 MRCHDU: Convergence failed at  87  side 1    Res =  0.5526E-05
 Side 1  free  transition at x/c =  0.0485   22
 Side 2 forced transition at x/c =  1.0000   73

 125   rms: 0.3961E+05   max: -.8465E+06   T at   83  2   RLX: 0.000
       a = 13.750      CL =  0.7555
      Cm = -0.1187     CD =+Infinity   =>   CDf =  0.00373    CDp =+Infinity

 MRCHDU: Convergence failed at  82  side 1    Res =  0.9267E-02
 MRCHDU: Convergence failed at  83  side 1    Res =  0.1492E+00
 MRCHDU: Convergence failed at  84  side 1    Res =  0.1322E+00
 MRCHDU: Convergence failed at  85  side 1    Res =  0.6709E-04
 MRCHDU: Convergence failed at  86  side 1    Res =  0.2164E-04
 MRCHDU: Convergence failed at  87  side 1    Res =  0.5417E-05
 Side 1  free  transition at x/c =  0.0485   22
 Side 2 forced transition at x/c =  1.0000   73

 126   rms: 0.4442E+05   max: -.1110E+07   T at   83  2   RLX: 0.000
       a = 13.750      CL =  0.7555
      Cm = -0.1187     CD =+Infinity   =>   CDf =  0.00373    CDp =+Infinity

 MRCHDU: Convergence failed at  82  side 1    Res =  0.9247E-02
 MRCHDU: Convergence failed at  83  side 1    Res =  0.1480E+00
 MRCHDU: Convergence failed at  84  side 1    Res =  0.1371E+00
 MRCHDU: Convergence failed at  85  side 1    Res =  0.6667E-04
 MRCHDU: Convergence failed at  86  side 1    Res =  0.2146E-04
 MRCHDU: Convergence failed at  87  side 1    Res =  0.5369E-05
 Side 1  free  transition at x/c =  0.0485   22
 Side 2 forced transition at x/c =  1.0000   73

 127   rms: 0.6430E+05   max: -.1333E+07   T at   95  2   RLX: 0.000
       a = 13.750      CL =  0.7554
      Cm = -0.1187     CD =+Infinity   =>   CDf =  0.00373    CDp =+Infinity

 MRCHDU: Convergence failed at  82  side 1    Res =  0.9301E-02
 MRCHDU: Convergence failed at  83  side 1    Res =  0.1454E+00
 MRCHDU: Convergence failed at  84  side 1    Res =  0.1554E+00
 MRCHDU: Convergence failed at  85  side 1    Res =  0.6777E-04
 MRCHDU: Convergence failed at  86  side 1    Res =  0.2192E-04
 MRCHDU: Convergence failed at  87  side 1    Res =  0.5493E-05
 Side 1  free  transition at x/c =  0.0485   22
 Side 2 forced transition at x/c =  1.0000   73

 128   rms: 0.7428E+06   max: -.1568E+08   T at   83  2   RLX: 0.000
       a = 13.750      CL =  0.7555
      Cm = -0.1187     CD =+Infinity   =>   CDf =  0.00373    CDp =+Infinity

 MRCHDU: Convergence failed at  82  side 1    Res =  0.9251E-02
 MRCHDU: Convergence failed at  83  side 1    Res =  0.1493E+00
 MRCHDU: Convergence failed at  84  side 1    Res =  0.1308E+00
 MRCHDU: Convergence failed at  85  side 1    Res =  0.6669E-04
 MRCHDU: Convergence failed at  86  side 1    Res =  0.2147E-04
 MRCHDU: Convergence failed at  87  side 1    Res =  0.5370E-05
 Side 1  free  transition at x/c =  0.0485   22
 Side 2 forced transition at x/c =  1.0000   73

 129   rms: 0.3739E+05   max: 0.9463E+06   T at   83  2   RLX: 0.000
       a = 13.750      CL =  0.7556
      Cm = -0.1187     CD =+Infinity   =>   CDf =  0.00373    CDp =+Infinity

 MRCHDU: Convergence failed at  82  side 1    Res =  0.9185E-02
 MRCHDU: Convergence failed at  83  side 1    Res =  0.1496E+00
 MRCHDU: Convergence failed at  84  side 1    Res =  0.1264E+00
 MRCHDU: Convergence failed at  85  side 1    Res =  0.6523E-04
 MRCHDU: Convergence failed at  86  side 1    Res =  0.2087E-04
 MRCHDU: Convergence failed at  87  side 1    Res =  0.5208E-05
 Side 1  free  transition at x/c =  0.0485   22
 Side 2 forced transition at x/c =  1.0000   73

 130   rms: 0.7969E+05   max: -.1837E+07   T at   83  2   RLX: 0.000
       a = 13.750      CL =  0.7557
      Cm = -0.1188     CD =+Infinity   =>   CDf =  0.00373    CDp =+Infinity

 MRCHDU: Convergence failed at  82  side 1    Res =  0.9157E-02
 MRCHDU: Convergence failed at  83  side 1    Res =  0.1476E+00
 MRCHDU: Convergence failed at  84  side 1    Res =  0.1346E+00
 MRCHDU: Convergence failed at  85  side 1    Res =  0.6466E-04
 MRCHDU: Convergence failed at  86  side 1    Res =  0.2064E-04
 MRCHDU: Convergence failed at  87  side 1    Res =  0.5144E-05
 Side 1  free  transition at x/c =  0.0485   22
 Side 2 forced transition at x/c =  1.0000   73

 131   rms: 0.7156E+05   max: 0.1902E+07   T at   83  2   RLX: 0.000
       a = 13.750      CL =  0.7556
      Cm = -0.1187     CD =+Infinity   =>   CDf =  0.00373    CDp =+Infinity

 MRCHDU: Convergence failed at  82  side 1    Res =  0.9174E-02
 MRCHDU: Convergence failed at  83  side 1    Res =  0.1457E+00
 MRCHDU: Convergence failed at  84  side 1    Res =  0.1457E+00
 MRCHDU: Convergence failed at  85  side 1    Res =  0.6504E-04
 MRCHDU: Convergence failed at  86  side 1    Res =  0.2079E-04
 MRCHDU: Convergence failed at  87  side 1    Res =  0.5184E-05
 Side 1  free  transition at x/c =  0.0485   22
 Side 2 forced transition at x/c =  1.0000   73

 132   rms: 0.4729E+04   max: 0.1130E+06   T at   95  2   RLX: 0.000
       a = 13.750      CL =  0.7560
      Cm = -0.1188     CD =*********   =>   CDf =  0.00373    CDp =*********

 MRCHDU: Convergence failed at  82  side 1    Res =  0.9043E-02
 MRCHDU: Convergence failed at  83  side 1    Res =  0.1516E+00
 MRCHDU: Convergence failed at  84  side 1    Res =  0.1127E+00
 MRCHDU: Convergence failed at  85  side 1    Res =  0.6217E-04
 MRCHDU: Convergence failed at  86  side 1    Res =  0.1961E-04
 Side 1  free  transition at x/c =  0.0485   22
 Side 2 forced transition at x/c =  1.0000   73

 133   rms: 0.3802E+05   max: 0.1014E+07   T at   83  2   RLX: 0.000
       a = 13.750      CL =  0.7560
      Cm = -0.1188     CD =*********   =>   CDf =  0.00373    CDp =*********

 MRCHDU: Convergence failed at  82  side 1    Res =  0.9050E-02
 MRCHDU: Convergence failed at  83  side 1    Res =  0.1452E+00
 MRCHDU: Convergence failed at  84  side 1    Res =  0.1410E+00
 MRCHDU: Convergence failed at  85  side 1    Res =  0.6224E-04
 MRCHDU: Convergence failed at  86  side 1    Res =  0.1965E-04
 Side 1  free  transition at x/c =  0.0485   22
 Side 2 forced transition at x/c =  1.0000   73

 134   rms: 0.1532E+06   max: 0.3512E+07   T at   83  2   RLX: 0.000
       a = 13.750      CL =  0.7560
      Cm = -0.1188     CD =+Infinity   =>   CDf =  0.00373    CDp =+Infinity

 MRCHDU: Convergence failed at  82  side 1    Res =  0.9078E-02
 MRCHDU: Convergence failed at  83  side 1    Res =  0.1445E+00
 MRCHDU: Convergence failed at  84  side 1    Res =  0.1468E+00
 MRCHDU: Convergence failed at  85  side 1    Res =  0.6274E-04
 MRCHDU: Convergence failed at  86  side 1    Res =  0.1985E-04
 Side 1  free  transition at x/c =  0.0485   22
 Side 2 forced transition at x/c =  1.0000   73

 135   rms: 0.2707E+05   max: 0.6581E+06   T at   95  2   RLX: 0.000
       a = 13.750      CL =  0.7563
      Cm = -0.1188     CD =*********   =>   CDf =  0.00373    CDp =*********

 MRCHDU: Convergence failed at  82  side 1    Res =  0.8931E-02
 MRCHDU: Convergence failed at  83  side 1    Res =  0.1509E+00
 MRCHDU: Convergence failed at  84  side 1    Res =  0.1104E+00
 MRCHDU: Convergence failed at  85  side 1    Res =  0.5988E-04
 MRCHDU: Convergence failed at  86  side 1    Res =  0.1866E-04
 Side 1  free  transition at x/c =  0.0485   22
 Side 2 forced transition at x/c =  1.0000   73

 136   rms: 0.5338E+04   max: 0.9120E+05   T at   95  2   RLX: 0.000
       a = 13.750      CL =  0.7564
      Cm = -0.1188     CD =*********   =>   CDf =  0.00373    CDp =*********

 MRCHDU: Convergence failed at  82  side 1    Res =  0.8752E-02
 MRCHDU: Convergence failed at  83  side 1    Res =  0.1500E+00
 MRCHDU: Convergence failed at  84  side 1    Res =  0.1082E+00
 MRCHDU: Convergence failed at  85  side 1    Res =  0.5711E-04
 MRCHDU: Convergence failed at  86  side 1    Res =  0.1749E-04
 Side 1  free  transition at x/c =  0.0485   22
 Side 2 forced transition at x/c =  1.0000   73

 137   rms: 0.4212E+04   max: -.4540E+05   T at   83  2   RLX: 0.000
       a = 13.750      CL =  0.7563
      Cm = -0.1188     CD =*********   =>   CDf =  0.00373    CDp =*********

 MRCHDU: Convergence failed at  82  side 1    Res =  0.8810E-02
 MRCHDU: Convergence failed at  83  side 1    Res =  0.1418E+00
 MRCHDU: Convergence failed at  84  side 1    Res =  0.1511E+00
 MRCHDU: Convergence failed at  85  side 1    Res =  0.5789E-04
 MRCHDU: Convergence failed at  86  side 1    Res =  0.1783E-04
 Side 1  free  transition at x/c =  0.0485   22
 Side 2 forced transition at x/c =  1.0000   73

 138   rms: 0.2362E+04   max: 0.5897E+05   T at   91  2   RLX: 0.000
       a = 13.750      CL =  0.7564
      Cm = -0.1188     CD =*********   =>   CDf =  0.00373    CDp =*********

 MRCHDU: Convergence failed at  82  side 1    Res =  0.8937E-02
 MRCHDU: Convergence failed at  83  side 1    Res =  0.1410E+00
 MRCHDU: Convergence failed at  84  side 1    Res =  0.1633E+00
 MRCHDU: Convergence failed at  85  side 1    Res =  0.5938E-04
 MRCHDU: Convergence failed at  86  side 1    Res =  0.1842E-04
 Side 1  free  transition at x/c =  0.0485   22
 Side 2 forced transition at x/c =  1.0000   73

 139   rms: 0.5133E+05   max: -.1309E+07   T at   91  2   RLX: 0.000
       a = 13.750      CL =  0.7564
      Cm = -0.1188     CD =*********   =>   CDf =  0.00373    CDp =*********

 MRCHDU: Convergence failed at  82  side 1    Res =  0.8935E-02
 MRCHDU: Convergence failed at  83  side 1    Res =  0.1447E+00
 MRCHDU: Convergence failed at  84  side 1    Res =  0.1384E+00
 MRCHDU: Convergence failed at  85  side 1    Res =  0.5932E-04
 MRCHDU: Convergence failed at  86  side 1    Res =  0.1840E-04
 Side 1  free  transition at x/c =  0.0485   22
 Side 2 forced transition at x/c =  1.0000   73

 140   rms: 0.1651E+05   max: -.4022E+06   T at   91  2   RLX: 0.000
       a = 13.750      CL =  0.7564
      Cm = -0.1188     CD =*********   =>   CDf =  0.00373    CDp =*********

 MRCHDU: Convergence failed at  82  side 1    Res =  0.8940E-02
 MRCHDU: Convergence failed at  83  side 1    Res =  0.1444E+00
 MRCHDU: Convergence failed at  84  side 1    Res =  0.1401E+00
 MRCHDU: Convergence failed at  85  side 1    Res =  0.5939E-04
 MRCHDU: Convergence failed at  86  side 1    Res =  0.1843E-04
 Side 1  free  transition at x/c =  0.0485   22
 Side 2 forced transition at x/c =  1.0000   73

 141   rms: 0.8019E+05   max: -.1464E+07   T at   95  2   RLX: 0.000
       a = 13.750      CL =  0.7564
      Cm = -0.1188     CD =*********   =>   CDf =  0.00373    CDp =*********

 MRCHDU: Convergence failed at  82  side 1    Res =  0.8953E-02
 MRCHDU: Convergence failed at  83  side 1    Res =  0.1442E+00
 MRCHDU: Convergence failed at  84  side 1    Res =  0.1420E+00
 MRCHDU: Convergence failed at  85  side 1    Res =  0.5958E-04
 MRCHDU: Convergence failed at  86  side 1    Res =  0.1851E-04
 Side 1  free  transition at x/c =  0.0485   22
 Side 2 forced transition at x/c =  1.0000   73

 142   rms: 0.8915E+04   max: 0.1916E+06   T at   95  2   RLX: 0.000
       a = 13.750      CL =  0.7565
      Cm = -0.1189     CD =*********   =>   CDf =  0.00373    CDp =*********

 MRCHDU: Convergence failed at  82  side 1    Res =  0.8854E-02
 MRCHDU: Convergence failed at  83  side 1    Res =  0.1482E+00
 MRCHDU: Convergence failed at  84  side 1    Res =  0.1178E+00
 MRCHDU: Convergence failed at  85  side 1    Res =  0.5780E-04
 MRCHDU: Convergence failed at  86  side 1    Res =  0.1776E-04
 Side 1  free  transition at x/c =  0.0485   22
 Side 2 forced transition at x/c =  1.0000   73

 143   rms: 0.2985E+05   max: 0.7581E+06   T at   92  2   RLX: 0.000
       a = 13.750      CL =  0.7565
      Cm = -0.1189     CD =*********   =>   CDf =  0.00373    CDp =*********

 MRCHDU: Convergence failed at  82  side 1    Res =  0.8874E-02
 MRCHDU: Convergence failed at  83  side 1    Res =  0.1433E+00
 MRCHDU: Convergence failed at  84  side 1    Res =  0.1432E+00
 MRCHDU: Convergence failed at  85  side 1    Res =  0.5809E-04
 MRCHDU: Convergence failed at  86  side 1    Res =  0.1789E-04
 Side 1  free  transition at x/c =  0.0485   22
 Side 2 forced transition at x/c =  1.0000   73

 144   rms: 0.5117E+05   max: -.1383E+07   T at   92  2   RLX: 0.000
       a = 13.750      CL =  0.7565
      Cm = -0.1189     CD =*********   =>   CDf =  0.00373    CDp =*********

 MRCHDU: Convergence failed at  82  side 1    Res =  0.8877E-02
 MRCHDU: Convergence failed at  83  side 1    Res =  0.1440E+00
 MRCHDU: Convergence failed at  84  side 1    Res =  0.1390E+00
 MRCHDU: Convergence failed at  85  side 1    Res =  0.5811E-04
 MRCHDU: Convergence failed at  86  side 1    Res =  0.1790E-04
 Side 1  free  transition at x/c =  0.0485   22
 Side 2 forced transition at x/c =  1.0000   73

 145   rms: 0.1836E+06   max: 0.4790E+07   T at   92  2   RLX: 0.000
       a = 13.750      CL =  0.7565
      Cm = -0.1189     CD =*********   =>   CDf =  0.00373    CDp =*********

 MRCHDU: Convergence failed at  82  side 1    Res =  0.8882E-02
 MRCHDU: Convergence failed at  83  side 1    Res =  0.1439E+00
 MRCHDU: Convergence failed at  84  side 1    Res =  0.1402E+00
 MRCHDU: Convergence failed at  85  side 1    Res =  0.5820E-04
 MRCHDU: Convergence failed at  86  side 1    Res =  0.1794E-04
 Side 1  free  transition at x/c =  0.0485   22
 Side 2 forced transition at x/c =  1.0000   73

 146   rms: 0.1396E+07   max: 0.3780E+08   T at   92  2   RLX: 0.000
       a = 13.750      CL =  0.7565
      Cm = -0.1189     CD =*********   =>   CDf =  0.00373    CDp =*********

 MRCHDU: Convergence failed at  82  side 1    Res =  0.8884E-02
 MRCHDU: Convergence failed at  83  side 1    Res =  0.1440E+00
 MRCHDU: Convergence failed at  84  side 1    Res =  0.1393E+00
 MRCHDU: Convergence failed at  85  side 1    Res =  0.5824E-04
 MRCHDU: Convergence failed at  86  side 1    Res =  0.1796E-04
 Side 1  free  transition at x/c =  0.0485   22
 Side 2 forced transition at x/c =  1.0000   73

 147   rms: 0.7614E+06   max: -.2066E+08   T at   92  2   RLX: 0.000
       a = 13.750      CL =  0.7565

[TIMEOUT]
