  
       XFOIL         Version 6.99
  
 Calculated polar for: GOE 561 AIRFOIL                                 
  
 1 1 Reynolds number fixed          Mach number fixed         
  
 xtrf =   1.000 (top)        1.000 (bottom)  
 Mach =   0.000     Re =     0.500 e 6     Ncrit =   9.000
  
   alpha    CL        CD       CDp       CM     Top_Xtr  Bot_Xtr
  ------ -------- --------- --------- -------- -------- --------
  -3.500   0.4246   0.03722   0.03157  -0.1056   0.4812   0.0399
  -3.000   0.4327   0.03529   0.02956  -0.0983   0.4778   0.0403
  -2.500   0.4549   0.03336   0.02743  -0.0933   0.4733   0.0410
  -2.000   0.4552   0.03172   0.02566  -0.0833   0.4706   0.0424
  -1.500   0.4517   0.02966   0.02325  -0.0716   0.4676   0.0443
  -1.000   0.4625   0.02853   0.02207  -0.0639   0.4638   0.0451
  -0.500   0.4749   0.02748   0.02080  -0.0558   0.4599   0.0472
   0.000   0.4932   0.02607   0.01904  -0.0485   0.4555   0.0495
   0.500   0.5118   0.02537   0.01823  -0.0419   0.4517   0.0510
   1.000   0.5219   0.02466   0.01732  -0.0335   0.4477   0.0544
   1.500   0.5382   0.02440   0.01675  -0.0262   0.4435   0.0588
   2.000   0.5710   0.02358   0.01590  -0.0231   0.4389   0.0608
   2.500   0.6027   0.02329   0.01547  -0.0197   0.4338   0.0662
   3.000   0.6267   0.02334   0.01550  -0.0155   0.4286   0.0740
   3.500   0.7420   0.02174   0.01348  -0.0275   0.4227   0.0457
   4.000   0.8008   0.02192   0.01362  -0.0304   0.4169   0.0466
   4.500   0.8445   0.02264   0.01440  -0.0313   0.4104   0.0490
   5.000   0.8968   0.02331   0.01503  -0.0336   0.4038   0.0524
   5.500   0.9349   0.02444   0.01626  -0.0340   0.3971   0.0566
   6.000   0.9691   0.02568   0.01751  -0.0336   0.3905   0.0624
   6.500   1.0001   0.02713   0.01897  -0.0328   0.3838   0.0723
   7.000   1.3000   0.02995   0.02378  -0.0884   0.3727   1.0000
   7.500   1.3147   0.03242   0.02629  -0.0857   0.3657   1.0000
   8.000   1.3296   0.03496   0.02878  -0.0832   0.3592   1.0000
   8.500   1.3503   0.03715   0.03093  -0.0813   0.3543   1.0000
   9.000   1.3588   0.04043   0.03427  -0.0788   0.3476   1.0000
   9.500   1.3764   0.04295   0.03671  -0.0771   0.3420   1.0000
  10.000   1.3892   0.04604   0.03986  -0.0753   0.3375   1.0000
  10.000   1.3892   0.04604   0.03986  -0.0753   0.3375   1.0000
  10.250   1.3927   0.04789   0.04175  -0.0744   0.3348   1.0000
  10.500   1.3982   0.04957   0.04345  -0.0736   0.3325   1.0000
  10.750   1.4051   0.05110   0.04495  -0.0728   0.3297   1.0000
  11.000   1.4174   0.05214   0.04596  -0.0724   0.3278   1.0000
  11.250   1.4346   0.05270   0.04646  -0.0722   0.3255   1.0000
  11.500   1.4290   0.05551   0.04938  -0.0711   0.3232   1.0000
  11.750   1.4307   0.05765   0.05158  -0.0703   0.3211   1.0000
  12.000   1.4338   0.05966   0.05363  -0.0697   0.3189   1.0000
  12.250   1.4378   0.06160   0.05558  -0.0691   0.3163   1.0000
  12.500   1.4465   0.06305   0.05701  -0.0687   0.3142   1.0000
  12.750   1.4641   0.06353   0.05741  -0.0687   0.3114   1.0000
  13.000   1.4642   0.06589   0.05983  -0.0681   0.3093   1.0000
  13.250   1.4630   0.06841   0.06244  -0.0674   0.3077   1.0000
  13.500   1.4601   0.07114   0.06523  -0.0668   0.3054   1.0000
  13.750   1.4642   0.07312   0.06725  -0.0664   0.3034   1.0000
  14.000   1.4684   0.07511   0.06927  -0.0661   0.3014   1.0000
  14.250   1.4775   0.07656   0.07071  -0.0660   0.2997   1.0000
  14.500   1.4919   0.07741   0.07153  -0.0660   0.2980   1.0000
  14.750   1.5139   0.07739   0.07146  -0.0663   0.2965   1.0000
  15.000   1.5114   0.08007   0.07424  -0.0658   0.2948   1.0000
  15.250   1.4989   0.08391   0.07819  -0.0651   0.2929   1.0000
  15.500   1.4908   0.08729   0.08165  -0.0646   0.2906   1.0000
  15.750   1.4912   0.08974   0.08415  -0.0644   0.2884   1.0000
  16.000   1.4954   0.09176   0.08620  -0.0643   0.2868   1.0000
