
 ===================================================
  XFOIL Version 6.99
  Copyright (C) 2000   Mark Drela, Harold Youngren

  This software comes with ABSOLUTELY NO WARRANTY,
    subject to the GNU General Public License.

  Caveat computor
 ===================================================

 File  xfoil.def  not found

   QUIT    Exit program

  .OPER    Direct operating point(s)
  .MDES    Complex mapping design routine
  .QDES    Surface speed design routine
  .GDES    Geometry design routine

   SAVE f  Write airfoil to labeled coordinate file
   PSAV f  Write airfoil to plain coordinate file
   ISAV f  Write airfoil to ISES coordinate file
   MSAV f  Write airfoil to MSES coordinate file
   REVE    Reverse written-airfoil node ordering

   LOAD f  Read buffer airfoil from coordinate file
   NACA i  Set NACA 4,5-digit airfoil and buffer airfoil
   INTE    Set buffer airfoil by interpolating two airfoils
   NORM    Buffer airfoil normalization toggle
   XYCM rr Change CM reference location, currently  0.25000 0.00000

   BEND    Display structural properties of current airfoil

   PCOP    Set current-airfoil panel nodes directly from buffer airfoil points
   PANE    Set current-airfoil panel nodes ( 160 ) based on curvature
  .PPAR    Show/change paneling

  .PLOP    Plotting options

   WDEF f  Write  current-settings file
   RDEF f  Reread current-settings file
   NAME s  Specify new airfoil name
   NINC    Increment name version number

   Z       Zoom    | (available in all menus)
   U       Unzoom  | 

 XFOIL   c>  
 Labeled airfoil file.  Name:  GOE 500 AIRFOIL                                 

 Number of input coordinate points:  33
 Counterclockwise ordering
 Max thickness =     0.100025  at x =   0.300
 Max camber    =     0.058922  at x =   0.500

  LE  x,y  =  -0.00027   0.00224  |   Chord =   1.00028
  TE  x,y  =   1.00000   0.00000  |

 Current airfoil nodes set from buffer airfoil nodes (  33 )

 WARNING: Poor input coordinate distribution
          Excessive panel angle   77.2  at i =  17
          Repaneling with PANE and/or PPAR suggested
           (doing GDES,CADD before repaneling _may_
            improve excessively coarse LE spacing

 XFOIL   c>  
 XFOIL   c>  
 Sharp trailing edge

 Paneling parameters used...
   Number of panel nodes       160
   Panel bunching parameter    1.000
   TE/LE panel density ratio   0.150
   Refined-area/LE panel density ratio    0.200
   Top    side refined area x/c limits  1.000 1.000
   Bottom side refined area x/c limits  1.000 1.000

 XFOIL   c>  
.OPERi   c>  
 Xtr/c     =  1.0000    top    side
 Xtr/c     =  1.0000    bottom side
 Ncrit     =    9.00   ( 0.070 % turb. level )
 Vacc      =  0.0100

 Klag  =  5.6000     Uxwt  =    1.00
 A     =  6.7000     B     =  0.7500       KCt = 0.01485
 CtiniK=  1.8000     CtiniX=  3.3000

..VPAR   c>  
..VPAR   c>  
.OPERi   c>  
 M  =    0.0000
 Re =    200000

.OPERv   c>  
.OPERv   c>  
.OPERv   c>  
 Polar  1 newly created for accumulation
 Airfoil archived with polar: GOE 500 AIRFOIL                                 

Enter  polar save filename  OR  <return> for no file   s>  
 New polar save file available

Enter  polar dump filename  OR  <return> for no file   s>  
 Polar dump file will NOT be written

 Polar accumulation enabled

.OPERva   c>   Calculating unit vorticity distributions ...
 Calculating wake trajectory ...
 Calculating source influence matrix ...

 Solving BL system ...

 Initializing BL ...
    side            1  ...
 MRCHUE: Inverse mode at  56     Hk =   4.163
 MRCHUE: Inverse mode at  57     Hk =   4.556
 MRCHUE: Inverse mode at  58     Hk =   4.940
 MRCHUE: Inverse mode at  59     Hk =   5.316
 MRCHUE: Inverse mode at  60     Hk =   5.686
 MRCHUE: Inverse mode at  61     Hk =   6.049
 MRCHUE: Inverse mode at  62     Hk =   6.407
 MRCHUE: Inverse mode at  63     Hk =   6.760
 MRCHUE: Inverse mode at  64     Hk =   7.110
 MRCHUE: Inverse mode at  65     Hk =   7.457
 MRCHUE: Inverse mode at  66     Hk =   7.803
 MRCHUE: Inverse mode at  67     Hk =   8.149
 MRCHUE: Inverse mode at  68     Hk =   8.497
 MRCHUE: Inverse mode at  69     Hk =   8.849
 MRCHUE: Inverse mode at  70     Hk =   9.202
 MRCHUE: Inverse mode at  71     Hk =   8.144
 MRCHUE: Inverse mode at  72     Hk =   6.806
 MRCHUE: Inverse mode at  73     Hk =   5.893
 MRCHUE: Inverse mode at  74     Hk =   5.243
 MRCHUE: Inverse mode at  75     Hk =   4.759
 MRCHUE: Inverse mode at  76     Hk =   4.383
 MRCHUE: Inverse mode at  77     Hk =   4.177
    side            2  ...
 MRCHUE: Inverse mode at  18     Hk =   3.800
 MRCHUE: Inverse mode at  19     Hk =   4.615
 MRCHUE: Inverse mode at  20     Hk =   5.467
 MRCHUE: Inverse mode at  21     Hk =   6.384
 MRCHUE: Inverse mode at  22     Hk =   7.365
 MRCHUE: Inverse mode at  23     Hk =   8.366
 MRCHUE: Inverse mode at  24     Hk =   9.353
 MRCHUE: Inverse mode at  25     Hk =  10.323
 MRCHUE: Inverse mode at  26     Hk =   5.246
 MRCHUE: Inverse mode at  27     Hk =   3.141
 MRCHUE: Inverse mode at  28     Hk =   2.500

 Side 1  free  transition at x/c =  0.9220   71
 Side 2  free  transition at x/c =  0.0853   26
 idif Ue xi dudx           1  0.17118998      2.84981728E-03   60.070511    
 Uenew xinew           2  3.53393517E-02  5.88297844E-04

   1   rms: 0.1525E+00   max: 0.7191E+00   T at   71  1   RLX: 0.967
       a = -4.000      CL =  0.2254
      Cm = -0.1665     CD =  0.01759   =>   CDf =  0.00691    CDp =  0.01068

 MRCHDU: Convergence failed at  27  side 2    Res =  0.2825E+01
 MRCHDU: Convergence failed at  28  side 2    Res =  0.6454E+03
 MRCHDU: Convergence failed at  29  side 2    Res =  0.8327E+01
 MRCHDU: Convergence failed at  30  side 2    Res =  0.8519E+01
 MRCHDU: Convergence failed at  31  side 2    Res =  0.8408E+01
 MRCHDU: Convergence failed at  32  side 2    Res =  0.8280E+01
 MRCHDU: Convergence failed at  33  side 2    Res =  0.3997E+02
 MRCHDU: Convergence failed at  34  side 2    Res =  0.3358E+02
 MRCHDU: Convergence failed at  35  side 2    Res =  0.4423E+02
 MRCHDU: Convergence failed at  36  side 2    Res =  0.4104E+02
 MRCHDU: Convergence failed at  37  side 2    Res =  0.1134E+03
 MRCHDU: Convergence failed at  38  side 2    Res =  0.3243E+02
 MRCHDU: Convergence failed at  39  side 2    Res =  0.3672E+02
 MRCHDU: Convergence failed at  40  side 2    Res =  0.4695E+02
 MRCHDU: Convergence failed at  41  side 2    Res =  0.4754E+02
 MRCHDU: Convergence failed at  42  side 2    Res =  0.5270E+02
 MRCHDU: Convergence failed at  43  side 2    Res =  0.8086E+02
 MRCHDU: Convergence failed at  44  side 2    Res =  0.1944E+03
 MRCHDU: Convergence failed at  45  side 2    Res =  0.5959E+03
 MRCHDU: Convergence failed at  46  side 2    Res =  0.3869E+03
 MRCHDU: Convergence failed at  47  side 2    Res =  0.8430E+02
 MRCHDU: Convergence failed at  48  side 2    Res =  0.1405E+03
 MRCHDU: Convergence failed at  49  side 2    Res =  0.4702E+03
 MRCHDU: Convergence failed at  50  side 2    Res =  0.4071E+03
 MRCHDU: Convergence failed at  51  side 2    Res =  0.1998E+03
 MRCHDU: Convergence failed at  52  side 2    Res =  0.1347E+05
 MRCHDU: Convergence failed at  53  side 2    Res =  0.3002E+02
 MRCHDU: Convergence failed at  54  side 2    Res =  0.3157E+02
 MRCHDU: Convergence failed at  55  side 2    Res =  0.3311E+02
 MRCHDU: Convergence failed at  56  side 2    Res =  0.3472E+02
 MRCHDU: Convergence failed at  57  side 2    Res =  0.3631E+02
 MRCHDU: Convergence failed at  58  side 2    Res =  0.3796E+02
 MRCHDU: Convergence failed at  59  side 2    Res =  0.3955E+02
 MRCHDU: Convergence failed at  60  side 2    Res =  0.4114E+02
 MRCHDU: Convergence failed at  61  side 2    Res =  0.4265E+02
 MRCHDU: Convergence failed at  62  side 2    Res =  0.4397E+02
 MRCHDU: Convergence failed at  63  side 2    Res =  0.4499E+02
 MRCHDU: Convergence failed at  64  side 2    Res =  0.4557E+02
 MRCHDU: Convergence failed at  65  side 2    Res =  0.4567E+02
 MRCHDU: Convergence failed at  66  side 2    Res =  0.4509E+02
 MRCHDU: Convergence failed at  67  side 2    Res =  0.4395E+02
 MRCHDU: Convergence failed at  68  side 2    Res =  0.4262E+02
 MRCHDU: Convergence failed at  69  side 2    Res =  0.4124E+02
 MRCHDU: Convergence failed at  70  side 2    Res =  0.4002E+02
 MRCHDU: Convergence failed at  71  side 2    Res =  0.3909E+02
 MRCHDU: Convergence failed at  72  side 2    Res =  0.3866E+02
 MRCHDU: Convergence failed at  73  side 2    Res =  0.3865E+02
 MRCHDU: Convergence failed at  74  side 2    Res =  0.3876E+02
 MRCHDU: Convergence failed at  75  side 2    Res =  0.3877E+02
 MRCHDU: Convergence failed at  76  side 2    Res =  0.3856E+02
 MRCHDU: Convergence failed at  77  side 2    Res =  0.5449E+02
 MRCHDU: Convergence failed at  78  side 2    Res =  0.5417E+02
 MRCHDU: Convergence failed at  79  side 2    Res =  0.3252E+02
 MRCHDU: Convergence failed at  80  side 2    Res =  0.2723E+02
 MRCHDU: Convergence failed at  81  side 2    Res =  0.2556E+02
 MRCHDU: Convergence failed at  82  side 2    Res =  0.2449E+02
 MRCHDU: Convergence failed at  83  side 2    Res =  0.7057E+02
 MRCHDU: Convergence failed at  84  side 2    Res =  0.9250E+02
 MRCHDU: Convergence failed at  85  side 2    Res =  0.8921E+02
 MRCHDU: Convergence failed at  86  side 2    Res =  0.4712E+02
 Side 1  free  transition at x/c =  0.8998   68
 Side 2  free  transition at x/c =  0.0845   26

   2   rms: 0.4993E+01   max: -.2608E+02   T at   68  1   RLX: 0.019
       a = -4.000      CL = -0.7383
      Cm =  0.1605     CD =  0.01051   =>   CDf =  0.00368    CDp =  0.00684

 MRCHDU: Convergence failed at  29  side 2    Res =  0.9222E-01
 MRCHDU: Convergence failed at  75  side 2    Res =  0.1790E+00
 MRCHDU: Convergence failed at  76  side 2    Res =  0.1700E+00
 MRCHDU: Convergence failed at  77  side 2    Res =  0.1602E+00
 MRCHDU: Convergence failed at  78  side 2    Res =  0.1491E+00
 MRCHDU: Convergence failed at  79  side 2    Res =  0.1349E+00
 MRCHDU: Convergence failed at  80  side 2    Res =  0.1126E+00
 MRCHDU: Convergence failed at  81  side 2    Res =  0.6550E-01
 MRCHDU: Convergence failed at  82  side 2    Res =  0.4202E-03
 Side 1  free  transition at x/c =  0.9188   71
 Side 2  free  transition at x/c =  0.0978   26

   3   rms: 0.5798E+00   max: 0.2127E+01   D at   29  2   RLX: 0.388
       a = -4.000      CL = -0.1586
      Cm = -0.0515     CD =  0.01720   =>   CDf =  0.00934    CDp =  0.00786

 MRCHDU: Convergence failed at  81  side 2    Res =  0.2721E+00
 MRCHDU: Convergence failed at  82  side 2    Res =  0.5536E+00
 MRCHDU: Convergence failed at  83  side 2    Res =  0.1534E+00
 MRCHDU: Convergence failed at  84  side 2    Res =  0.1424E+00
 MRCHDU: Convergence failed at  85  side 2    Res =  0.1342E+00
 Side 1  free  transition at x/c =  0.9195   71
 Side 2  free  transition at x/c =  0.0931   26
 idif Ue xi dudx           1  0.20347536      3.33821774E-03   60.953289    
 Uenew xinew           2  6.56283051E-02  1.07669830E-03

   4   rms: 0.5790E+00   max: 0.2340E+01   T at   26  2   RLX: 0.281
       a = -4.000      CL = -0.0847
      Cm = -0.1011     CD =  0.02040   =>   CDf =  0.00771    CDp =  0.01269

 Side 1  free  transition at x/c =  0.9100   69
 Side 2  free  transition at x/c =  0.0834   26
 idif Ue xi dudx           1  0.18620847      3.39174271E-03   54.900528    
 Uenew xinew           2  4.55704182E-02  8.30054283E-04

   5   rms: 0.3433E+01   max: 0.2181E+02   T at   69  1   RLX: 0.050
       a = -4.000      CL = -0.2199
      Cm = -0.0851     CD =  0.02329   =>   CDf =  0.00721    CDp =  0.01607

 Side 1  free  transition at x/c =  0.8792   66
 Side 2  free  transition at x/c =  0.0742   27

   6   rms: 0.5104E+01   max: -.3263E+02   T at   66  1   RLX: 0.015
       a = -4.000      CL = -0.1467
      Cm = -0.0939     CD =  0.02423   =>   CDf =  0.00696    CDp =  0.01727

 Side 1  free  transition at x/c =  0.8974   68
 Side 2  free  transition at x/c =  0.0770   26

   7   rms: 0.9874E+00   max: -.6230E+01   T at   68  1   RLX: 0.080
       a = -4.000      CL = -0.0665
      Cm = -0.1099     CD =  0.02187   =>   CDf =  0.00655    CDp =  0.01532

 MRCHDU: Convergence failed at  75  side 1    Res =  0.5398E+01
 MRCHDU: Convergence failed at  76  side 1    Res =  0.3531E+01
 Side 1  free  transition at x/c =  0.9144   69
 Side 2  free  transition at x/c =  0.0795   26

   8   rms: 0.2657E+01   max: -.1819E+02   T at   69  1   RLX: 0.027
       a = -4.000      CL =  0.0132
      Cm = -0.1272     CD =  0.01776   =>   CDf =  0.00669    CDp =  0.01107

 MRCHDU: Convergence failed at  71  side 1    Res =  0.1210E+02
 MRCHDU: Convergence failed at  72  side 1    Res =  0.1364E+02
 MRCHDU: Convergence failed at  73  side 1    Res =  0.1791E+02
 MRCHDU: Convergence failed at  74  side 1    Res =  0.2263E+02
 MRCHDU: Convergence failed at  75  side 1    Res =  0.2057E+02
 MRCHDU: Convergence failed at  76  side 1    Res =  0.2200E+02
 Side 1  free  transition at x/c =  0.9364   71
 Side 2  free  transition at x/c =  0.0833   26

   9   rms: 0.8694E+00   max: 0.3926E+01   C at   71  1   RLX: 0.178
       a = -4.000      CL =  0.0055
      Cm = -0.1449     CD =  0.01340   =>   CDf =  0.00682    CDp =  0.00658

 MRCHDU: Convergence failed at  88  side 2    Res =  0.9011E-01
 Side 1  free  transition at x/c =  0.9106   69
 Side 2  free  transition at x/c =  0.0787   26
 idif Ue xi dudx           1  0.18214183      3.73828411E-03   48.723377    
 Uenew xinew           2  5.73277138E-02  1.17659569E-03

  10   rms: 0.1039E+01   max: 0.6641E+01   T at   69  1   RLX: 0.148
       a = -4.000      CL = -0.1168
      Cm = -0.1225     CD =  0.01629   =>   CDf =  0.00645    CDp =  0.00984

 MRCHDU: Convergence failed at  54  side 2    Res =  0.2510E+00
 MRCHDU: Convergence failed at  89  side 2    Res =  0.5481E-01
 Side 1  free  transition at x/c =  0.8825   66
 Side 2  free  transition at x/c =  0.0726   26

  11   rms: 0.3975E+00   max: 0.2910E+01   D at   89  2   RLX: 0.460
       a = -4.000      CL = -0.0728
      Cm = -0.1220     CD =  0.02538   =>   CDf =  0.00673    CDp =  0.01864

 Side 1  free  transition at x/c =  0.8662   65
 Side 2  free  transition at x/c =  0.0716   26

  12   rms: 0.3271E+00   max: -.1041E+01   D at   33  2   RLX: 0.480
       a = -4.000      CL =  0.0353
      Cm = -0.1361     CD =  0.02336   =>   CDf =  0.00589    CDp =  0.01747

 Side 1  free  transition at x/c =  0.8778   66
 Side 2  free  transition at x/c =  0.0761   27

  13   rms: 0.1383E+00   max: -.4459E+00   D at   86  2
       a = -4.000      CL =  0.1830
      Cm = -0.1575     CD =  0.02033   =>   CDf =  0.00686    CDp =  0.01347

 Side 1  free  transition at x/c =  0.8846   67
 Side 2  free  transition at x/c =  0.0798   26

  14   rms: 0.5275E-01   max: 0.5020E+00   T at   67  1
       a = -4.000      CL =  0.1458
      Cm = -0.1506     CD =  0.02117   =>   CDf =  0.00688    CDp =  0.01429

 Side 1  free  transition at x/c =  0.8701   66
 Side 2  free  transition at x/c =  0.0780   26

  15   rms: 0.1138E+00   max: 0.1135E+01   T at   66  1   RLX: 0.639
       a = -4.000      CL =  0.0883
      Cm = -0.1399     CD =  0.02317   =>   CDf =  0.00689    CDp =  0.01627

 Side 1  free  transition at x/c =  0.8525   65
 Side 2  free  transition at x/c =  0.0751   26

  16   rms: 0.2340E+01   max: -.2320E+02   T at   65  1   RLX: 0.022
       a = -4.000      CL =  0.1228
      Cm = -0.1428     CD =  0.02736   =>   CDf =  0.00675    CDp =  0.02061

 Side 1  free  transition at x/c =  0.8687   66
 Side 2  free  transition at x/c =  0.0770   26

  17   rms: 0.1278E+00   max: -.6392E+00   T at   66  1   RLX: 0.782
       a = -4.000      CL =  0.1960
      Cm = -0.1593     CD =  0.02053   =>   CDf =  0.00672    CDp =  0.01381

 Side 1  free  transition at x/c =  0.8909   68
 Side 2  free  transition at x/c =  0.0806   26

  18   rms: 0.4570E-01   max: 0.2849E+00   D at   68  1
       a = -4.000      CL =  0.2103
      Cm = -0.1625     CD =  0.01977   =>   CDf =  0.00695    CDp =  0.01282

 Side 1  free  transition at x/c =  0.8908   68
 Side 2  free  transition at x/c =  0.0817   26

  19   rms: 0.2162E-02   max: 0.1147E-01   D at   28  2
       a = -4.000      CL =  0.2094
      Cm = -0.1623     CD =  0.01975   =>   CDf =  0.00708    CDp =  0.01266

 Side 1  free  transition at x/c =  0.8907   68
 Side 2  free  transition at x/c =  0.0817   26

  20   rms: 0.4006E-04   max: -.3242E-03   D at   27  2
       a = -4.000      CL =  0.2094
      Cm = -0.1623     CD =  0.01975   =>   CDf =  0.00708    CDp =  0.01267
 plradd ia,ip,cpol            1           0  9.72960051E-03

 Point added to stored polar  1
 Point written to save file  goe500_Re200k.base.pol                          
 Dump file unspecified or not available
 Calculating wake trajectory ...
 Calculating source influence matrix ...

 Solving BL system ...

 Side 1  free  transition at x/c =  0.8907   68
 Side 2  free  transition at x/c =  0.0817   26

   1   rms: 0.1275E+00   max: -.5509E+00   T at   26  2   RLX: 0.908
       a = -3.500      CL =  0.2813
      Cm = -0.1659     CD =  0.01791   =>   CDf =  0.00709    CDp =  0.01082

 MRCHDU: Convergence failed at  26  side 2    Res =  0.4512E+01
 MRCHDU: Convergence failed at  27  side 2    Res =  0.9178E+02
 MRCHDU: Convergence failed at  28  side 2    Res =  0.1005E+02
 MRCHDU: Convergence failed at  29  side 2    Res =  0.1667E+02
 MRCHDU: Convergence failed at  30  side 2    Res =  0.2652E+02
 MRCHDU: Convergence failed at  31  side 2    Res =  0.3392E+02
 MRCHDU: Convergence failed at  32  side 2    Res =  0.3780E+02
 MRCHDU: Convergence failed at  33  side 2    Res =  0.3498E+02
 MRCHDU: Convergence failed at  34  side 2    Res =  0.3079E+02
 MRCHDU: Convergence failed at  35  side 2    Res =  0.2617E+02
 MRCHDU: Convergence failed at  36  side 2    Res =  0.2266E+02
 MRCHDU: Convergence failed at  37  side 2    Res =  0.1998E+02
 MRCHDU: Convergence failed at  38  side 2    Res =  0.1797E+02
 MRCHDU: Convergence failed at  39  side 2    Res =  0.1514E+02
 MRCHDU: Convergence failed at  40  side 2    Res =  0.1645E+02
 MRCHDU: Convergence failed at  41  side 2    Res =  0.1746E+02
 MRCHDU: Convergence failed at  42  side 2    Res =  0.1842E+02
 MRCHDU: Convergence failed at  43  side 2    Res =  0.1946E+02
 MRCHDU: Convergence failed at  44  side 2    Res =  0.2054E+02
 MRCHDU: Convergence failed at  45  side 2    Res =  0.2166E+02
 MRCHDU: Convergence failed at  46  side 2    Res =  0.2285E+02
 MRCHDU: Convergence failed at  47  side 2    Res =  0.2409E+02
 MRCHDU: Convergence failed at  48  side 2    Res =  0.2549E+02
 MRCHDU: Convergence failed at  49  side 2    Res =  0.2697E+02
 MRCHDU: Convergence failed at  50  side 2    Res =  0.2855E+02
 MRCHDU: Convergence failed at  51  side 2    Res =  0.3038E+02
 MRCHDU: Convergence failed at  52  side 2    Res =  0.3210E+02
 MRCHDU: Convergence failed at  53  side 2    Res =  0.3384E+02
 MRCHDU: Convergence failed at  54  side 2    Res =  0.3579E+02
 MRCHDU: Convergence failed at  55  side 2    Res =  0.3719E+02
 MRCHDU: Convergence failed at  56  side 2    Res =  0.3905E+02
 MRCHDU: Convergence failed at  57  side 2    Res =  0.4103E+02
 MRCHDU: Convergence failed at  58  side 2    Res =  0.4284E+02
 MRCHDU: Convergence failed at  59  side 2    Res =  0.4460E+02
 MRCHDU: Convergence failed at  60  side 2    Res =  0.4664E+02
 MRCHDU: Convergence failed at  61  side 2    Res =  0.4728E+02
 MRCHDU: Convergence failed at  62  side 2    Res =  0.4783E+02
 MRCHDU: Convergence failed at  63  side 2    Res =  0.4764E+02
 MRCHDU: Convergence failed at  64  side 2    Res =  0.4519E+02
 MRCHDU: Convergence failed at  65  side 2    Res =  0.4116E+02
 MRCHDU: Convergence failed at  66  side 2    Res =  0.3895E+02
 MRCHDU: Convergence failed at  67  side 2    Res =  0.3482E+02
 MRCHDU: Convergence failed at  68  side 2    Res =  0.3146E+02
 MRCHDU: Convergence failed at  69  side 2    Res =  0.3077E+02
 MRCHDU: Convergence failed at  70  side 2    Res =  0.3151E+02
 MRCHDU: Convergence failed at  71  side 2    Res =  0.3106E+02
 MRCHDU: Convergence failed at  72  side 2    Res =  0.3046E+02
 MRCHDU: Convergence failed at  73  side 2    Res =  0.3007E+02
 MRCHDU: Convergence failed at  74  side 2    Res =  0.2964E+02
 MRCHDU: Convergence failed at  75  side 2    Res =  0.2908E+02
 MRCHDU: Convergence failed at  76  side 2    Res =  0.2820E+02
 MRCHDU: Convergence failed at  77  side 2    Res =  0.2694E+02
 MRCHDU: Convergence failed at  78  side 2    Res =  0.2512E+02
 MRCHDU: Convergence failed at  79  side 2    Res =  0.2459E+02
 MRCHDU: Convergence failed at  80  side 2    Res =  0.2789E+02
 MRCHDU: Convergence failed at  81  side 2    Res =  0.1568E+03
 MRCHDU: Convergence failed at  82  side 2    Res =  0.2118E+03
 MRCHDU: Convergence failed at  83  side 2    Res =  0.7892E+02
 MRCHDU: Convergence failed at  84  side 2    Res =  0.1034E+03
 MRCHDU: Convergence failed at  85  side 2    Res =  0.2823E+02
 Side 1  free  transition at x/c =  0.8843   68
 Side 2  free  transition at x/c =  0.0951   26
 idif Ue xi dudx           1  0.14144158      2.44784355E-03   57.782116    
 Uenew xinew           2  1.07662017E-02  1.86324120E-04

   2   rms: 0.4134E+01   max: 0.1737E+02   T at   68  1   RLX: 0.045
       a = -3.500      CL = -0.7018
      Cm =  0.1545     CD =  0.01383   =>   CDf =  0.00364    CDp =  0.01019

 MRCHDU: Convergence failed at  45  side 2    Res =  0.2947E+00
 MRCHDU: Convergence failed at  46  side 2    Res =  0.2928E+00
 MRCHDU: Convergence failed at  47  side 2    Res =  0.2905E+00
 MRCHDU: Convergence failed at  48  side 2    Res =  0.2895E+00
 MRCHDU: Convergence failed at  49  side 2    Res =  0.2883E+00
 MRCHDU: Convergence failed at  50  side 2    Res =  0.2879E+00
 MRCHDU: Convergence failed at  51  side 2    Res =  0.2886E+00
 MRCHDU: Convergence failed at  52  side 2    Res =  0.2886E+00
 MRCHDU: Convergence failed at  53  side 2    Res =  0.2899E+00
 MRCHDU: Convergence failed at  54  side 2    Res =  0.2919E+00
 MRCHDU: Convergence failed at  55  side 2    Res =  0.2947E+00
 MRCHDU: Convergence failed at  56  side 2    Res =  0.2979E+00
 MRCHDU: Convergence failed at  57  side 2    Res =  0.3029E+00
 MRCHDU: Convergence failed at  58  side 2    Res =  0.3074E+00
 MRCHDU: Convergence failed at  59  side 2    Res =  0.3129E+00
 MRCHDU: Convergence failed at  60  side 2    Res =  0.3184E+00
 MRCHDU: Convergence failed at  61  side 2    Res =  0.3243E+00
 MRCHDU: Convergence failed at  62  side 2    Res =  0.3310E+00
 MRCHDU: Convergence failed at  63  side 2    Res =  0.3383E+00
 MRCHDU: Convergence failed at  64  side 2    Res =  0.3465E+00
 MRCHDU: Convergence failed at  65  side 2    Res =  0.3547E+00
 MRCHDU: Convergence failed at  66  side 2    Res =  0.3640E+00
 MRCHDU: Convergence failed at  67  side 2    Res =  0.3741E+00
 MRCHDU: Convergence failed at  68  side 2    Res =  0.3847E+00
 MRCHDU: Convergence failed at  69  side 2    Res =  0.3958E+00
 MRCHDU: Convergence failed at  70  side 2    Res =  0.4067E+00
 MRCHDU: Convergence failed at  71  side 2    Res =  0.4180E+00
 MRCHDU: Convergence failed at  72  side 2    Res =  0.4291E+00
 MRCHDU: Convergence failed at  73  side 2    Res =  0.4403E+00
 MRCHDU: Convergence failed at  74  side 2    Res =  0.4516E+00
 MRCHDU: Convergence failed at  75  side 2    Res =  0.4636E+00
 MRCHDU: Convergence failed at  76  side 2    Res =  0.4760E+00
 MRCHDU: Convergence failed at  77  side 2    Res =  0.4891E+00
 MRCHDU: Convergence failed at  78  side 2    Res =  0.5028E+00
 MRCHDU: Convergence failed at  79  side 2    Res =  0.5173E+00
 MRCHDU: Convergence failed at  80  side 2    Res =  0.5325E+00
 MRCHDU: Convergence failed at  81  side 2    Res =  0.5491E+00
 MRCHDU: Convergence failed at  82  side 2    Res =  0.5675E+00
 MRCHDU: Convergence failed at  83  side 2    Res =  0.5869E+00
 MRCHDU: Convergence failed at  84  side 2    Res =  0.6057E+00
 MRCHDU: Convergence failed at  85  side 2    Res =  0.6229E+00
 MRCHDU: Convergence failed at  86  side 2    Res =  0.6281E+00
 Side 1  free  transition at x/c =  0.8612   66
 Side 2  free  transition at x/c =  0.0838   26

   3   rms: 0.4064E+00   max: -.7047E+00   D at   87  2   RLX: 0.538
       a = -3.500      CL = -0.0285
      Cm = -0.0835     CD =  0.02906   =>   CDf =  0.00424    CDp =  0.02483

 Side 1  free  transition at x/c =  0.8736   67
 Side 2  free  transition at x/c =  0.0832   26

   4   rms: 0.5801E+00   max: -.2321E+01   D at   52  2   RLX: 0.215
       a = -3.500      CL =  0.0741
      Cm = -0.1082     CD =  0.02177   =>   CDf =  0.00652    CDp =  0.01525

 Side 1  free  transition at x/c =  0.8752   67
 Side 2  free  transition at x/c =  0.0876   27

   5   rms: 0.5633E+00   max: -.2712E+01   D at   36  2   RLX: 0.184
       a = -3.500      CL =  0.1180
      Cm = -0.1203     CD =  0.01785   =>   CDf =  0.00725    CDp =  0.01060

 Side 1  free  transition at x/c =  0.8765   67
 Side 2  free  transition at x/c =  0.0900   27

   6   rms: 0.2677E+00   max: -.1409E+01   D at   35  2   RLX: 0.355
       a = -3.500      CL =  0.1756
      Cm = -0.1372     CD =  0.01742   =>   CDf =  0.00745    CDp =  0.00998

 Side 1  free  transition at x/c =  0.8784   68
 Side 2  free  transition at x/c =  0.0925   26

   7   rms: 0.1450E+00   max: -.6748E+00   D at   34  2   RLX: 0.741
       a = -3.500      CL =  0.2543
      Cm = -0.1582     CD =  0.01729   =>   CDf =  0.00741    CDp =  0.00988

 Side 1  free  transition at x/c =  0.8812   68
 Side 2  free  transition at x/c =  0.0947   26

   8   rms: 0.4414E-01   max: 0.3024E+00   D at   29  2
       a = -3.500      CL =  0.2825
      Cm = -0.1651     CD =  0.01794   =>   CDf =  0.00731    CDp =  0.01062

 Side 1  free  transition at x/c =  0.8828   68
 Side 2  free  transition at x/c =  0.0939   26

   9   rms: 0.3165E-02   max: -.2594E-01   D at   29  2
       a = -3.500      CL =  0.2839
      Cm = -0.1653     CD =  0.01799   =>   CDf =  0.00727    CDp =  0.01071

 Side 1  free  transition at x/c =  0.8834   68
 Side 2  free  transition at x/c =  0.0939   26

  10   rms: 0.1153E-02   max: -.8787E-02   T at   68  1
       a = -3.500      CL =  0.2847
      Cm = -0.1655     CD =  0.01797   =>   CDf =  0.00728    CDp =  0.01069

 Side 1  free  transition at x/c =  0.8837   68
 Side 2  free  transition at x/c =  0.0940   26

  11   rms: 0.5600E-03   max: -.4308E-02   T at   68  1
       a = -3.500      CL =  0.2851
      Cm = -0.1656     CD =  0.01796   =>   CDf =  0.00728    CDp =  0.01068

 Side 1  free  transition at x/c =  0.8839   68
 Side 2  free  transition at x/c =  0.0941   26

  12   rms: 0.2545E-03   max: -.1985E-02   T at   68  1
       a = -3.500      CL =  0.2853
      Cm = -0.1656     CD =  0.01796   =>   CDf =  0.00728    CDp =  0.01068

 Side 1  free  transition at x/c =  0.8839   68
 Side 2  free  transition at x/c =  0.0941   26

  13   rms: 0.1056E-03   max: -.8311E-03   T at   68  1
       a = -3.500      CL =  0.2854
      Cm = -0.1656     CD =  0.01796   =>   CDf =  0.00728    CDp =  0.01068

 Side 1  free  transition at x/c =  0.8840   68
 Side 2  free  transition at x/c =  0.0941   26

  14   rms: 0.8853E-04   max: -.7022E-03   T at   68  1
       a = -3.500      CL =  0.2855
      Cm = -0.1656     CD =  0.01796   =>   CDf =  0.00728    CDp =  0.01067
 plradd ia,ip,cpol            2           0  1.27440374E-02

 Point added to stored polar  1
 Point written to save file  goe500_Re200k.base.pol                          
 Dump file unspecified or not available
 Calculating wake trajectory ...
 Calculating source influence matrix ...

 Solving BL system ...

 Side 1  free  transition at x/c =  0.8840   68
 Side 2  free  transition at x/c =  0.0941   26

   1   rms: 0.2286E+01   max: 0.1872E+02   T at   68  1   RLX: 0.048
       a = -3.000      CL =  0.2090
      Cm = -0.1516     CD =  0.01961   =>   CDf =  0.00729    CDp =  0.01232

 Side 1  free  transition at x/c =  0.8562   67
 Side 2  free  transition at x/c =  0.0851   26

   2   rms: 0.3839E+00   max: -.2282E+01   T at   26  2   RLX: 0.219
       a = -3.000      CL =  0.2355
      Cm = -0.1529     CD =  0.02105   =>   CDf =  0.00729    CDp =  0.01376

 Side 1  free  transition at x/c =  0.8592   67
 Side 2  free  transition at x/c =  0.0897   26

   3   rms: 0.2073E+00   max: -.1273E+01   T at   26  2   RLX: 0.393
       a = -3.000      CL =  0.2894
      Cm = -0.1604     CD =  0.02041   =>   CDf =  0.00708    CDp =  0.01333

 Side 1  free  transition at x/c =  0.8683   67
 Side 2  free  transition at x/c =  0.0985   26

   4   rms: 0.9745E-01   max: -.6821E+00   T at   26  2   RLX: 0.733
       a = -3.000      CL =  0.3026
      Cm = -0.1587     CD =  0.02003   =>   CDf =  0.00730    CDp =  0.01272

 Side 1  free  transition at x/c =  0.8595   67
 Side 2  free  transition at x/c =  0.1063   27

   5   rms: 0.8484E-01   max: 0.1025E+01   D at   27  2
       a = -3.000      CL =  0.3376
      Cm = -0.1647     CD =  0.01695   =>   CDf =  0.00727    CDp =  0.00967

 Side 1  free  transition at x/c =  0.8682   68
 Side 2  free  transition at x/c =  0.1153   27

   6   rms: 0.4868E+00   max: -.3628E+01   T at   27  2   RLX: 0.138
       a = -3.000      CL =  0.3654
      Cm = -0.1690     CD =  0.01635   =>   CDf =  0.00743    CDp =  0.00892

 Side 1  free  transition at x/c =  0.8841   69
 Side 2  free  transition at x/c =  0.1240   27
 idif Ue xi dudx           1  0.16983923      2.42519379E-03   70.031204    
 Uenew xinew           2  2.80505233E-02  4.00543213E-04

   7   rms: 0.8870E+00   max: 0.6350E+01   T at   27  2   RLX: 0.143
       a = -3.000      CL =  0.2892
      Cm = -0.1572     CD =  0.01790   =>   CDf =  0.00742    CDp =  0.01049

 Side 1  free  transition at x/c =  0.8564   67
 Side 2  free  transition at x/c =  0.1073   27

   8   rms: 0.1389E+00   max: -.6076E+00   T at   27  2   RLX: 0.823
       a = -3.000      CL =  0.3404
      Cm = -0.1651     CD =  0.01764   =>   CDf =  0.00721    CDp =  0.01043

 Side 1  free  transition at x/c =  0.8699   68
 Side 2  free  transition at x/c =  0.1190   27

   9   rms: 0.5345E-01   max: -.3880E+00   C at   68  1
       a = -3.000      CL =  0.3159
      Cm = -0.1609     CD =  0.01724   =>   CDf =  0.00735    CDp =  0.00989

 Side 1  free  transition at x/c =  0.8594   68
 Side 2  free  transition at x/c =  0.1128   26

  10   rms: 0.4982E-01   max: -.2696E+00   D at   72  1
       a = -3.000      CL =  0.3346
      Cm = -0.1640     CD =  0.01733   =>   CDf =  0.00739    CDp =  0.00994

 Side 1  free  transition at x/c =  0.8668   68
 Side 2  free  transition at x/c =  0.1154   27

  11   rms: 0.1054E+00   max: -.6244E+00   T at   27  2   RLX: 0.801
       a = -3.000      CL =  0.3683
      Cm = -0.1700     CD =  0.01541   =>   CDf =  0.00742    CDp =  0.00800

 Side 1  free  transition at x/c =  0.8862   70
 Side 2  free  transition at x/c =  0.1289   27

  12   rms: 0.3712E-01   max: 0.3061E+00   D at   70  1
       a = -3.000      CL =  0.3711
      Cm = -0.1708     CD =  0.01603   =>   CDf =  0.00744    CDp =  0.00858

 Side 1  free  transition at x/c =  0.8827   69
 Side 2  free  transition at x/c =  0.1255   27
 idif Ue xi dudx           1  0.17784065      2.50041485E-03   71.124458    
 Uenew xinew           2  3.38384770E-02  4.75764275E-04

  13   rms: 0.2323E+00   max: 0.1626E+01   T at   27  2   RLX: 0.608
       a = -3.000      CL =  0.2794
      Cm = -0.1545     CD =  0.01788   =>   CDf =  0.00740    CDp =  0.01048

 MRCHDU: Convergence failed at  28  side 2    Res =  0.4487E+02
 MRCHDU: Convergence failed at  29  side 2    Res =  0.2191E+02
 MRCHDU: Convergence failed at  30  side 2    Res =  0.2343E+02
 MRCHDU: Convergence failed at  31  side 2    Res =  0.3100E+02
 MRCHDU: Convergence failed at  32  side 2    Res =  0.5796E+02
 MRCHDU: Convergence failed at  33  side 2    Res =  0.1528E+03
 MRCHDU: Convergence failed at  34  side 2    Res =  0.1211E+04
 MRCHDU: Convergence failed at  35  side 2    Res =  0.6225E+02
 MRCHDU: Convergence failed at  36  side 2    Res =  0.3839E+02
 MRCHDU: Convergence failed at  37  side 2    Res =  0.3133E+02
 MRCHDU: Convergence failed at  38  side 2    Res =  0.2770E+02
 MRCHDU: Convergence failed at  39  side 2    Res =  0.2577E+02
 MRCHDU: Convergence failed at  40  side 2    Res =  0.2485E+02
 MRCHDU: Convergence failed at  41  side 2    Res =  0.2386E+02
 MRCHDU: Convergence failed at  42  side 2    Res =  0.2348E+02
 MRCHDU: Convergence failed at  43  side 2    Res =  0.2302E+02
 MRCHDU: Convergence failed at  44  side 2    Res =  0.2235E+02
 MRCHDU: Convergence failed at  45  side 2    Res =  0.2172E+02
 MRCHDU: Convergence failed at  46  side 2    Res =  0.2103E+02
 MRCHDU: Convergence failed at  47  side 2    Res =  0.2042E+02
 MRCHDU: Convergence failed at  48  side 2    Res =  0.1984E+02
 MRCHDU: Convergence failed at  49  side 2    Res =  0.1934E+02
 MRCHDU: Convergence failed at  50  side 2    Res =  0.3581E+02
 MRCHDU: Convergence failed at  51  side 2    Res =  0.3859E+02
 MRCHDU: Convergence failed at  52  side 2    Res =  0.3402E+02
 MRCHDU: Convergence failed at  53  side 2    Res =  0.3063E+02
 MRCHDU: Convergence failed at  54  side 2    Res =  0.2284E+03
 MRCHDU: Convergence failed at  55  side 2    Res =  0.1093E+03
 MRCHDU: Convergence failed at  56  side 2    Res =  0.4427E+02
 MRCHDU: Convergence failed at  57  side 2    Res =  0.4900E+02
 MRCHDU: Convergence failed at  58  side 2    Res =  0.5811E+02
 MRCHDU: Convergence failed at  59  side 2    Res =  0.6819E+02
 MRCHDU: Convergence failed at  60  side 2    Res =  0.1418E+03
 MRCHDU: Convergence failed at  61  side 2    Res =  0.2802E+02
 MRCHDU: Convergence failed at  62  side 2    Res =  0.3231E+02
 MRCHDU: Convergence failed at  63  side 2    Res =  0.4041E+02
 MRCHDU: Convergence failed at  64  side 2    Res =  0.5468E+02
 MRCHDU: Convergence failed at  65  side 2    Res =  0.3297E+02
 MRCHDU: Convergence failed at  66  side 2    Res =  0.2217E+02
 MRCHDU: Convergence failed at  67  side 2    Res =  0.2509E+02
 MRCHDU: Convergence failed at  68  side 2    Res =  0.2793E+02
 MRCHDU: Convergence failed at  69  side 2    Res =  0.3299E+02
 MRCHDU: Convergence failed at  70  side 2    Res =  0.5630E+02
 MRCHDU: Convergence failed at  71  side 2    Res =  0.7314E+02
 MRCHDU: Convergence failed at  72  side 2    Res =  0.9172E+02
 MRCHDU: Convergence failed at  73  side 2    Res =  0.1397E+03
 MRCHDU: Convergence failed at  74  side 2    Res =  0.4450E+02
 MRCHDU: Convergence failed at  75  side 2    Res =  0.3408E+02
 MRCHDU: Convergence failed at  76  side 2    Res =  0.1708E+03
 MRCHDU: Convergence failed at  77  side 2    Res =  0.5314E+02
 MRCHDU: Convergence failed at  78  side 2    Res =  0.2880E+02
 MRCHDU: Convergence failed at  79  side 2    Res =  0.2581E+02
 MRCHDU: Convergence failed at  80  side 2    Res =  0.9454E+02
 MRCHDU: Convergence failed at  81  side 2    Res =  0.3100E+03
 MRCHDU: Convergence failed at  82  side 2    Res =  0.2696E+03
 MRCHDU: Convergence failed at  83  side 2    Res =  0.1007E+03
 MRCHDU: Convergence failed at  84  side 2    Res =  0.2249E+03
 MRCHDU: Convergence failed at  85  side 2    Res =  0.1437E+04
 Side 1  free  transition at x/c =  0.8530   66
 Side 2  free  transition at x/c =  0.1060   27

  14   rms: 0.1645E+01   max: 0.1889E+02   T at   27  2   RLX: 0.079
       a = -3.000      CL = -0.4183
      Cm =  0.0802     CD =  0.01834   =>   CDf =  0.00375    CDp =  0.01459

 MRCHDU: Convergence failed at  27  side 2    Res =  0.1078E+02
 MRCHDU: Convergence failed at  69  side 2    Res =  0.2606E+00
 MRCHDU: Convergence failed at  70  side 2    Res =  0.2696E+00
 MRCHDU: Convergence failed at  71  side 2    Res =  0.2780E+00
 MRCHDU: Convergence failed at  72  side 2    Res =  0.2861E+00
 MRCHDU: Convergence failed at  73  side 2    Res =  0.2940E+00
 MRCHDU: Convergence failed at  74  side 2    Res =  0.3019E+00
 MRCHDU: Convergence failed at  75  side 2    Res =  0.3098E+00
 MRCHDU: Convergence failed at  76  side 2    Res =  0.3181E+00
 MRCHDU: Convergence failed at  77  side 2    Res =  0.3267E+00
 MRCHDU: Convergence failed at  78  side 2    Res =  0.3358E+00
 MRCHDU: Convergence failed at  79  side 2    Res =  0.3454E+00
 MRCHDU: Convergence failed at  80  side 2    Res =  0.3550E+00
 MRCHDU: Convergence failed at  81  side 2    Res =  0.3641E+00
 MRCHDU: Convergence failed at  82  side 2    Res =  0.3723E+00
 MRCHDU: Convergence failed at  83  side 2    Res =  0.3796E+00
 MRCHDU: Convergence failed at  84  side 2    Res =  0.3857E+00
 MRCHDU: Convergence failed at  85  side 2    Res =  0.3816E+00
 Side 1  free  transition at x/c =  0.8379   65
 Side 2  free  transition at x/c =  0.0878   26
 idif Ue xi dudx           1  0.18080117      2.91943550E-03   61.930180    
 Uenew xinew           2  4.07448597E-02  6.57916069E-04

  15   rms: 0.3945E+00   max: 0.1954E+01   T at   26  2   RLX: 0.543
       a = -3.000      CL = -0.0343
      Cm = -0.0812     CD =  0.04401   =>   CDf =  0.00376    CDp =  0.04025

 Side 1  free  transition at x/c =  0.8224   63
 Side 2  free  transition at x/c =  0.0817   26

  16   rms: 0.7401E+00   max: 0.6752E+01   T at   63  1   RLX: 0.134
       a = -3.000      CL = -0.0756
      Cm = -0.0748     CD =  0.05471   =>   CDf =  0.00385    CDp =  0.05085

 Side 1  free  transition at x/c =  0.7993   62
 Side 2  free  transition at x/c =  0.0774   26

  17   rms: 0.7316E+00   max: -.2319E+01   D at   78  2   RLX: 0.216
       a = -3.000      CL =  0.0376
      Cm = -0.1089     CD =  0.04146   =>   CDf =  0.00365    CDp =  0.03781

 Side 1  free  transition at x/c =  0.8115   63
 Side 2  free  transition at x/c =  0.0821   26

  18   rms: 0.1499E+01   max: 0.6386E+01   D at   27  2   RLX: 0.235
       a = -3.000      CL = -0.0289
      Cm = -0.0701     CD =  0.06068   =>   CDf =  0.00410    CDp =  0.05658

 Side 1  free  transition at x/c =  0.8109   63
 Side 2  free  transition at x/c =  0.0883   26

  19   rms: 0.1461E+01   max: -.1453E+02   T at   26  2   RLX: 0.034
       a = -3.000      CL =  0.0634
      Cm = -0.0850     CD =  0.04877   =>   CDf =  0.00377    CDp =  0.04501

 Side 1  free  transition at x/c =  0.8098   63
 Side 2  free  transition at x/c =  0.0955   26
 idif Ue xi dudx           1  0.16418815      2.83443928E-03   57.926147    
 Uenew xinew           2  3.31870392E-02  5.72919846E-04

  20   rms: 0.4851E+00   max: 0.4952E+01   T at   63  1   RLX: 0.178
       a = -3.000      CL = -0.0114
      Cm = -0.0780     CD =  0.05119   =>   CDf =  0.00372    CDp =  0.04747

 Side 1  free  transition at x/c =  0.7880   61
 Side 2  free  transition at x/c =  0.1042   28

  21   rms: 0.4038E+00   max: -.4522E+01   T at   28  2   RLX: 0.111
       a = -3.000      CL =  0.0087
      Cm = -0.0806     CD =  0.05323   =>   CDf =  0.00362    CDp =  0.04961

 Side 1  free  transition at x/c =  0.7956   61
 Side 2  free  transition at x/c =  0.1115   28

  22   rms: 0.2723E+00   max: 0.2387E+01   T at   61  1   RLX: 0.284
       a = -3.000      CL = -0.0194
      Cm = -0.0810     CD =  0.05335   =>   CDf =  0.00362    CDp =  0.04973

 Side 1  free  transition at x/c =  0.7834   61
 Side 2  free  transition at x/c =  0.1094   28

  23   rms: 0.4049E+00   max: 0.6857E+01   T at   28  2   RLX: 0.213
       a = -3.000      CL = -0.0069
      Cm = -0.0838     CD =  0.05261   =>   CDf =  0.00362    CDp =  0.04899

 Side 1  free  transition at x/c =  0.7880   61
 Side 2  free  transition at x/c =  0.0970   27

  24   rms: 0.1122E+01   max: 0.1184E+02   T at   27  2   RLX: 0.063
       a = -3.000      CL = -0.0657
      Cm = -0.0681     CD =  0.06581   =>   CDf =  0.00351    CDp =  0.06230

 Side 1  free  transition at x/c =  0.7908   61
 Side 2  free  transition at x/c =  0.0957   27

  25   rms: 0.5218E+00   max: 0.5441E+01   T at   27  2   RLX: 0.162
       a = -3.000      CL = -0.0397
      Cm = -0.0694     CD =  0.06785   =>   CDf =  0.00341    CDp =  0.06444

 Side 1  free  transition at x/c =  0.8074   63
 Side 2  free  transition at x/c =  0.0907   26

  26   rms: 0.7484E+00   max: -.9493E+01   T at   26  2   RLX: 0.053
       a = -3.000      CL = -0.0243
      Cm = -0.0678     CD =  0.07467   =>   CDf =  0.00350    CDp =  0.07117

 Side 1  free  transition at x/c =  0.8127   64
 Side 2  free  transition at x/c =  0.0974   26

  27   rms: 0.2716E+00   max: -.1597E+01   T at   27  2   RLX: 0.313
       a = -3.000      CL =  0.0277
      Cm = -0.0793     CD =  0.06483   =>   CDf =  0.00352    CDp =  0.06131

 Side 1  free  transition at x/c =  0.8193   64
 Side 2  free  transition at x/c =  0.0954   26

  28   rms: 0.5809E+00   max: 0.5306E+01   T at   26  2   RLX: 0.152
       a = -3.000      CL =  0.0978
      Cm = -0.0975     CD =  0.06091   =>   CDf =  0.00360    CDp =  0.05731

 Side 1  free  transition at x/c =  0.8390   65
 Side 2  free  transition at x/c =  0.0881   26

  29   rms: 0.1998E+00   max: 0.1150E+01   T at   65  1   RLX: 0.584
       a = -3.000      CL =  0.0752
      Cm = -0.0930     CD =  0.05363   =>   CDf =  0.00380    CDp =  0.04983

 Side 1  free  transition at x/c =  0.8192   64
 Side 2  free  transition at x/c =  0.0930   26

  30   rms: 0.1324E+01   max: 0.1913E+02   T at   26  2   RLX: 0.078
       a = -3.000      CL =  0.1413
      Cm = -0.1085     CD =  0.04819   =>   CDf =  0.00387    CDp =  0.04432

 Side 1  free  transition at x/c =  0.8309   65
 Side 2  free  transition at x/c =  0.0842   25

  31   rms: 0.4416E+00   max: 0.3404E+01   T at   25  2   RLX: 0.248
       a = -3.000      CL =  0.1579
      Cm = -0.1190     CD =  0.04414   =>   CDf =  0.00400    CDp =  0.04015

 Side 1  free  transition at x/c =  0.8353   65
 Side 2  free  transition at x/c =  0.0825   25

  32   rms: 0.4555E+00   max: -.1206E+01   T at   65  1   RLX: 0.415
       a = -3.000      CL =  0.2464
      Cm = -0.1455     CD =  0.03472   =>   CDf =  0.00405    CDp =  0.03067

 Side 1  free  transition at x/c =  0.8562   67
 Side 2  free  transition at x/c =  0.0897   26

  33   rms: 0.3306E+00   max: -.9749E+00   D at   44  2   RLX: 0.513
       a = -3.000      CL =  0.2987
      Cm = -0.1582     CD =  0.02732   =>   CDf =  0.00472    CDp =  0.02260

 Side 1  free  transition at x/c =  0.8609   68
 Side 2  free  transition at x/c =  0.0952   25

  34   rms: 0.3701E+00   max: -.1402E+01   D at   34  2   RLX: 0.357
       a = -3.000      CL =  0.3281
      Cm = -0.1620     CD =  0.02375   =>   CDf =  0.00569    CDp =  0.01805

 Side 1  free  transition at x/c =  0.8650   68
 Side 2  free  transition at x/c =  0.1066   26

  35   rms: 0.2188E+00   max: -.1108E+01   T at   26  2   RLX: 0.451
       a = -3.000      CL =  0.3498
      Cm = -0.1655     CD =  0.01948   =>   CDf =  0.00677    CDp =  0.01272

 Side 1  free  transition at x/c =  0.8720   69
 Side 2  free  transition at x/c =  0.1211   27

  36   rms: 0.5793E-01   max: -.4591E+00   D at   33  2
       a = -3.000      CL =  0.3485
      Cm = -0.1666     CD =  0.01636   =>   CDf =  0.00726    CDp =  0.00911

 Side 1  free  transition at x/c =  0.8733   69
 Side 2  free  transition at x/c =  0.1207   27

  37   rms: 0.8765E-02   max: 0.8112E-01   T at   27  2
       a = -3.000      CL =  0.3483
      Cm = -0.1665     CD =  0.01654   =>   CDf =  0.00734    CDp =  0.00920

 Side 1  free  transition at x/c =  0.8733   69
 Side 2  free  transition at x/c =  0.1190   27

  38   rms: 0.1058E-02   max: -.9988E-02   D at   29  2
       a = -3.000      CL =  0.3483
      Cm = -0.1665     CD =  0.01655   =>   CDf =  0.00737    CDp =  0.00918

 Side 1  free  transition at x/c =  0.8733   69
 Side 2  free  transition at x/c =  0.1190   27

  39   rms: 0.2853E-05   max: -.4185E-04   D at   29  2
       a = -3.000      CL =  0.3483
      Cm = -0.1665     CD =  0.01655   =>   CDf =  0.00737    CDp =  0.00918
 plradd ia,ip,cpol            3           0  1.27440374E-02

 Point added to stored polar  1
 Point written to save file  goe500_Re200k.base.pol                          
 Dump file unspecified or not available
 Calculating wake trajectory ...
 Calculating source influence matrix ...

 Solving BL system ...

 Side 1  free  transition at x/c =  0.8733   69
 Side 2  free  transition at x/c =  0.1190   27

   1   rms: 0.1440E+00   max: -.1585E+01   T at   27  2   RLX: 0.316
       a = -2.500      CL =  0.3705
      Cm = -0.1674     CD =  0.01613   =>   CDf =  0.00737    CDp =  0.00876

 Side 1  free  transition at x/c =  0.8717   69
 Side 2  free  transition at x/c =  0.1291   27

   2   rms: 0.1019E+00   max: -.1358E+01   T at   27  2   RLX: 0.368
       a = -2.500      CL =  0.3904
      Cm = -0.1680     CD =  0.01695   =>   CDf =  0.00752    CDp =  0.00943

 Side 1  free  transition at x/c =  0.8706   68
 Side 2  free  transition at x/c =  0.1413   28

   3   rms: 0.2072E+00   max: 0.1288E+01   D at   28  2   RLX: 0.441
       a = -2.500      CL =  0.4449
      Cm = -0.1762     CD =  0.01427   =>   CDf =  0.00730    CDp =  0.00697

 MRCHDU: Convergence failed at  71  side 1    Res =  0.7148E+01
 MRCHDU: Convergence failed at  72  side 1    Res =  0.1279E+02
 MRCHDU: Convergence failed at  73  side 1    Res =  0.1268E+02
 MRCHDU: Convergence failed at  74  side 1    Res =  0.6653E+01
 MRCHDU: Convergence failed at  75  side 1    Res =  0.7446E+01
 MRCHDU: Convergence failed at  76  side 1    Res =  0.9176E+01
 MRCHDU: Convergence failed at  77  side 1    Res =  0.1000E+02
 MRCHDU: Convergence failed at  78  side 1    Res =  0.9815E+01
 MRCHDU: Convergence failed at  79  side 1    Res =  0.7632E+01
 Side 1  free  transition at x/c =  0.8954   71
 Side 2  free  transition at x/c =  0.1567   28
 idif Ue xi dudx           1  0.21273920      2.70569324E-03   78.626503    
 Uenew xinew           2  6.83198646E-02  8.68916512E-04

   4   rms: 0.3129E+00   max: 0.1689E+01   C at   71  1   RLX: 0.888
       a = -2.500      CL =  0.3584
      Cm = -0.1609     CD =  0.01192   =>   CDf =  0.00735    CDp =  0.00457

 Side 1  free  transition at x/c =  0.8485   67
 Side 2  free  transition at x/c =  0.1414   28

   5   rms: 0.1165E+00   max: -.6235E+00   D at   69  1   RLX: 0.802
       a = -2.500      CL =  0.4010
      Cm = -0.1660     CD =  0.01705   =>   CDf =  0.00739    CDp =  0.00966

 Side 1  free  transition at x/c =  0.8621   68
 Side 2  free  transition at x/c =  0.1512   29

   6   rms: 0.1555E-01   max: 0.2368E+00   D at   29  2
       a = -2.500      CL =  0.4057
      Cm = -0.1666     CD =  0.01575   =>   CDf =  0.00737    CDp =  0.00838

 Side 1  free  transition at x/c =  0.8621   68
 Side 2  free  transition at x/c =  0.1501   29

   7   rms: 0.2183E-02   max: 0.1956E-01   D at   29  2
       a = -2.500      CL =  0.4053
      Cm = -0.1666     CD =  0.01574   =>   CDf =  0.00737    CDp =  0.00837

 Side 1  free  transition at x/c =  0.8619   68
 Side 2  free  transition at x/c =  0.1498   29

   8   rms: 0.1207E-04   max: -.1484E-03   D at   29  2
       a = -2.500      CL =  0.4053
      Cm = -0.1666     CD =  0.01574   =>   CDf =  0.00737    CDp =  0.00837
 plradd ia,ip,cpol            4           0  1.63614750E-02

 Point added to stored polar  1
 Point written to save file  goe500_Re200k.base.pol                          
 Dump file unspecified or not available
 Calculating wake trajectory ...
 Calculating source influence matrix ...

 Solving BL system ...

 Side 1  free  transition at x/c =  0.8619   68
 Side 2  free  transition at x/c =  0.1498   29

   1   rms: 0.1220E+00   max: -.1208E+01   T at   29  2   RLX: 0.414
       a = -2.000      CL =  0.4313
      Cm = -0.1671     CD =  0.01539   =>   CDf =  0.00736    CDp =  0.00803

 Side 1  free  transition at x/c =  0.8582   69
 Side 2  free  transition at x/c =  0.1601   28

   2   rms: 0.8194E-01   max: -.8576E+00   T at   28  2   RLX: 0.583
       a = -2.000      CL =  0.4569
      Cm = -0.1676     CD =  0.01596   =>   CDf =  0.00756    CDp =  0.00840

 MRCHDU: Convergence failed at  30  side 2    Res =  0.2427E+01
 MRCHDU: Convergence failed at  31  side 2    Res =  0.1484E+01
 MRCHDU: Convergence failed at  32  side 2    Res =  0.1829E+01
 MRCHDU: Convergence failed at  33  side 2    Res =  0.2585E+01
 MRCHDU: Convergence failed at  34  side 2    Res =  0.3609E+01
 MRCHDU: Convergence failed at  35  side 2    Res =  0.5340E+01
 MRCHDU: Convergence failed at  36  side 2    Res =  0.6964E+01
 MRCHDU: Convergence failed at  37  side 2    Res =  0.8701E+01
 MRCHDU: Convergence failed at  38  side 2    Res =  0.1059E+02
 MRCHDU: Convergence failed at  39  side 2    Res =  0.1249E+02
 MRCHDU: Convergence failed at  40  side 2    Res =  0.1430E+02
 MRCHDU: Convergence failed at  41  side 2    Res =  0.1596E+02
 MRCHDU: Convergence failed at  42  side 2    Res =  0.1736E+02
 MRCHDU: Convergence failed at  43  side 2    Res =  0.1884E+02
 MRCHDU: Convergence failed at  44  side 2    Res =  0.1970E+02
 MRCHDU: Convergence failed at  45  side 2    Res =  0.2006E+02
 MRCHDU: Convergence failed at  46  side 2    Res =  0.2023E+02
 MRCHDU: Convergence failed at  47  side 2    Res =  0.1969E+02
 MRCHDU: Convergence failed at  48  side 2    Res =  0.1916E+02
 MRCHDU: Convergence failed at  49  side 2    Res =  0.1831E+02
 MRCHDU: Convergence failed at  50  side 2    Res =  0.1746E+02
 MRCHDU: Convergence failed at  51  side 2    Res =  0.1659E+02
 MRCHDU: Convergence failed at  52  side 2    Res =  0.1585E+02
 MRCHDU: Convergence failed at  53  side 2    Res =  0.1513E+02
 MRCHDU: Convergence failed at  54  side 2    Res =  0.1431E+02
 MRCHDU: Convergence failed at  55  side 2    Res =  0.1370E+02
 MRCHDU: Convergence failed at  56  side 2    Res =  0.1318E+02
 MRCHDU: Convergence failed at  57  side 2    Res =  0.1270E+02
 MRCHDU: Convergence failed at  58  side 2    Res =  0.1208E+02
 MRCHDU: Convergence failed at  59  side 2    Res =  0.1154E+02
 MRCHDU: Convergence failed at  60  side 2    Res =  0.1135E+02
 MRCHDU: Convergence failed at  61  side 2    Res =  0.1131E+02
 MRCHDU: Convergence failed at  62  side 2    Res =  0.1142E+02
 MRCHDU: Convergence failed at  63  side 2    Res =  0.1178E+02
 MRCHDU: Convergence failed at  64  side 2    Res =  0.1239E+02
 MRCHDU: Convergence failed at  65  side 2    Res =  0.1386E+02
 MRCHDU: Convergence failed at  66  side 2    Res =  0.1495E+02
 MRCHDU: Convergence failed at  67  side 2    Res =  0.1612E+02
 MRCHDU: Convergence failed at  68  side 2    Res =  0.1714E+02
 MRCHDU: Convergence failed at  69  side 2    Res =  0.1749E+02
 MRCHDU: Convergence failed at  70  side 2    Res =  0.1714E+02
 MRCHDU: Convergence failed at  71  side 2    Res =  0.1650E+02
 MRCHDU: Convergence failed at  72  side 2    Res =  0.1594E+02
 MRCHDU: Convergence failed at  73  side 2    Res =  0.1565E+02
 MRCHDU: Convergence failed at  74  side 2    Res =  0.1584E+02
 MRCHDU: Convergence failed at  75  side 2    Res =  0.1675E+02
 MRCHDU: Convergence failed at  76  side 2    Res =  0.1977E+02
 MRCHDU: Convergence failed at  77  side 2    Res =  0.2545E+02
 MRCHDU: Convergence failed at  78  side 2    Res =  0.3106E+02
 MRCHDU: Convergence failed at  79  side 2    Res =  0.2997E+02
 MRCHDU: Convergence failed at  80  side 2    Res =  0.2445E+02
 MRCHDU: Convergence failed at  81  side 2    Res =  0.1974E+02
 MRCHDU: Convergence failed at  82  side 2    Res =  0.1666E+02
 MRCHDU: Convergence failed at  83  side 2    Res =  0.9520E+01
 Side 1  free  transition at x/c =  0.8565   69
 Side 2  free  transition at x/c =  0.1741   29

   3   rms: 0.3333E+00   max: -.2280E+00   U at   83  2
       a = -2.000      CL =  0.4609
      Cm = -0.1652     CD =  0.01293   =>   CDf =  0.00427    CDp =  0.00867

 Side 1  free  transition at x/c =  0.8563   69
 Side 2  free  transition at x/c =  0.1760   29

   4   rms: 0.2844E-01   max: -.2799E+00   D at   31  2
       a = -2.000      CL =  0.4743
      Cm = -0.1685     CD =  0.01500   =>   CDf =  0.00749    CDp =  0.00751

 Side 1  free  transition at x/c =  0.8557   68
 Side 2  free  transition at x/c =  0.1808   30

   5   rms: 0.8777E-01   max: -.5729E+00   T at   68  1   RLX: 0.873
       a = -2.000      CL =  0.5141
      Cm = -0.1754     CD =  0.01368   =>   CDf =  0.00735    CDp =  0.00633

 MRCHDU: Convergence failed at  72  side 1    Res =  0.9295E+01
 MRCHDU: Convergence failed at  73  side 1    Res =  0.4862E+01
 MRCHDU: Convergence failed at  74  side 1    Res =  0.1945E+02
 MRCHDU: Convergence failed at  75  side 1    Res =  0.1998E+03
 MRCHDU: Convergence failed at  76  side 1    Res =  0.9266E+02
 MRCHDU: Convergence failed at  77  side 1    Res =  0.3585E+02
 MRCHDU: Convergence failed at  78  side 1    Res =  0.2274E+02
 MRCHDU: Convergence failed at  79  side 1    Res =  0.1692E+02
 MRCHDU: Convergence failed at  80  side 1    Res =  0.9832E+01
 Side 1  free  transition at x/c =  0.8828   71
 Side 2  free  transition at x/c =  0.1882   29
 idif Ue xi dudx           1  0.24306853      2.63071060E-03   92.396530    
 Uenew xinew           2  8.68715569E-02  9.40203667E-04

   6   rms: 0.4677E+00   max: 0.3248E+01   T at    2  1   RLX: 0.313
       a = -2.000      CL =  0.4711
      Cm = -0.1862     CD =  0.00892   =>   CDf =  0.00734    CDp =  0.00158

 Side 1  free  transition at x/c =  0.8447   68
 Side 2  free  transition at x/c =  0.1701   29

   7   rms: 0.9502E-01   max: -.6549E+00   D at   75  1   RLX: 0.763
       a = -2.000      CL =  0.4219
      Cm = -0.1599     CD =  0.01738   =>   CDf =  0.00738    CDp =  0.01000

 Side 1  free  transition at x/c =  0.8415   68
 Side 2  free  transition at x/c =  0.1675   29

   8   rms: 0.8375E-01   max: -.5206E+00   D at   76  1   RLX: 0.960
       a = -2.000      CL =  0.4517
      Cm = -0.1643     CD =  0.01532   =>   CDf =  0.00734    CDp =  0.00798

 Side 1  free  transition at x/c =  0.8477   68
 Side 2  free  transition at x/c =  0.1741   29

   9   rms: 0.2581E-01   max: -.1249E+00   T at   29  2
       a = -2.000      CL =  0.4660
      Cm = -0.1671     CD =  0.01518   =>   CDf =  0.00741    CDp =  0.00777

 Side 1  free  transition at x/c =  0.8522   68
 Side 2  free  transition at x/c =  0.1778   30

  10   rms: 0.8950E-02   max: -.8104E-01   D at   29  2
       a = -2.000      CL =  0.4690
      Cm = -0.1676     CD =  0.01501   =>   CDf =  0.00742    CDp =  0.00760

 Side 1  free  transition at x/c =  0.8536   68
 Side 2  free  transition at x/c =  0.1786   30

  11   rms: 0.1709E-02   max: 0.2010E-01   D at   30  2
       a = -2.000      CL =  0.4697
      Cm = -0.1678     CD =  0.01500   =>   CDf =  0.00737    CDp =  0.00763

 Side 1  free  transition at x/c =  0.8539   68
 Side 2  free  transition at x/c =  0.1787   30

  12   rms: 0.1557E-03   max: -.1004E-02   T at   68  1
       a = -2.000      CL =  0.4698
      Cm = -0.1678     CD =  0.01500   =>   CDf =  0.00738    CDp =  0.00762

 Side 1  free  transition at x/c =  0.8540   68
 Side 2  free  transition at x/c =  0.1787   30

  13   rms: 0.4027E-05   max: 0.2273E-04   D at   30  2
       a = -2.000      CL =  0.4698
      Cm = -0.1678     CD =  0.01500   =>   CDf =  0.00738    CDp =  0.00762
 plradd ia,ip,cpol            5           0  1.63614750E-02

 Point added to stored polar  1
 Point written to save file  goe500_Re200k.base.pol                          
 Dump file unspecified or not available
 Calculating wake trajectory ...
 Calculating source influence matrix ...

 Solving BL system ...

 Side 1  free  transition at x/c =  0.8540   68
 Side 2  free  transition at x/c =  0.1787   30

   1   rms: 0.1228E+00   max: 0.1086E+01   T at   68  1   RLX: 0.761
       a = -1.500      CL =  0.4584
      Cm = -0.1586     CD =  0.01608   =>   CDf =  0.00738    CDp =  0.00870

 Side 1  free  transition at x/c =  0.8234   66
 Side 2  free  transition at x/c =  0.1865   30

   2   rms: 0.8098E+00   max: 0.6376E+01   T at   66  1   RLX: 0.128
       a = -1.500      CL =  0.3852
      Cm = -0.1443     CD =  0.02069   =>   CDf =  0.00733    CDp =  0.01337

 Side 1  free  transition at x/c =  0.7977   65
 Side 2  free  transition at x/c =  0.1701   29

   3   rms: 0.1799E+00   max: -.9084E+00   T at   29  2   RLX: 0.550
       a = -1.500      CL =  0.4424
      Cm = -0.1520     CD =  0.02008   =>   CDf =  0.00737    CDp =  0.01271

 Side 1  free  transition at x/c =  0.8136   66
 Side 2  free  transition at x/c =  0.1872   30

   4   rms: 0.1188E+00   max: -.5315E+00   D at   73  1   RLX: 0.941
       a = -1.500      CL =  0.5043
      Cm = -0.1639     CD =  0.01569   =>   CDf =  0.00721    CDp =  0.00848

 Side 1  free  transition at x/c =  0.8297   68
 Side 2  free  transition at x/c =  0.2004   30

   5   rms: 0.4369E-01   max: -.2639E+00   T at   68  1
       a = -1.500      CL =  0.5243
      Cm = -0.1672     CD =  0.01461   =>   CDf =  0.00732    CDp =  0.00729

 Side 1  free  transition at x/c =  0.8406   68
 Side 2  free  transition at x/c =  0.2062   30

   6   rms: 0.3255E+00   max: -.2228E+01   T at   68  1   RLX: 0.224
       a = -1.500      CL =  0.5591
      Cm = -0.1721     CD =  0.01396   =>   CDf =  0.00739    CDp =  0.00656

 MRCHDU: Convergence failed at  71  side 1    Res =  0.1615E+02
 MRCHDU: Convergence failed at  72  side 1    Res =  0.6319E+01
 MRCHDU: Convergence failed at  73  side 1    Res =  0.1823E+02
 MRCHDU: Convergence failed at  74  side 1    Res =  0.2917E+03
 MRCHDU: Convergence failed at  75  side 1    Res =  0.8404E+02
 MRCHDU: Convergence failed at  76  side 1    Res =  0.2149E+03
 MRCHDU: Convergence failed at  77  side 1    Res =  0.4054E+02
 MRCHDU: Convergence failed at  78  side 1    Res =  0.2390E+02
 MRCHDU: Convergence failed at  79  side 1    Res =  0.1746E+02
 MRCHDU: Convergence failed at  80  side 1    Res =  0.9137E+01
 Side 1  free  transition at x/c =  0.8677   70
 Side 2  free  transition at x/c =  0.2186   31

   7   rms: 0.4434E+00   max: 0.2708E+01   T at   70  1   RLX: 0.366
       a = -1.500      CL =  0.5148
      Cm = -0.1844     CD =  0.00878   =>   CDf =  0.00710    CDp =  0.00168

 Side 1  free  transition at x/c =  0.8275   68
 Side 2  free  transition at x/c =  0.1975   30

   8   rms: 0.9452E-01   max: -.6778E+00   D at   75  1   RLX: 0.738
       a = -1.500      CL =  0.4749
      Cm = -0.1590     CD =  0.01752   =>   CDf =  0.00729    CDp =  0.01023

 Side 1  free  transition at x/c =  0.8293   68
 Side 2  free  transition at x/c =  0.1950   30

   9   rms: 0.9822E-01   max: -.5635E+00   D at   76  1   RLX: 0.887
       a = -1.500      CL =  0.5124
      Cm = -0.1647     CD =  0.01485   =>   CDf =  0.00729    CDp =  0.00757

 Side 1  free  transition at x/c =  0.8384   68
 Side 2  free  transition at x/c =  0.2029   30

  10   rms: 0.1012E+00   max: -.5895E+00   T at   68  1   RLX: 0.848
       a = -1.500      CL =  0.5557
      Cm = -0.1717     CD =  0.01374   =>   CDf =  0.00737    CDp =  0.00638

 MRCHDU: Convergence failed at  70  side 1    Res =  0.1402E+02
 MRCHDU: Convergence failed at  71  side 1    Res =  0.7228E+01
 MRCHDU: Convergence failed at  72  side 1    Res =  0.1624E+02
 MRCHDU: Convergence failed at  73  side 1    Res =  0.6851E+01
 MRCHDU: Convergence failed at  74  side 1    Res =  0.5436E+01
 MRCHDU: Convergence failed at  75  side 1    Res =  0.9226E+01
 MRCHDU: Convergence failed at  76  side 1    Res =  0.1113E+02
 MRCHDU: Convergence failed at  77  side 1    Res =  0.1114E+02
 MRCHDU: Convergence failed at  78  side 1    Res =  0.9983E+01
 MRCHDU: Convergence failed at  79  side 1    Res =  0.7677E+01
 MRCHDU: Convergence failed at  80  side 1    Res =  0.9682E+01
 Side 1  free  transition at x/c =  0.8662   70
 Side 2  free  transition at x/c =  0.2181   31

  11   rms: 0.3552E+00   max: 0.1565E+01   C at   70  1   RLX: 0.867
       a = -1.500      CL =  0.4599
      Cm = -0.1590     CD =  0.01090   =>   CDf =  0.00710    CDp =  0.00380

 Side 1  free  transition at x/c =  0.8226   67
 Side 2  free  transition at x/c =  0.1909   29

  12   rms: 0.2464E+01   max: -.1772E+02   T at   67  1   RLX: 0.028
       a = -1.500      CL =  0.5070
      Cm = -0.1639     CD =  0.01955   =>   CDf =  0.00732    CDp =  0.01223

 Side 1  free  transition at x/c =  0.8455   69
 Side 2  free  transition at x/c =  0.2057   30
 idif Ue xi dudx           1  0.18505003      1.80160999E-03   102.71370    
 Uenew xinew           2  1.14118056E-02  1.11103058E-04

  13   rms: 0.1017E+01   max: 0.6303E+01   T at   69  1   RLX: 0.091
       a = -1.500      CL =  0.4362
      Cm = -0.1519     CD =  0.01799   =>   CDf =  0.00742    CDp =  0.01058

 Side 1  free  transition at x/c =  0.8233   66
 Side 2  free  transition at x/c =  0.1866   30

  14   rms: 0.3205E+00   max: 0.3657E+01   T at    2  2   RLX: 0.280
       a = -1.500      CL =  0.3853
      Cm = -0.1420     CD =  0.02104   =>   CDf =  0.00740    CDp =  0.01364

 Side 1  free  transition at x/c =  0.8035   65
 Side 2  free  transition at x/c =  0.1744   29

  15   rms: 0.3312E+00   max: -.1994E+01   T at   65  1   RLX: 0.251
       a = -1.500      CL =  0.4397
      Cm = -0.1483     CD =  0.02185   =>   CDf =  0.00741    CDp =  0.01444

 MRCHDU: Convergence failed at  31  side 2    Res =  0.4858E+01
 MRCHDU: Convergence failed at  32  side 2    Res =  0.2103E+02
 MRCHDU: Convergence failed at  33  side 2    Res =  0.3710E+01
 MRCHDU: Convergence failed at  34  side 2    Res =  0.4119E+01
 MRCHDU: Convergence failed at  35  side 2    Res =  0.2902E+01
 MRCHDU: Convergence failed at  36  side 2    Res =  0.3333E+01
 MRCHDU: Convergence failed at  37  side 2    Res =  0.3852E+01
 MRCHDU: Convergence failed at  38  side 2    Res =  0.4335E+01
 MRCHDU: Convergence failed at  39  side 2    Res =  0.4751E+01
 MRCHDU: Convergence failed at  40  side 2    Res =  0.5100E+01
 MRCHDU: Convergence failed at  41  side 2    Res =  0.5350E+01
 MRCHDU: Convergence failed at  42  side 2    Res =  0.5525E+01
 MRCHDU: Convergence failed at  43  side 2    Res =  0.5389E+01
 MRCHDU: Convergence failed at  44  side 2    Res =  0.5458E+01
 MRCHDU: Convergence failed at  45  side 2    Res =  0.5496E+01
 MRCHDU: Convergence failed at  46  side 2    Res =  0.2675E+02
 MRCHDU: Convergence failed at  47  side 2    Res =  0.3428E+02
 MRCHDU: Convergence failed at  48  side 2    Res =  0.4467E+02
 MRCHDU: Convergence failed at  49  side 2    Res =  0.6473E+02
 MRCHDU: Convergence failed at  50  side 2    Res =  0.8808E+02
 MRCHDU: Convergence failed at  51  side 2    Res =  0.1822E+03
 MRCHDU: Convergence failed at  52  side 2    Res =  0.1833E+04
 MRCHDU: Convergence failed at  53  side 2    Res =  0.2261E+03
 MRCHDU: Convergence failed at  54  side 2    Res =  0.1069E+03
 MRCHDU: Convergence failed at  55  side 2    Res =  0.7314E+02
 MRCHDU: Convergence failed at  56  side 2    Res =  0.5736E+02
 MRCHDU: Convergence failed at  57  side 2    Res =  0.4798E+02
 MRCHDU: Convergence failed at  58  side 2    Res =  0.4183E+02
 MRCHDU: Convergence failed at  59  side 2    Res =  0.3806E+02
 MRCHDU: Convergence failed at  60  side 2    Res =  0.3562E+02
 MRCHDU: Convergence failed at  61  side 2    Res =  0.3422E+02
 MRCHDU: Convergence failed at  62  side 2    Res =  0.3397E+02
 MRCHDU: Convergence failed at  63  side 2    Res =  0.3502E+02
 MRCHDU: Convergence failed at  64  side 2    Res =  0.3695E+02
 MRCHDU: Convergence failed at  65  side 2    Res =  0.4094E+02
 MRCHDU: Convergence failed at  66  side 2    Res =  0.4589E+02
 MRCHDU: Convergence failed at  67  side 2    Res =  0.5204E+02
 MRCHDU: Convergence failed at  68  side 2    Res =  0.6043E+02
 MRCHDU: Convergence failed at  69  side 2    Res =  0.6610E+02
 MRCHDU: Convergence failed at  70  side 2    Res =  0.6717E+02
 MRCHDU: Convergence failed at  71  side 2    Res =  0.6584E+02
 MRCHDU: Convergence failed at  72  side 2    Res =  0.6304E+02
 MRCHDU: Convergence failed at  73  side 2    Res =  0.6308E+02
 MRCHDU: Convergence failed at  74  side 2    Res =  0.7174E+02
 MRCHDU: Convergence failed at  75  side 2    Res =  0.9959E+02
 MRCHDU: Convergence failed at  76  side 2    Res =  0.2952E+03
 MRCHDU: Convergence failed at  77  side 2    Res =  0.1492E+03
 MRCHDU: Convergence failed at  78  side 2    Res =  0.5234E+02
 MRCHDU: Convergence failed at  79  side 2    Res =  0.3711E+02
 MRCHDU: Convergence failed at  80  side 2    Res =  0.3139E+02
 MRCHDU: Convergence failed at  81  side 2    Res =  0.2893E+02
 MRCHDU: Convergence failed at  82  side 2    Res =  0.2598E+02
 MRCHDU: Convergence failed at  83  side 2    Res =  0.2583E+03
 Side 1  free  transition at x/c =  0.8247   66
 Side 2  free  transition at x/c =  0.1900   30

  16   rms: 0.5246E+00   max: 0.3263E+01   T at   30  2   RLX: 0.220
       a = -1.500      CL =  0.1361
      Cm = -0.0426     CD =  0.01763   =>   CDf =  0.00401    CDp =  0.01361

 MRCHDU: Convergence failed at  49  side 2    Res =  0.5506E-01
 MRCHDU: Convergence failed at  69  side 2    Res =  0.2044E-01
 MRCHDU: Convergence failed at  70  side 2    Res =  0.6420E-03
 Side 1  free  transition at x/c =  0.8140   66
 Side 2  free  transition at x/c =  0.1718   29

  17   rms: 0.4056E+00   max: -.2637E+01   T at   29  2   RLX: 0.190
       a = -1.500      CL =  0.3559
      Cm = -0.1135     CD =  0.02920   =>   CDf =  0.00497    CDp =  0.02424

 MRCHDU: Convergence failed at  48  side 2    Res =  0.1758E+00
 MRCHDU: Convergence failed at  49  side 2    Res =  0.5760E+00
 MRCHDU: Convergence failed at  68  side 2    Res =  0.6320E+00
 MRCHDU: Convergence failed at  69  side 2    Res =  0.9307E+00
 MRCHDU: Convergence failed at  70  side 2    Res =  0.3558E+00
 MRCHDU: Convergence failed at  71  side 2    Res =  0.3476E+00
 MRCHDU: Convergence failed at  72  side 2    Res =  0.3266E+00
 MRCHDU: Convergence failed at  73  side 2    Res =  0.3056E+00
 MRCHDU: Convergence failed at  74  side 2    Res =  0.2842E+00
 MRCHDU: Convergence failed at  75  side 2    Res =  0.2625E+00
 MRCHDU: Convergence failed at  76  side 2    Res =  0.2404E+00
 MRCHDU: Convergence failed at  77  side 2    Res =  0.2186E+00
 MRCHDU: Convergence failed at  78  side 2    Res =  0.1978E+00
 MRCHDU: Convergence failed at  79  side 2    Res =  0.1789E+00
 MRCHDU: Convergence failed at  80  side 2    Res =  0.1618E+00
 MRCHDU: Convergence failed at  81  side 2    Res =  0.5747E+00
 MRCHDU: Convergence failed at  82  side 2    Res =  0.9741E+00
 Side 1  free  transition at x/c =  0.8183   67
 Side 2  free  transition at x/c =  0.1851   29
 idif Ue xi dudx           1  0.21899571      2.44212151E-03   89.674370    
 Uenew xinew           2  6.74005598E-02  7.51614571E-04

  18   rms: 0.1122E+01   max: 0.1197E+02   T at    2  1   RLX: 0.083
       a = -1.500      CL =  0.4106
      Cm = -0.1623     CD =  0.04052   =>   CDf =  0.00449    CDp =  0.03604

 MRCHDU: Convergence failed at  35  side 2    Res =  0.3837E-02
 Side 1  free  transition at x/c =  0.8128   66
 Side 2  free  transition at x/c =  0.1774   30

  19   rms: 0.1083E+01   max: -.5359E+01   D at   35  2   RLX: 0.093
       a = -1.500      CL =  0.3652
      Cm = -0.1639     CD =  0.04255   =>   CDf =  0.00453    CDp =  0.03802

 MRCHDU: Convergence failed at  35  side 2    Res =  0.3478E-01
 Side 1  free  transition at x/c =  0.8103   65
 Side 2  free  transition at x/c =  0.1706   29
 idif Ue xi dudx           1  0.18403830      2.05600262E-03   89.512672    
 Uenew xinew           2  1.96234938E-02  2.19225883E-04

  20   rms: 0.1128E+01   max: -.4322E+01   D at   86  2   RLX: 0.116
       a = -1.500      CL =  0.3415
      Cm = -0.1674     CD =  0.03209   =>   CDf =  0.00455    CDp =  0.02754

 Side 1  free  transition at x/c =  0.8237   65
 Side 2  free  transition at x/c =  0.1683   30

  21   rms: 0.2739E+01   max: 0.1100E+02   T at   30  2   RLX: 0.062
       a = -1.500      CL =  0.2465
      Cm = -0.1655     CD =  0.02690   =>   CDf =  0.00471    CDp =  0.02218

 MRCHDU: Convergence failed at  30  side 2    Res =  0.5751E+01
 Side 1  free  transition at x/c =  0.8094   64
 Side 2  free  transition at x/c =  0.1455   28

  22   rms: 0.1337E+01   max: -.5863E+01   D at   86  2   RLX: 0.085
       a = -1.500      CL =  0.2239
      Cm = -0.1559     CD =  0.02383   =>   CDf =  0.00469    CDp =  0.01915

 Side 1  free  transition at x/c =  0.8204   65
 Side 2  free  transition at x/c =  0.1493   29
 idif Ue xi dudx           1  0.16715890      2.47848034E-03   67.444107    
 Uenew xinew           2  3.06081437E-02  4.53829765E-04

  23   rms: 0.1278E+01   max: -.4521E+01   D at   86  2   RLX: 0.111
       a = -1.500      CL =  0.1760
      Cm = -0.1516     CD =  0.01890   =>   CDf =  0.00497    CDp =  0.01394

 Side 1  free  transition at x/c =  0.8150   64
 Side 2  free  transition at x/c =  0.1402   29

  24   rms: 0.9026E+00   max: -.3235E+01   D at   78  2   RLX: 0.155
       a = -1.500      CL =  0.1477
      Cm = -0.1433     CD =  0.01596   =>   CDf =  0.00527    CDp =  0.01069

 MRCHDU: Convergence failed at  87  side 2    Res =  0.1220E-01
 Side 1  free  transition at x/c =  0.8121   64
 Side 2  free  transition at x/c =  0.1299   28

  25   rms: 0.9202E+00   max: -.3138E+01   D at   79  2   RLX: 0.159
       a = -1.500      CL =  0.1361
      Cm = -0.1372     CD =  0.01444   =>   CDf =  0.00546    CDp =  0.00898

 MRCHDU: Convergence failed at  87  side 2    Res =  0.6148E-01
 Side 1  free  transition at x/c =  0.8107   63
 Side 2  free  transition at x/c =  0.1239   28

  26   rms: 0.4808E+00   max: -.2030E+01   D at   85  2   RLX: 0.246
       a = -1.500      CL =  0.1695
      Cm = -0.1345     CD =  0.01509   =>   CDf =  0.00605    CDp =  0.00905

 MRCHDU: Convergence failed at  39  side 2    Res =  0.2382E+00
 Side 1  free  transition at x/c =  0.8098   63
 Side 2  free  transition at x/c =  0.1300   28

  27   rms: 0.4286E+00   max: 0.2473E+01   D at   87  2   RLX: 0.275
       a = -1.500      CL =  0.1764
      Cm = -0.1288     CD =  0.01673   =>   CDf =  0.00680    CDp =  0.00992

 Side 1  free  transition at x/c =  0.7993   64
 Side 2  free  transition at x/c =  0.1330   28

  28   rms: 0.5276E+01   max: -.9430E+02   T at    2  1   RLX: 0.005
       a = -1.500      CL =  0.1726
      Cm = -0.1267     CD =  0.01722   =>   CDf =  0.00671    CDp =  0.01051

 Side 1  free  transition at x/c =  0.7994   64
 Side 2  free  transition at x/c =  0.1334   28

  29   rms: 0.4231E+00   max: -.3116E+01   T at   28  2   RLX: 0.160
       a = -1.500      CL =  0.2204
      Cm = -0.1319     CD =  0.01668   =>   CDf =  0.00671    CDp =  0.00996

 Side 1  free  transition at x/c =  0.8031   64
 Side 2  free  transition at x/c =  0.1434   28

  30   rms: 0.3903E+00   max: -.3365E+01   T at   28  2   RLX: 0.149
       a = -1.500      CL =  0.2730
      Cm = -0.1377     CD =  0.01753   =>   CDf =  0.00704    CDp =  0.01049

 Side 1  free  transition at x/c =  0.8102   64
 Side 2  free  transition at x/c =  0.1572   29

  31   rms: 0.2646E+00   max: 0.1498E+01   D at   86  2   RLX: 0.451
       a = -1.500      CL =  0.2875
      Cm = -0.1349     CD =  0.01765   =>   CDf =  0.00687    CDp =  0.01078

 Side 1  free  transition at x/c =  0.7922   63
 Side 2  free  transition at x/c =  0.1569   29

  32   rms: 0.4550E+01   max: 0.3590E+02   T at   63  1   RLX: 0.027
       a = -1.500      CL =  0.1937
      Cm = -0.1174     CD =  0.02435   =>   CDf =  0.00714    CDp =  0.01721

 Side 1  free  transition at x/c =  0.7655   61
 Side 2  free  transition at x/c =  0.1406   28
 idif Ue xi dudx           1  0.16233881      2.05159187E-03   79.128220    
 Uenew xinew           2  2.13181716E-03  2.69412994E-05

  33   rms: 0.7235E+00   max: 0.7332E+01   T at   61  1   RLX: 0.102
       a = -1.500      CL =  0.1472
      Cm = -0.1089     CD =  0.02973   =>   CDf =  0.00729    CDp =  0.02244

 Side 1  free  transition at x/c =  0.7479   59
 Side 2  free  transition at x/c =  0.1293   28

  34   rms: 0.5206E+01   max: -.8687E+02   D at    2  2   RLX: 0.006
       a = -1.500      CL =  0.1458
      Cm = -0.1049     CD =  0.03560   =>   CDf =  0.00734    CDp =  0.02826

 Side 1  free  transition at x/c =  0.7495   60
 Side 2  free  transition at x/c =  0.1311   28
 idif Ue xi dudx           1  0.19078925      2.42626667E-03   78.634903    
 Uenew xinew           2  3.15810442E-02  4.01616096E-04

  35   rms: 0.1293E+01   max: 0.1530E+02   D at    2  1   RLX: 0.070
       a = -1.500      CL =  0.1174
      Cm = -0.1020     CD =  0.03511   =>   CDf =  0.00736    CDp =  0.02775

 MRCHDU: Convergence failed at  29  side 2    Res =  0.4032E+01
 MRCHDU: Convergence failed at  30  side 2    Res =  0.4280E+01
 MRCHDU: Convergence failed at  31  side 2    Res =  0.3714E+01
 MRCHDU: Convergence failed at  32  side 2    Res =  0.4319E+01
 MRCHDU: Convergence failed at  33  side 2    Res =  0.6421E+01
 MRCHDU: Convergence failed at  34  side 2    Res =  0.1045E+02
 MRCHDU: Convergence failed at  35  side 2    Res =  0.1345E+02
 MRCHDU: Convergence failed at  36  side 2    Res =  0.1344E+02
 MRCHDU: Convergence failed at  37  side 2    Res =  0.1322E+02
 MRCHDU: Convergence failed at  38  side 2    Res =  0.1150E+02
 MRCHDU: Convergence failed at  39  side 2    Res =  0.1019E+02
 MRCHDU: Convergence failed at  40  side 2    Res =  0.5402E+02
 MRCHDU: Convergence failed at  41  side 2    Res =  0.4445E+02
 MRCHDU: Convergence failed at  42  side 2    Res =  0.3991E+02
 MRCHDU: Convergence failed at  43  side 2    Res =  0.4069E+02
 MRCHDU: Convergence failed at  44  side 2    Res =  0.3744E+02
 MRCHDU: Convergence failed at  45  side 2    Res =  0.3517E+02
 MRCHDU: Convergence failed at  46  side 2    Res =  0.3196E+02
 MRCHDU: Convergence failed at  47  side 2    Res =  0.2903E+02
 MRCHDU: Convergence failed at  48  side 2    Res =  0.2669E+02
 MRCHDU: Convergence failed at  49  side 2    Res =  0.2463E+02
 MRCHDU: Convergence failed at  50  side 2    Res =  0.2172E+02
 MRCHDU: Convergence failed at  51  side 2    Res =  0.2112E+02
 MRCHDU: Convergence failed at  52  side 2    Res =  0.2112E+02
 MRCHDU: Convergence failed at  53  side 2    Res =  0.2526E+02
 MRCHDU: Convergence failed at  54  side 2    Res =  0.2010E+02
 MRCHDU: Convergence failed at  55  side 2    Res =  0.2796E+02
 MRCHDU: Convergence failed at  56  side 2    Res =  0.2680E+02
 MRCHDU: Convergence failed at  57  side 2    Res =  0.2584E+02
 MRCHDU: Convergence failed at  58  side 2    Res =  0.2526E+02
 MRCHDU: Convergence failed at  59  side 2    Res =  0.2518E+02
 MRCHDU: Convergence failed at  60  side 2    Res =  0.2523E+02
 MRCHDU: Convergence failed at  61  side 2    Res =  0.2562E+02
 MRCHDU: Convergence failed at  62  side 2    Res =  0.2675E+02
 MRCHDU: Convergence failed at  63  side 2    Res =  0.2865E+02
 MRCHDU: Convergence failed at  64  side 2    Res =  0.3176E+02
 MRCHDU: Convergence failed at  65  side 2    Res =  0.3804E+02
 MRCHDU: Convergence failed at  66  side 2    Res =  0.4977E+02
 MRCHDU: Convergence failed at  67  side 2    Res =  0.4078E+02
 MRCHDU: Convergence failed at  68  side 2    Res =  0.9457E+02
 MRCHDU: Convergence failed at  69  side 2    Res =  0.2695E+03
 MRCHDU: Convergence failed at  70  side 2    Res =  0.4567E+02
 MRCHDU: Convergence failed at  71  side 2    Res =  0.5540E+02
 MRCHDU: Convergence failed at  72  side 2    Res =  0.7415E+02
 MRCHDU: Convergence failed at  73  side 2    Res =  0.4018E+02
 MRCHDU: Convergence failed at  74  side 2    Res =  0.4495E+02
 MRCHDU: Convergence failed at  75  side 2    Res =  0.4973E+02
 MRCHDU: Convergence failed at  76  side 2    Res =  0.6295E+02
 MRCHDU: Convergence failed at  77  side 2    Res =  0.3009E+02
 MRCHDU: Convergence failed at  78  side 2    Res =  0.3613E+02
 MRCHDU: Convergence failed at  79  side 2    Res =  0.4689E+02
 MRCHDU: Convergence failed at  80  side 2    Res =  0.7248E+02
 MRCHDU: Convergence failed at  81  side 2    Res =  0.1372E+03
 MRCHDU: Convergence failed at  82  side 2    Res =  0.4249E+03
 MRCHDU: Convergence failed at  83  side 2    Res =  0.1267E+03
 MRCHDU: Convergence failed at  84  side 2    Res =  0.6344E+02
 MRCHDU: Convergence failed at  85  side 2    Res =  0.2251E+03
 Side 1  free  transition at x/c =  0.7357   58
 Side 2  free  transition at x/c =  0.1253   28

  36   rms: 0.1180E+01   max: 0.1074E+02   T at   28  2   RLX: 0.096
       a = -1.500      CL = -0.4503
      Cm =  0.0961     CD =  0.03509   =>   CDf =  0.00335    CDp =  0.03173

 MRCHDU: Convergence failed at  37  side 2    Res =  0.2373E+00
 MRCHDU: Convergence failed at  38  side 2    Res =  0.1937E+00
 MRCHDU: Convergence failed at  39  side 2    Res =  0.1350E+00
 MRCHDU: Convergence failed at  40  side 2    Res =  0.5290E-01
 Side 1  free  transition at x/c =  0.7250   58
 Side 2  free  transition at x/c =  0.1077   27

  37   rms: 0.4008E+00   max: -.1176E+01   T at   58  1   RLX: 0.425
       a = -1.500      CL = -0.0559
      Cm = -0.0302     CD =  0.05273   =>   CDf =  0.00393    CDp =  0.04879

 MRCHDU: Convergence failed at  40  side 2    Res =  0.2801E+00
 MRCHDU: Convergence failed at  41  side 2    Res =  0.5581E+00
 MRCHDU: Convergence failed at  42  side 2    Res =  0.7631E-01
 MRCHDU: Convergence failed at  44  side 2    Res =  0.1836E+01
 MRCHDU: Convergence failed at  45  side 2    Res =  0.1450E+01
 MRCHDU: Convergence failed at  46  side 2    Res =  0.9499E+00
 Side 1  free  transition at x/c =  0.7376   59
 Side 2  free  transition at x/c =  0.1175   28

  38   rms: 0.4724E+00   max: -.2238E+01   D at   42  2   RLX: 0.223
       a = -1.500      CL =  0.0336
      Cm = -0.0640     CD =  0.04903   =>   CDf =  0.00461    CDp =  0.04442

 MRCHDU: Convergence failed at  42  side 2    Res =  0.2395E+00
 MRCHDU: Convergence failed at  43  side 2    Res =  0.2293E+00
 MRCHDU: Convergence failed at  44  side 2    Res =  0.2087E+00
 MRCHDU: Convergence failed at  45  side 2    Res =  0.2086E+00
 MRCHDU: Convergence failed at  46  side 2    Res =  0.2338E+00
 MRCHDU: Convergence failed at  67  side 2    Res =  0.3472E+00
 MRCHDU: Convergence failed at  68  side 2    Res =  0.1170E+01
 MRCHDU: Convergence failed at  69  side 2    Res =  0.7283E+00
 MRCHDU: Convergence failed at  70  side 2    Res =  0.7126E+00
 MRCHDU: Convergence failed at  71  side 2    Res =  0.6924E+00
 MRCHDU: Convergence failed at  72  side 2    Res =  0.6728E+00
 MRCHDU: Convergence failed at  73  side 2    Res =  0.6532E+00
 MRCHDU: Convergence failed at  74  side 2    Res =  0.6336E+00
 MRCHDU: Convergence failed at  75  side 2    Res =  0.6139E+00
 MRCHDU: Convergence failed at  76  side 2    Res =  0.5934E+00
 MRCHDU: Convergence failed at  77  side 2    Res =  0.5719E+00
 MRCHDU: Convergence failed at  78  side 2    Res =  0.5490E+00
 MRCHDU: Convergence failed at  79  side 2    Res =  0.5253E+00
 MRCHDU: Convergence failed at  80  side 2    Res =  0.5029E+00
 MRCHDU: Convergence failed at  81  side 2    Res =  0.4840E+00
 MRCHDU: Convergence failed at  82  side 2    Res =  0.4687E+00
 MRCHDU: Convergence failed at  83  side 2    Res =  0.4553E+00
 MRCHDU: Convergence failed at  84  side 2    Res =  0.4429E+00
 MRCHDU: Convergence failed at  85  side 2    Res =  0.4400E+00
 Side 1  free  transition at x/c =  0.7420   59
 Side 2  free  transition at x/c =  0.1198   28

  39   rms: 0.8979E+00   max: -.4233E+01   D at   47  2   RLX: 0.118
       a = -1.500      CL =  0.1612
      Cm = -0.1268     CD =  0.04458   =>   CDf =  0.00484    CDp =  0.03974

 Side 1  free  transition at x/c =  0.7466   59
 Side 2  free  transition at x/c =  0.1242   28

  40   rms: 0.7771E+00   max: -.5124E+01   T at   59  1   RLX: 0.098
       a = -1.500      CL =  0.1962
      Cm = -0.1328     CD =  0.04568   =>   CDf =  0.00557    CDp =  0.04012

 MRCHDU: Convergence failed at  47  side 2    Res =  0.4831E-01
 Side 1  free  transition at x/c =  0.7594   60
 Side 2  free  transition at x/c =  0.1328   29

  41   rms: 0.6174E+00   max: -.2713E+01   D at   38  2   RLX: 0.184
       a = -1.500      CL =  0.1849
[...]
      Cm = -0.0829     CD =  0.05824   =>   CDf =  0.00747    CDp =  0.05077

 Side 1  free  transition at x/c =  0.0319   27
 Side 2 forced transition at x/c =  1.0000   68

   4   rms: 0.1866E-04   max: 0.1727E-03   D at   83  2
       a = 13.000      CL =  1.4907
      Cm = -0.0829     CD =  0.05824   =>   CDf =  0.00747    CDp =  0.05077
 plradd ia,ip,cpol           23           0  1.79555736E-05

 Point added to stored polar  1
 Point written to save file  goe500_Re200k.base.pol                          
 Dump file unspecified or not available
 Calculating wake trajectory ...
 Calculating source influence matrix ...

 Solving BL system ...

 Side 1  free  transition at x/c =  0.0319   27
 Side 2 forced transition at x/c =  1.0000   68

   1   rms: 0.3514E-01   max: 0.1892E+00   T at   27  1   RLX: 0.623
       a = 13.250      CL =  1.4993
      Cm = -0.0823     CD =  0.05954   =>   CDf =  0.00747    CDp =  0.05207

 Side 1  free  transition at x/c =  0.0310   27
 Side 2 forced transition at x/c =  1.0000   68

   2   rms: 0.1311E-01   max: 0.6592E-01   T at   27  1
       a = 13.250      CL =  1.5039
      Cm = -0.0819     CD =  0.06031   =>   CDf =  0.00693    CDp =  0.05338

 Side 1  free  transition at x/c =  0.0304   28
 Side 2 forced transition at x/c =  1.0000   67

   3   rms: 0.6720E-02   max: -.1100E+00   T at    2  1
       a = 13.250      CL =  1.5021
      Cm = -0.0819     CD =  0.06037   =>   CDf =  0.00733    CDp =  0.05305

 Side 1  free  transition at x/c =  0.0305   28
 Side 2 forced transition at x/c =  1.0000   67

   4   rms: 0.1433E-02   max: -.1814E-01   D at    4  1
       a = 13.250      CL =  1.5021
      Cm = -0.0819     CD =  0.06034   =>   CDf =  0.00732    CDp =  0.05302

 Side 1  free  transition at x/c =  0.0305   28
 Side 2 forced transition at x/c =  1.0000   67

   5   rms: 0.7264E-05   max: 0.1373E-03   C at   67  2
       a = 13.250      CL =  1.5021
      Cm = -0.0819     CD =  0.06035   =>   CDf =  0.00732    CDp =  0.05302
 plradd ia,ip,cpol           24           0  1.79555736E-05

 Point added to stored polar  1
 Point written to save file  goe500_Re200k.base.pol                          
 Dump file unspecified or not available
 Calculating wake trajectory ...
 Calculating source influence matrix ...

 Solving BL system ...

 Side 1  free  transition at x/c =  0.0305   28
 Side 2 forced transition at x/c =  1.0000   67

   1   rms: 0.3565E-01   max: 0.1803E+00   T at   28  1   RLX: 0.610
       a = 13.500      CL =  1.5105
      Cm = -0.0813     CD =  0.06171   =>   CDf =  0.00733    CDp =  0.05438

 Side 1  free  transition at x/c =  0.0297   28
 Side 2 forced transition at x/c =  1.0000   67

   2   rms: 0.1174E-01   max: 0.6214E-01   T at   28  1
       a = 13.500      CL =  1.5136
      Cm = -0.0810     CD =  0.06262   =>   CDf =  0.00726    CDp =  0.05536

 Side 1  free  transition at x/c =  0.0293   28
 Side 2 forced transition at x/c =  1.0000   67

   3   rms: 0.1546E-02   max: -.6550E-02   D at   28  1
       a = 13.500      CL =  1.5127
      Cm = -0.0809     CD =  0.06258   =>   CDf =  0.00723    CDp =  0.05535

 Side 1  free  transition at x/c =  0.0293   28
 Side 2 forced transition at x/c =  1.0000   67

   4   rms: 0.2865E-03   max: 0.1083E-02   T at   28  1
       a = 13.500      CL =  1.5130
      Cm = -0.0809     CD =  0.06257   =>   CDf =  0.00723    CDp =  0.05534

 Side 1  free  transition at x/c =  0.0293   28
 Side 2 forced transition at x/c =  1.0000   67

   5   rms: 0.8660E-05   max: -.8774E-04   D at   82  2
       a = 13.500      CL =  1.5130
      Cm = -0.0809     CD =  0.06257   =>   CDf =  0.00723    CDp =  0.05534
 plradd ia,ip,cpol           25           0 -2.33055980E-04

 Point added to stored polar  1
 Point written to save file  goe500_Re200k.base.pol                          
 Dump file unspecified or not available
 Calculating wake trajectory ...
 Calculating source influence matrix ...

 Solving BL system ...

 Side 1  free  transition at x/c =  0.0293   28
 Side 2 forced transition at x/c =  1.0000   67

   1   rms: 0.3744E-01   max: 0.2126E+00   T at   28  1   RLX: 0.598
       a = 13.750      CL =  1.5219
      Cm = -0.0805     CD =  0.06390   =>   CDf =  0.00723    CDp =  0.05667

 Side 1  free  transition at x/c =  0.0286   28
 Side 2 forced transition at x/c =  1.0000   67

   2   rms: 0.1684E-01   max: 0.1169E+00   T at   28  1
       a = 13.750      CL =  1.5305
      Cm = -0.0803     CD =  0.06470   =>   CDf =  0.00720    CDp =  0.05750

 Side 1  free  transition at x/c =  0.0280   28
 Side 2 forced transition at x/c =  1.0000   67

   3   rms: 0.2695E-01   max: 0.1387E+00   T at   28  1
       a = 13.750      CL =  1.5469
      Cm = -0.0805     CD =  0.06468   =>   CDf =  0.00721    CDp =  0.05748

 Side 1  free  transition at x/c =  0.0274   27
 Side 2 forced transition at x/c =  1.0000   67

   4   rms: 0.4375E-02   max: 0.2322E-01   D at   28  1
       a = 13.750      CL =  1.5457
      Cm = -0.0805     CD =  0.06546   =>   CDf =  0.00720    CDp =  0.05826

 Side 1  free  transition at x/c =  0.0273   27
 Side 2 forced transition at x/c =  1.0000   67

   5   rms: 0.1730E-03   max: 0.9270E-03   D at   77  1
       a = 13.750      CL =  1.5456
      Cm = -0.0805     CD =  0.06551   =>   CDf =  0.00722    CDp =  0.05829

 Side 1  free  transition at x/c =  0.0273   27
 Side 2 forced transition at x/c =  1.0000   67

   6   rms: 0.1270E-04   max: -.1442E-03   C at   67  2
       a = 13.750      CL =  1.5456
      Cm = -0.0805     CD =  0.06551   =>   CDf =  0.00722    CDp =  0.05829
 plradd ia,ip,cpol           26           0 -2.33055980E-04

 Point added to stored polar  1
 Point written to save file  goe500_Re200k.base.pol                          
 Dump file unspecified or not available
 Calculating wake trajectory ...
 Calculating source influence matrix ...

 Solving BL system ...

 Side 1  free  transition at x/c =  0.0273   27
 Side 2 forced transition at x/c =  1.0000   67

   1   rms: 0.2954E-01   max: 0.1393E+00   T at   27  1   RLX: 0.587
       a = 14.000      CL =  1.5418
      Cm = -0.0797     CD =  0.06734   =>   CDf =  0.00722    CDp =  0.06012

 Side 1  free  transition at x/c =  0.0271   27
 Side 2 forced transition at x/c =  1.0000   67

   2   rms: 0.1189E-01   max: 0.5918E-01   T at   27  1
       a = 14.000      CL =  1.5399
      Cm = -0.0792     CD =  0.06854   =>   CDf =  0.00706    CDp =  0.06149

 Side 1  free  transition at x/c =  0.0269   27
 Side 2 forced transition at x/c =  1.0000   67

   3   rms: 0.7795E-03   max: 0.9500E-02   D at   83  2
       a = 14.000      CL =  1.5394
      Cm = -0.0792     CD =  0.06843   =>   CDf =  0.00694    CDp =  0.06149

 Side 1  free  transition at x/c =  0.0269   27
 Side 2 forced transition at x/c =  1.0000   67

   4   rms: 0.4949E-04   max: 0.2337E-03   T at   27  1
       a = 14.000      CL =  1.5395
      Cm = -0.0792     CD =  0.06843   =>   CDf =  0.00694    CDp =  0.06149
 plradd ia,ip,cpol           27           0 -2.33055980E-04

 Point added to stored polar  1
 Point written to save file  goe500_Re200k.base.pol                          
 Dump file unspecified or not available
 Calculating wake trajectory ...
 Calculating source influence matrix ...

 Solving BL system ...

 Side 1  free  transition at x/c =  0.0269   27
 Side 2 forced transition at x/c =  1.0000   67

   1   rms: 0.2967E-01   max: 0.1429E+00   T at   27  1   RLX: 0.566
       a = 14.250      CL =  1.5375
      Cm = -0.0786     CD =  0.07038   =>   CDf =  0.00694    CDp =  0.06344

 Side 1  free  transition at x/c =  0.0266   27
 Side 2 forced transition at x/c =  1.0000   67

   2   rms: 0.1291E-01   max: 0.5636E-01   T at   27  1
       a = 14.250      CL =  1.5357
      Cm = -0.0782     CD =  0.07181   =>   CDf =  0.00678    CDp =  0.06503

 Side 1  free  transition at x/c =  0.0263   27
 Side 2 forced transition at x/c =  1.0000   67

   3   rms: 0.1185E-02   max: 0.6523E-02   D at   83  2
       a = 14.250      CL =  1.5348
      Cm = -0.0782     CD =  0.07168   =>   CDf =  0.00666    CDp =  0.06502

 Side 1  free  transition at x/c =  0.0263   27
 Side 2 forced transition at x/c =  1.0000   67

   4   rms: 0.9592E-04   max: 0.4138E-03   T at   27  1
       a = 14.250      CL =  1.5349
      Cm = -0.0782     CD =  0.07166   =>   CDf =  0.00666    CDp =  0.06501
 plradd ia,ip,cpol           28           0 -2.33055980E-04

 Point added to stored polar  1
 Point written to save file  goe500_Re200k.base.pol                          
 Dump file unspecified or not available
 Calculating wake trajectory ...
 Calculating source influence matrix ...

 Solving BL system ...

 Side 1  free  transition at x/c =  0.0263   27
 Side 2 forced transition at x/c =  1.0000   67

   1   rms: 0.3068E-01   max: 0.1325E+00   T at   27  1   RLX: 0.547
       a = 14.500      CL =  1.5341
      Cm = -0.0778     CD =  0.07372   =>   CDf =  0.00666    CDp =  0.06706

 Side 1  free  transition at x/c =  0.0259   27
 Side 2 forced transition at x/c =  1.0000   67

   2   rms: 0.1417E-01   max: 0.4734E-01   T at   27  1
       a = 14.500      CL =  1.5323
      Cm = -0.0775     CD =  0.07540   =>   CDf =  0.00650    CDp =  0.06889

 Side 1  free  transition at x/c =  0.0257   27
 Side 2 forced transition at x/c =  1.0000   67

   3   rms: 0.1797E-02   max: 0.9469E-02   D at   84  2
       a = 14.500      CL =  1.5308
      Cm = -0.0774     CD =  0.07526   =>   CDf =  0.00638    CDp =  0.06888

 Side 1  free  transition at x/c =  0.0257   27
 Side 2 forced transition at x/c =  1.0000   67

   4   rms: 0.9607E-04   max: -.4090E-03   D at   74  1
       a = 14.500      CL =  1.5309
      Cm = -0.0774     CD =  0.07524   =>   CDf =  0.00638    CDp =  0.06885
 plradd ia,ip,cpol           29           0 -2.33055980E-04

 Point added to stored polar  1
 Point written to save file  goe500_Re200k.base.pol                          
 Dump file unspecified or not available
 Calculating wake trajectory ...
 Calculating source influence matrix ...

 Solving BL system ...

 Side 1  free  transition at x/c =  0.0257   27
 Side 2 forced transition at x/c =  1.0000   67

   1   rms: 0.3187E-01   max: 0.1073E+00   T at   27  1   RLX: 0.529
       a = 14.750      CL =  1.5305
      Cm = -0.0772     CD =  0.07742   =>   CDf =  0.00639    CDp =  0.07103

 Side 1  free  transition at x/c =  0.0254   27
 Side 2 forced transition at x/c =  1.0000   67

   2   rms: 0.1620E-01   max: 0.4829E-01   D at   72  1
       a = 14.750      CL =  1.5283
      Cm = -0.0769     CD =  0.07939   =>   CDf =  0.00624    CDp =  0.07315

 Side 1  free  transition at x/c =  0.0252   27
 Side 2 forced transition at x/c =  1.0000   67

   3   rms: 0.2710E-02   max: 0.1221E-01   D at   84  2
       a = 14.750      CL =  1.5261
      Cm = -0.0769     CD =  0.07924   =>   CDf =  0.00611    CDp =  0.07314

 Side 1  free  transition at x/c =  0.0252   27
 Side 2 forced transition at x/c =  1.0000   67

   4   rms: 0.1183E-03   max: 0.1591E-02   D at   84  2
       a = 14.750      CL =  1.5262
      Cm = -0.0769     CD =  0.07920   =>   CDf =  0.00611    CDp =  0.07309

 Side 1  free  transition at x/c =  0.0252   27
 Side 2 forced transition at x/c =  1.0000   67

   5   rms: 0.6472E-05   max: 0.9204E-04   C at   67  2
       a = 14.750      CL =  1.5262
      Cm = -0.0769     CD =  0.07920   =>   CDf =  0.00611    CDp =  0.07309
 plradd ia,ip,cpol           30           0 -2.33055980E-04

 Point added to stored polar  1
 Point written to save file  goe500_Re200k.base.pol                          
 Dump file unspecified or not available
 Calculating wake trajectory ...
 Calculating source influence matrix ...

 Solving BL system ...

 Side 1  free  transition at x/c =  0.0252   27
 Side 2 forced transition at x/c =  1.0000   67

   1   rms: 0.3350E-01   max: 0.1042E+00   D at   65  1   RLX: 0.511
       a = 15.000      CL =  1.5252
      Cm = -0.0767     CD =  0.08159   =>   CDf =  0.00611    CDp =  0.07548

 Side 1  free  transition at x/c =  0.0250   27
 Side 2 forced transition at x/c =  1.0000   67

   2   rms: 0.1707E-01   max: 0.5511E-01   D at   71  1
       a = 15.000      CL =  1.5211
      Cm = -0.0766     CD =  0.08386   =>   CDf =  0.00597    CDp =  0.07790

 Side 1  free  transition at x/c =  0.0249   27
 Side 2 forced transition at x/c =  1.0000   67

   3   rms: 0.2657E-02   max: 0.1176E-01   D at   84  2
       a = 15.000      CL =  1.5191
      Cm = -0.0766     CD =  0.08361   =>   CDf =  0.00583    CDp =  0.07777

 Side 1  free  transition at x/c =  0.0249   27
 Side 2 forced transition at x/c =  1.0000   67

   4   rms: 0.1544E-03   max: -.6571E-03   D at   72  1
       a = 15.000      CL =  1.5192
      Cm = -0.0766     CD =  0.08355   =>   CDf =  0.00584    CDp =  0.07772

 Side 1  free  transition at x/c =  0.0249   27
 Side 2 forced transition at x/c =  1.0000   67

   5   rms: 0.1116E-04   max: 0.1568E-03   C at   67  2
       a = 15.000      CL =  1.5192
      Cm = -0.0766     CD =  0.08356   =>   CDf =  0.00584    CDp =  0.07772
 plradd ia,ip,cpol           31           0 -2.33055980E-04

 Point added to stored polar  1
 Point written to save file  goe500_Re200k.base.pol                          
 Dump file unspecified or not available
 Calculating wake trajectory ...
 Calculating source influence matrix ...

 Solving BL system ...

 Side 1  free  transition at x/c =  0.0249   27
 Side 2 forced transition at x/c =  1.0000   67

   1   rms: 0.3406E-01   max: 0.1125E+00   D at   64  1   RLX: 0.492
       a = 15.250      CL =  1.5169
      Cm = -0.0766     CD =  0.08615   =>   CDf =  0.00584    CDp =  0.08031

 Side 1  free  transition at x/c =  0.0247   27
 Side 2 forced transition at x/c =  1.0000   67

   2   rms: 0.1826E-01   max: 0.6022E-01   D at   70  1
       a = 15.250      CL =  1.5117
      Cm = -0.0766     CD =  0.08874   =>   CDf =  0.00570    CDp =  0.08304

 Side 1  free  transition at x/c =  0.0246   27
 Side 2 forced transition at x/c =  1.0000   67

   3   rms: 0.3010E-02   max: 0.1516E-01   D at   70  1
       a = 15.250      CL =  1.5095
      Cm = -0.0767     CD =  0.08840   =>   CDf =  0.00556    CDp =  0.08284

 Side 1  free  transition at x/c =  0.0247   27
 Side 2 forced transition at x/c =  1.0000   67

   4   rms: 0.1696E-03   max: -.7157E-03   D at   71  1
       a = 15.250      CL =  1.5096
      Cm = -0.0766     CD =  0.08832   =>   CDf =  0.00556    CDp =  0.08276

 Side 1  free  transition at x/c =  0.0247   27
 Side 2 forced transition at x/c =  1.0000   67

   5   rms: 0.9955E-05   max: 0.9405E-04   C at   67  2
       a = 15.250      CL =  1.5096
      Cm = -0.0766     CD =  0.08833   =>   CDf =  0.00556    CDp =  0.08276
 plradd ia,ip,cpol           32           0 -2.33055980E-04

 Point added to stored polar  1
 Point written to save file  goe500_Re200k.base.pol                          
 Dump file unspecified or not available
 Calculating wake trajectory ...
 Calculating source influence matrix ...

 Solving BL system ...

 Side 1  free  transition at x/c =  0.0247   27
 Side 2 forced transition at x/c =  1.0000   67

   1   rms: 0.3463E-01   max: 0.1206E+00   D at   63  1   RLX: 0.474
       a = 15.500      CL =  1.5061
      Cm = -0.0768     CD =  0.09106   =>   CDf =  0.00557    CDp =  0.08549

 Side 1  free  transition at x/c =  0.0246   27
 Side 2 forced transition at x/c =  1.0000   67

   2   rms: 0.1949E-01   max: 0.6754E-01   D at   69  1
       a = 15.500      CL =  1.4996
      Cm = -0.0772     CD =  0.09401   =>   CDf =  0.00543    CDp =  0.08857

 Side 1  free  transition at x/c =  0.0245   27
 Side 2 forced transition at x/c =  1.0000   67

   3   rms: 0.2932E-02   max: 0.1404E-01   D at   85  2
       a = 15.500      CL =  1.4975
      Cm = -0.0772     CD =  0.09358   =>   CDf =  0.00529    CDp =  0.08829

 Side 1  free  transition at x/c =  0.0245   27
 Side 2 forced transition at x/c =  1.0000   67

   4   rms: 0.1621E-03   max: 0.8268E-03   D at   85  2
       a = 15.500      CL =  1.4976
      Cm = -0.0772     CD =  0.09350   =>   CDf =  0.00529    CDp =  0.08821

 Side 1  free  transition at x/c =  0.0245   27
 Side 2 forced transition at x/c =  1.0000   67

   5   rms: 0.1099E-04   max: 0.1826E-03   C at   67  2
       a = 15.500      CL =  1.4976
      Cm = -0.0772     CD =  0.09351   =>   CDf =  0.00529    CDp =  0.08822
 plradd ia,ip,cpol           33           0 -2.33055980E-04

 Point added to stored polar  1
 Point written to save file  goe500_Re200k.base.pol                          
 Dump file unspecified or not available
 Calculating wake trajectory ...
 Calculating source influence matrix ...

 Solving BL system ...

 Side 1  free  transition at x/c =  0.0245   27
 Side 2 forced transition at x/c =  1.0000   67

   1   rms: 0.3605E-01   max: 0.1299E+00   D at   62  1   RLX: 0.456
       a = 15.750      CL =  1.4930
      Cm = -0.0776     CD =  0.09646   =>   CDf =  0.00530    CDp =  0.09117

 Side 1  free  transition at x/c =  0.0244   27
 Side 2 forced transition at x/c =  1.0000   67

   2   rms: 0.2123E-01   max: 0.7379E-01   D at   68  1
       a = 15.750      CL =  1.4851
      Cm = -0.0782     CD =  0.09987   =>   CDf =  0.00517    CDp =  0.09470

 Side 1  free  transition at x/c =  0.0244   27
 Side 2 forced transition at x/c =  1.0000   67

   3   rms: 0.3218E-02   max: 0.1862E-01   D at   85  2
       a = 15.750      CL =  1.4829
      Cm = -0.0782     CD =  0.09928   =>   CDf =  0.00502    CDp =  0.09426

 Side 1  free  transition at x/c =  0.0244   27
 Side 2 forced transition at x/c =  1.0000   67

   4   rms: 0.1756E-03   max: 0.1885E-02   D at   85  2
       a = 15.750      CL =  1.4830
      Cm = -0.0782     CD =  0.09918   =>   CDf =  0.00502    CDp =  0.09416

 Side 1  free  transition at x/c =  0.0244   27
 Side 2 forced transition at x/c =  1.0000   67

   5   rms: 0.8995E-05   max: 0.1080E-03   C at   67  2
       a = 15.750      CL =  1.4830
      Cm = -0.0782     CD =  0.09918   =>   CDf =  0.00502    CDp =  0.09416
 plradd ia,ip,cpol           34           0 -2.33055980E-04

 Point added to stored polar  1
 Point written to save file  goe500_Re200k.base.pol                          
 Dump file unspecified or not available
 Calculating wake trajectory ...
 Calculating source influence matrix ...

 Solving BL system ...

 Side 1  free  transition at x/c =  0.0244   27
 Side 2 forced transition at x/c =  1.0000   67

   1   rms: 0.3775E-01   max: 0.1393E+00   D at   61  1   RLX: 0.438
       a = 16.000      CL =  1.4776
      Cm = -0.0789     CD =  0.10232   =>   CDf =  0.00503    CDp =  0.09729

 Side 1  free  transition at x/c =  0.0244   27
 Side 2 forced transition at x/c =  1.0000   67

   2   rms: 0.2292E-01   max: 0.8144E-01   D at   66  1
       a = 16.000      CL =  1.4685
      Cm = -0.0799     CD =  0.10613   =>   CDf =  0.00490    CDp =  0.10123

 Side 1  free  transition at x/c =  0.0244   27
 Side 2 forced transition at x/c =  1.0000   67

   3   rms: 0.3283E-02   max: 0.1619E-01   D at   85  2
       a = 16.000      CL =  1.4663
      Cm = -0.0799     CD =  0.10545   =>   CDf =  0.00475    CDp =  0.10070

 Side 1  free  transition at x/c =  0.0244   27
 Side 2 forced transition at x/c =  1.0000   67

   4   rms: 0.1638E-03   max: 0.8200E-03   D at   84  2
       a = 16.000      CL =  1.4664
      Cm = -0.0799     CD =  0.10535   =>   CDf =  0.00475    CDp =  0.10059

 Side 1  free  transition at x/c =  0.0244   27
 Side 2 forced transition at x/c =  1.0000   67

   5   rms: 0.9101E-05   max: 0.8195E-04   C at   67  2
       a = 16.000      CL =  1.4664
      Cm = -0.0799     CD =  0.10535   =>   CDf =  0.00475    CDp =  0.10060
 plradd ia,ip,cpol           35           0 -2.33055980E-04

 Point added to stored polar  1
 Point written to save file  goe500_Re200k.base.pol                          
 Dump file unspecified or not available

.OPERva   c>  
 Polar accumulation disabled

.OPERv   c>  
 XFOIL   c>  
 XFOIL   c>  