
 ===================================================
  XFOIL Version 6.99
  Copyright (C) 2000   Mark Drela, Harold Youngren

  This software comes with ABSOLUTELY NO WARRANTY,
    subject to the GNU General Public License.

  Caveat computor
 ===================================================

 File  xfoil.def  not found

   QUIT    Exit program

  .OPER    Direct operating point(s)
  .MDES    Complex mapping design routine
  .QDES    Surface speed design routine
  .GDES    Geometry design routine

   SAVE f  Write airfoil to labeled coordinate file
   PSAV f  Write airfoil to plain coordinate file
   ISAV f  Write airfoil to ISES coordinate file
   MSAV f  Write airfoil to MSES coordinate file
   REVE    Reverse written-airfoil node ordering

   LOAD f  Read buffer airfoil from coordinate file
   NACA i  Set NACA 4,5-digit airfoil and buffer airfoil
   INTE    Set buffer airfoil by interpolating two airfoils
   NORM    Buffer airfoil normalization toggle
   XYCM rr Change CM reference location, currently  0.25000 0.00000

   BEND    Display structural properties of current airfoil

   PCOP    Set current-airfoil panel nodes directly from buffer airfoil points
   PANE    Set current-airfoil panel nodes ( 160 ) based on curvature
  .PPAR    Show/change paneling

  .PLOP    Plotting options

   WDEF f  Write  current-settings file
   RDEF f  Reread current-settings file
   NAME s  Specify new airfoil name
   NINC    Increment name version number

   Z       Zoom    | (available in all menus)
   U       Unzoom  | 

 XFOIL   c>  
 Labeled airfoil file.  Name:  GOE 547 AIRFOIL                                 

 Number of input coordinate points:  33
 Counterclockwise ordering
 Max thickness =     0.105139  at x =   0.301
 Max camber    =     0.039930  at x =   0.500

  LE  x,y  =  -0.00001   0.00041  |   Chord =   1.00001
  TE  x,y  =   1.00000   0.00000  |

 Current airfoil nodes set from buffer airfoil nodes (  33 )

 WARNING: Poor input coordinate distribution
          Excessive panel angle   78.8  at i =  17
          Repaneling with PANE and/or PPAR suggested
           (doing GDES,CADD before repaneling _may_
            improve excessively coarse LE spacing

 XFOIL   c>  
 XFOIL   c>  
 Sharp trailing edge

 Paneling parameters used...
   Number of panel nodes       160
   Panel bunching parameter    1.000
   TE/LE panel density ratio   0.150
   Refined-area/LE panel density ratio    0.200
   Top    side refined area x/c limits  1.000 1.000
   Bottom side refined area x/c limits  1.000 1.000

 XFOIL   c>  
.OPERi   c>  
 Xtr/c     =  1.0000    top    side
 Xtr/c     =  1.0000    bottom side
 Ncrit     =    9.00   ( 0.070 % turb. level )
 Vacc      =  0.0100

 Klag  =  5.6000     Uxwt  =    1.00
 A     =  6.7000     B     =  0.7500       KCt = 0.01485
 CtiniK=  1.8000     CtiniX=  3.3000

..VPAR   c>  
..VPAR   c>  
.OPERi   c>  
 M  =    0.0000
 Re =    600000

.OPERv   c>  
.OPERv   c>  
.OPERv   c>  
 Polar  1 newly created for accumulation
 Airfoil archived with polar: GOE 547 AIRFOIL                                 

Enter  polar save filename  OR  <return> for no file   s>  
 New polar save file available

Enter  polar dump filename  OR  <return> for no file   s>  
 Polar dump file will NOT be written

 Polar accumulation enabled

.OPERva   c>   Calculating unit vorticity distributions ...
 Calculating wake trajectory ...
 Calculating source influence matrix ...

 Solving BL system ...

 Initializing BL ...
    side            1  ...
 MRCHUE: Inverse mode at  57     Hk =   4.169
 MRCHUE: Inverse mode at  58     Hk =   4.799
 MRCHUE: Inverse mode at  59     Hk =   5.421
 MRCHUE: Inverse mode at  60     Hk =   6.037
 MRCHUE: Inverse mode at  61     Hk =   6.648
 MRCHUE: Inverse mode at  62     Hk =   7.255
 MRCHUE: Inverse mode at  63     Hk =   7.858
 MRCHUE: Inverse mode at  64     Hk =   8.458
 MRCHUE: Inverse mode at  65     Hk =   5.643
 MRCHUE: Inverse mode at  66     Hk =   3.941
 MRCHUE: Inverse mode at  67     Hk =   2.767
 MRCHUE: Inverse mode at  76     Hk =   2.500
    side            2  ...
 MRCHUE: Inverse mode at  19     Hk =   5.536
 MRCHUE: Convergence failed at  20  side 2    Res =  0.1096E+04
 MRCHUE: Inverse mode at  21     Hk =   7.691
 MRCHUE: Inverse mode at  22     Hk =   3.097
 MRCHUE: Inverse mode at  86     Hk =   2.500

 MRCHDU: Convergence failed at  22  side 2    Res =  0.6891E+01
 MRCHDU: Convergence failed at  23  side 2    Res =  0.4716E+01
 MRCHDU: Convergence failed at  24  side 2    Res =  0.7052E+01
 MRCHDU: Convergence failed at  25  side 2    Res =  0.7284E+01
 MRCHDU: Convergence failed at  26  side 2    Res =  0.8192E+01
 MRCHDU: Convergence failed at  27  side 2    Res =  0.5954E+01
 MRCHDU: Convergence failed at  28  side 2    Res =  0.1302E+02
 MRCHDU: Convergence failed at  29  side 2    Res =  0.2039E+02
 MRCHDU: Convergence failed at  30  side 2    Res =  0.5711E+02
 MRCHDU: Convergence failed at  31  side 2    Res =  0.1270E+03
 MRCHDU: Convergence failed at  32  side 2    Res =  0.3816E+02
 MRCHDU: Convergence failed at  33  side 2    Res =  0.2511E+02
 MRCHDU: Convergence failed at  34  side 2    Res =  0.1263E+02
 MRCHDU: Convergence failed at  35  side 2    Res =  0.1479E+02
 MRCHDU: Convergence failed at  36  side 2    Res =  0.1586E+02
 MRCHDU: Convergence failed at  37  side 2    Res =  0.1702E+02
 MRCHDU: Convergence failed at  38  side 2    Res =  0.1765E+02
 MRCHDU: Convergence failed at  39  side 2    Res =  0.1810E+02
 MRCHDU: Convergence failed at  40  side 2    Res =  0.1871E+02
 MRCHDU: Convergence failed at  41  side 2    Res =  0.2634E+02
 MRCHDU: Convergence failed at  42  side 2    Res =  0.2823E+02
 MRCHDU: Convergence failed at  43  side 2    Res =  0.3010E+02
 MRCHDU: Convergence failed at  44  side 2    Res =  0.3218E+02
 MRCHDU: Convergence failed at  45  side 2    Res =  0.3430E+02
 MRCHDU: Convergence failed at  46  side 2    Res =  0.3673E+02
 MRCHDU: Convergence failed at  47  side 2    Res =  0.3942E+02
 MRCHDU: Convergence failed at  48  side 2    Res =  0.4232E+02
 MRCHDU: Convergence failed at  49  side 2    Res =  0.2793E+02
 MRCHDU: Convergence failed at  50  side 2    Res =  0.2986E+02
 MRCHDU: Convergence failed at  51  side 2    Res =  0.3135E+02
 MRCHDU: Convergence failed at  52  side 2    Res =  0.3345E+02
 MRCHDU: Convergence failed at  53  side 2    Res =  0.3538E+02
 MRCHDU: Convergence failed at  54  side 2    Res =  0.3729E+02
 MRCHDU: Convergence failed at  55  side 2    Res =  0.3922E+02
 MRCHDU: Convergence failed at  56  side 2    Res =  0.4102E+02
 MRCHDU: Convergence failed at  57  side 2    Res =  0.4313E+02
 MRCHDU: Convergence failed at  58  side 2    Res =  0.4482E+02
 MRCHDU: Convergence failed at  59  side 2    Res =  0.4719E+02
 MRCHDU: Convergence failed at  60  side 2    Res =  0.4915E+02
 MRCHDU: Convergence failed at  61  side 2    Res =  0.5137E+02
 MRCHDU: Convergence failed at  62  side 2    Res =  0.5293E+02
 MRCHDU: Convergence failed at  63  side 2    Res =  0.5472E+02
 MRCHDU: Convergence failed at  64  side 2    Res =  0.5572E+02
 MRCHDU: Convergence failed at  65  side 2    Res =  0.5563E+02
 MRCHDU: Convergence failed at  66  side 2    Res =  0.8567E+02
 MRCHDU: Convergence failed at  67  side 2    Res =  0.1065E+03
 MRCHDU: Convergence failed at  68  side 2    Res =  0.3270E+02
 MRCHDU: Convergence failed at  69  side 2    Res =  0.3160E+02
 MRCHDU: Convergence failed at  70  side 2    Res =  0.3055E+02
 MRCHDU: Convergence failed at  71  side 2    Res =  0.2982E+02
 MRCHDU: Convergence failed at  72  side 2    Res =  0.2965E+02
 MRCHDU: Convergence failed at  73  side 2    Res =  0.2989E+02
 MRCHDU: Convergence failed at  74  side 2    Res =  0.3041E+02
 MRCHDU: Convergence failed at  75  side 2    Res =  0.3157E+02
 MRCHDU: Convergence failed at  76  side 2    Res =  0.3273E+02
 MRCHDU: Convergence failed at  77  side 2    Res =  0.3497E+02
 MRCHDU: Convergence failed at  78  side 2    Res =  0.3792E+02
 MRCHDU: Convergence failed at  79  side 2    Res =  0.4317E+02
 MRCHDU: Convergence failed at  80  side 2    Res =  0.4702E+02
 MRCHDU: Convergence failed at  81  side 2    Res =  0.6802E+02
 MRCHDU: Convergence failed at  82  side 2    Res =  0.1083E+03
 MRCHDU: Convergence failed at  83  side 2    Res =  0.1991E+03
 MRCHDU: Convergence failed at  84  side 2    Res =  0.9785E+02
 MRCHDU: Convergence failed at  85  side 2    Res =  0.4070E+02
 MRCHDU: Convergence failed at  86  side 2    Res =  0.6586E+02
 Side 1  free  transition at x/c =  0.8485   65
 Side 2  free  transition at x/c =  0.0491   22

   1   rms: 0.9741E+00   max: 0.1037E+01   D at   88  2   RLX: 0.403
       a = -4.000      CL = -0.5852
      Cm =  0.0913     CD =  0.00487   =>   CDf =  0.00259    CDp =  0.00229

 Side 1  free  transition at x/c =  0.8573   66
 Side 2  free  transition at x/c =  0.0466   21

   2   rms: 0.3996E+00   max: -.7240E+00   D at   86  2   RLX: 0.522
       a = -4.000      CL = -0.1484
      Cm = -0.0601     CD =  0.01227   =>   CDf =  0.00660    CDp =  0.00567

 MRCHDU: Convergence failed at  68  side 1    Res =  0.5731E+01
 Side 1  free  transition at x/c =  0.8748   67
 Side 2  free  transition at x/c =  0.0440   21

   3   rms: 0.5113E+00   max: -.3143E+01   D at   46  2   RLX: 0.159
       a = -4.000      CL = -0.1167
      Cm = -0.0743     CD =  0.00994   =>   CDf =  0.00599    CDp =  0.00395

 MRCHDU: Convergence failed at  44  side 2    Res =  0.9964E+00
 Side 1  free  transition at x/c =  0.8733   67
 Side 2  free  transition at x/c =  0.0433   21

   4   rms: 0.7022E+00   max: -.3821E+01   D at   56  2   RLX: 0.119
       a = -4.000      CL = -0.1074
      Cm = -0.0783     CD =  0.00990   =>   CDf =  0.00626    CDp =  0.00364

 MRCHDU: Convergence failed at  51  side 2    Res =  0.5011E+01
 Side 1  free  transition at x/c =  0.8736   67
 Side 2  free  transition at x/c =  0.0431   21
 idif Ue xi dudx           1  0.15528372      2.27355957E-03   68.299828    
 Uenew xinew           2  3.68831423E-03  5.40018082E-05

   5   rms: 0.3549E+00   max: -.1423E+01   D at   65  2   RLX: 0.351
       a = -4.000      CL = -0.0494
      Cm = -0.0958     CD =  0.00946   =>   CDf =  0.00654    CDp =  0.00292

 Side 1  free  transition at x/c =  0.8731   66
 Side 2  free  transition at x/c =  0.0428   21

   6   rms: 0.1383E+01   max: 0.2085E+02   D at    2  2   RLX: 0.050
       a = -4.000      CL = -0.0743
      Cm = -0.0895     CD =  0.01018   =>   CDf =  0.00635    CDp =  0.00384

 Side 1  free  transition at x/c =  0.8700   66
 Side 2  free  transition at x/c =  0.0426   21

   7   rms: 0.5031E+00   max: -.2274E+01   D at   82  2   RLX: 0.220
       a = -4.000      CL = -0.1209
      Cm = -0.0817     CD =  0.01004   =>   CDf =  0.00637    CDp =  0.00367

 MRCHDU: Convergence failed at  73  side 2    Res =  0.4445E+00
 Side 1  free  transition at x/c =  0.8625   65
 Side 2  free  transition at x/c =  0.0420   21

   8   rms: 0.2096E+00   max: -.3552E+00   D at   85  2   RLX: 0.614
       a = -4.000      CL =  0.0101
      Cm = -0.1083     CD =  0.01001   =>   CDf =  0.00661    CDp =  0.00340

 MRCHDU: Convergence failed at  67  side 1    Res =  0.2499E+01
 Side 1  free  transition at x/c =  0.8743   66
 Side 2  free  transition at x/c =  0.0425   21

   9   rms: 0.9906E-01   max: -.1378E+00   D at   85  2   RLX: 0.965
       a = -4.000      CL =  0.0857
      Cm = -0.1256     CD =  0.01001   =>   CDf =  0.00630    CDp =  0.00370

 Side 1  free  transition at x/c =  0.8729   67
 Side 2  free  transition at x/c =  0.0427   20

  10   rms: 0.1476E-01   max: -.1491E+00   D at   68  2
       a = -4.000      CL =  0.0803
      Cm = -0.1242     CD =  0.01001   =>   CDf =  0.00611    CDp =  0.00390

 Side 1  free  transition at x/c =  0.8734   67
 Side 2  free  transition at x/c =  0.0426   20

  11   rms: 0.1157E-02   max: 0.1125E-01   D at    4  1
       a = -4.000      CL =  0.0803
      Cm = -0.1242     CD =  0.01001   =>   CDf =  0.00610    CDp =  0.00391

 Side 1  free  transition at x/c =  0.8733   67
 Side 2  free  transition at x/c =  0.0426   20

  12   rms: 0.3159E-05   max: -.3795E-04   D at   68  2
       a = -4.000      CL =  0.0803
      Cm = -0.1242     CD =  0.01001   =>   CDf =  0.00610    CDp =  0.00391
 plradd ia,ip,cpol            1           0  1.07792653E-02

 Point added to stored polar  1
 Point written to save file  goe547_Re600k.base.pol                          
 Dump file unspecified or not available
 Calculating wake trajectory ...
 Calculating source influence matrix ...

 Solving BL system ...

 Side 1  free  transition at x/c =  0.8733   67
 Side 2  free  transition at x/c =  0.0426   20

   1   rms: 0.8723E-01   max: -.1860E+00   T at   20  2
       a = -3.500      CL =  0.1292
      Cm = -0.1227     CD =  0.00949   =>   CDf =  0.00611    CDp =  0.00338

 Side 1  free  transition at x/c =  0.8601   66
 Side 2  free  transition at x/c =  0.0444   21

   2   rms: 0.1678E-01   max: -.1285E+00   D at   20  2
       a = -3.500      CL =  0.1332
      Cm = -0.1236     CD =  0.00930   =>   CDf =  0.00625    CDp =  0.00305

 Side 1  free  transition at x/c =  0.8623   66
 Side 2  free  transition at x/c =  0.0448   21

   3   rms: 0.6262E-03   max: 0.5190E-02   D at   67  1
       a = -3.500      CL =  0.1328
      Cm = -0.1235     CD =  0.00931   =>   CDf =  0.00625    CDp =  0.00306

 Side 1  free  transition at x/c =  0.8620   66
 Side 2  free  transition at x/c =  0.0448   21

   4   rms: 0.3752E-05   max: -.4765E-04   D at   67  1
       a = -3.500      CL =  0.1328
      Cm = -0.1235     CD =  0.00931   =>   CDf =  0.00625    CDp =  0.00306
 plradd ia,ip,cpol            2           0  1.42811118E-02

 Point added to stored polar  1
 Point written to save file  goe547_Re600k.base.pol                          
 Dump file unspecified or not available
 Calculating wake trajectory ...
 Calculating source influence matrix ...

 Solving BL system ...

 Side 1  free  transition at x/c =  0.8620   66
 Side 2  free  transition at x/c =  0.0448   21

   1   rms: 0.9168E-01   max: -.2178E+00   T at   21  2
       a = -3.000      CL =  0.1778
      Cm = -0.1212     CD =  0.00879   =>   CDf =  0.00633    CDp =  0.00247

 Side 1  free  transition at x/c =  0.8461   66
 Side 2  free  transition at x/c =  0.0484   20

   2   rms: 0.1908E-01   max: -.2634E+00   D at   67  1
       a = -3.000      CL =  0.1868
      Cm = -0.1231     CD =  0.00893   =>   CDf =  0.00636    CDp =  0.00257

 Side 1  free  transition at x/c =  0.8510   67
 Side 2  free  transition at x/c =  0.0482   20

   3   rms: 0.5509E-02   max: 0.9209E-01   D at   67  1
       a = -3.000      CL =  0.1847
      Cm = -0.1226     CD =  0.00891   =>   CDf =  0.00631    CDp =  0.00260

 Side 1  free  transition at x/c =  0.8497   67
 Side 2  free  transition at x/c =  0.0481   20

   4   rms: 0.4056E-03   max: 0.4336E-02   C at   67  1
       a = -3.000      CL =  0.1846
      Cm = -0.1226     CD =  0.00891   =>   CDf =  0.00631    CDp =  0.00259

 Side 1  free  transition at x/c =  0.8496   67
 Side 2  free  transition at x/c =  0.0481   20

   5   rms: 0.2893E-05   max: -.2645E-04   D at   68  1
       a = -3.000      CL =  0.1846
      Cm = -0.1226     CD =  0.00891   =>   CDf =  0.00631    CDp =  0.00259
 plradd ia,ip,cpol            3           0  1.42811118E-02

 Point added to stored polar  1
 Point written to save file  goe547_Re600k.base.pol                          
 Dump file unspecified or not available
 Calculating wake trajectory ...
 Calculating source influence matrix ...

 Solving BL system ...

 Side 1  free  transition at x/c =  0.8496   67
 Side 2  free  transition at x/c =  0.0481   20

   1   rms: 0.9295E-01   max: -.2764E+00   T at   20  2
       a = -2.500      CL =  0.2421
      Cm = -0.1229     CD =  0.00861   =>   CDf =  0.00638    CDp =  0.00223

 Side 1  free  transition at x/c =  0.8400   67
 Side 2  free  transition at x/c =  0.0528   19

   2   rms: 0.1425E-01   max: -.1336E+00   D at   67  1
       a = -2.500      CL =  0.2364
      Cm = -0.1216     CD =  0.00862   =>   CDf =  0.00635    CDp =  0.00227

 Side 1  free  transition at x/c =  0.8366   67
 Side 2  free  transition at x/c =  0.0528   19

   3   rms: 0.1686E-01   max: -.2515E+00   D at   19  2
       a = -2.500      CL =  0.2369
      Cm = -0.1217     CD =  0.00863   =>   CDf =  0.00637    CDp =  0.00226

 Side 1  free  transition at x/c =  0.8371   67
 Side 2  free  transition at x/c =  0.0529   19

   4   rms: 0.1614E-01   max: -.2373E+00   D at   19  2
       a = -2.500      CL =  0.2369
      Cm = -0.1217     CD =  0.00863   =>   CDf =  0.00636    CDp =  0.00226

 Side 1  free  transition at x/c =  0.8370   67
 Side 2  free  transition at x/c =  0.0529   19

   5   rms: 0.1618E-01   max: -.2380E+00   D at   19  2
       a = -2.500      CL =  0.2369
      Cm = -0.1217     CD =  0.00863   =>   CDf =  0.00636    CDp =  0.00226

 Side 1  free  transition at x/c =  0.8370   67
 Side 2  free  transition at x/c =  0.0529   19

   6   rms: 0.1618E-01   max: -.2380E+00   D at   19  2
       a = -2.500      CL =  0.2369
      Cm = -0.1217     CD =  0.00863   =>   CDf =  0.00636    CDp =  0.00226

 Side 1  free  transition at x/c =  0.8370   67
 Side 2  free  transition at x/c =  0.0529   19

   7   rms: 0.1618E-01   max: -.2380E+00   D at   19  2
       a = -2.500      CL =  0.2369
      Cm = -0.1217     CD =  0.00863   =>   CDf =  0.00636    CDp =  0.00226

 Side 1  free  transition at x/c =  0.8370   67
 Side 2  free  transition at x/c =  0.0529   19

   8   rms: 0.1618E-01   max: -.2380E+00   D at   19  2
       a = -2.500      CL =  0.2369
      Cm = -0.1217     CD =  0.00863   =>   CDf =  0.00636    CDp =  0.00226

 Side 1  free  transition at x/c =  0.8370   67
 Side 2  free  transition at x/c =  0.0529   19

   9   rms: 0.1618E-01   max: -.2380E+00   D at   19  2
       a = -2.500      CL =  0.2369
      Cm = -0.1217     CD =  0.00863   =>   CDf =  0.00636    CDp =  0.00226

 Side 1  free  transition at x/c =  0.8370   67
 Side 2  free  transition at x/c =  0.0529   19

  10   rms: 0.1618E-01   max: -.2380E+00   D at   19  2
       a = -2.500      CL =  0.2369
      Cm = -0.1217     CD =  0.00863   =>   CDf =  0.00636    CDp =  0.00226

 Side 1  free  transition at x/c =  0.8370   67
 Side 2  free  transition at x/c =  0.0529   19

  11   rms: 0.1618E-01   max: -.2380E+00   D at   19  2
       a = -2.500      CL =  0.2369
      Cm = -0.1217     CD =  0.00863   =>   CDf =  0.00636    CDp =  0.00226

 Side 1  free  transition at x/c =  0.8370   67
 Side 2  free  transition at x/c =  0.0529   19

  12   rms: 0.1618E-01   max: -.2380E+00   D at   19  2
       a = -2.500      CL =  0.2369
      Cm = -0.1217     CD =  0.00863   =>   CDf =  0.00636    CDp =  0.00226

 Side 1  free  transition at x/c =  0.8370   67
 Side 2  free  transition at x/c =  0.0529   19

  13   rms: 0.1618E-01   max: -.2380E+00   D at   19  2
       a = -2.500      CL =  0.2369
      Cm = -0.1217     CD =  0.00863   =>   CDf =  0.00636    CDp =  0.00226

 Side 1  free  transition at x/c =  0.8370   67
 Side 2  free  transition at x/c =  0.0529   19

  14   rms: 0.1618E-01   max: -.2380E+00   D at   19  2
       a = -2.500      CL =  0.2369
      Cm = -0.1217     CD =  0.00863   =>   CDf =  0.00636    CDp =  0.00226

 Side 1  free  transition at x/c =  0.8370   67
 Side 2  free  transition at x/c =  0.0529   19

  15   rms: 0.1618E-01   max: -.2380E+00   D at   19  2
       a = -2.500      CL =  0.2369
      Cm = -0.1217     CD =  0.00863   =>   CDf =  0.00636    CDp =  0.00226

 Side 1  free  transition at x/c =  0.8370   67
 Side 2  free  transition at x/c =  0.0529   19

  16   rms: 0.1618E-01   max: -.2380E+00   D at   19  2
       a = -2.500      CL =  0.2369
      Cm = -0.1217     CD =  0.00863   =>   CDf =  0.00636    CDp =  0.00226

 Side 1  free  transition at x/c =  0.8370   67
 Side 2  free  transition at x/c =  0.0529   19

  17   rms: 0.1618E-01   max: -.2380E+00   D at   19  2
       a = -2.500      CL =  0.2369
      Cm = -0.1217     CD =  0.00863   =>   CDf =  0.00636    CDp =  0.00226

 Side 1  free  transition at x/c =  0.8370   67
 Side 2  free  transition at x/c =  0.0529   19

  18   rms: 0.1618E-01   max: -.2380E+00   D at   19  2
       a = -2.500      CL =  0.2369
      Cm = -0.1217     CD =  0.00863   =>   CDf =  0.00636    CDp =  0.00226

 Side 1  free  transition at x/c =  0.8370   67
 Side 2  free  transition at x/c =  0.0529   19

  19   rms: 0.1618E-01   max: -.2380E+00   D at   19  2
       a = -2.500      CL =  0.2369
      Cm = -0.1217     CD =  0.00863   =>   CDf =  0.00636    CDp =  0.00226

 Side 1  free  transition at x/c =  0.8370   67
 Side 2  free  transition at x/c =  0.0529   19

  20   rms: 0.1618E-01   max: -.2380E+00   D at   19  2
       a = -2.500      CL =  0.2369
      Cm = -0.1217     CD =  0.00863   =>   CDf =  0.00636    CDp =  0.00226

 Side 1  free  transition at x/c =  0.8370   67
 Side 2  free  transition at x/c =  0.0529   19

  21   rms: 0.1618E-01   max: -.2380E+00   D at   19  2
       a = -2.500      CL =  0.2369
      Cm = -0.1217     CD =  0.00863   =>   CDf =  0.00636    CDp =  0.00226

 Side 1  free  transition at x/c =  0.8370   67
 Side 2  free  transition at x/c =  0.0529   19

  22   rms: 0.1618E-01   max: -.2380E+00   D at   19  2
       a = -2.500      CL =  0.2369
      Cm = -0.1217     CD =  0.00863   =>   CDf =  0.00636    CDp =  0.00226

 Side 1  free  transition at x/c =  0.8370   67
 Side 2  free  transition at x/c =  0.0529   19

  23   rms: 0.1618E-01   max: -.2380E+00   D at   19  2
       a = -2.500      CL =  0.2369
      Cm = -0.1217     CD =  0.00863   =>   CDf =  0.00636    CDp =  0.00226

 Side 1  free  transition at x/c =  0.8370   67
 Side 2  free  transition at x/c =  0.0529   19

  24   rms: 0.1618E-01   max: -.2380E+00   D at   19  2
       a = -2.500      CL =  0.2369
      Cm = -0.1217     CD =  0.00863   =>   CDf =  0.00636    CDp =  0.00226

 Side 1  free  transition at x/c =  0.8370   67
 Side 2  free  transition at x/c =  0.0529   19

  25   rms: 0.1618E-01   max: -.2380E+00   D at   19  2
       a = -2.500      CL =  0.2369
      Cm = -0.1217     CD =  0.00863   =>   CDf =  0.00636    CDp =  0.00226

 Side 1  free  transition at x/c =  0.8370   67
 Side 2  free  transition at x/c =  0.0529   19

  26   rms: 0.1618E-01   max: -.2380E+00   D at   19  2
       a = -2.500      CL =  0.2369
      Cm = -0.1217     CD =  0.00863   =>   CDf =  0.00636    CDp =  0.00226

 Side 1  free  transition at x/c =  0.8370   67
 Side 2  free  transition at x/c =  0.0529   19

  27   rms: 0.1618E-01   max: -.2380E+00   D at   19  2
       a = -2.500      CL =  0.2369
      Cm = -0.1217     CD =  0.00863   =>   CDf =  0.00636    CDp =  0.00226

 Side 1  free  transition at x/c =  0.8370   67
 Side 2  free  transition at x/c =  0.0529   19

  28   rms: 0.1618E-01   max: -.2380E+00   D at   19  2
       a = -2.500      CL =  0.2369
      Cm = -0.1217     CD =  0.00863   =>   CDf =  0.00636    CDp =  0.00226

 Side 1  free  transition at x/c =  0.8370   67
 Side 2  free  transition at x/c =  0.0529   19

  29   rms: 0.1618E-01   max: -.2380E+00   D at   19  2
       a = -2.500      CL =  0.2369
      Cm = -0.1217     CD =  0.00863   =>   CDf =  0.00636    CDp =  0.00226

 Side 1  free  transition at x/c =  0.8370   67
 Side 2  free  transition at x/c =  0.0529   19

  30   rms: 0.1618E-01   max: -.2380E+00   D at   19  2
       a = -2.500      CL =  0.2369
      Cm = -0.1217     CD =  0.00863   =>   CDf =  0.00636    CDp =  0.00226

 Side 1  free  transition at x/c =  0.8370   67
 Side 2  free  transition at x/c =  0.0529   19

  31   rms: 0.1618E-01   max: -.2380E+00   D at   19  2
       a = -2.500      CL =  0.2369
      Cm = -0.1217     CD =  0.00863   =>   CDf =  0.00636    CDp =  0.00226

 Side 1  free  transition at x/c =  0.8370   67
 Side 2  free  transition at x/c =  0.0529   19

  32   rms: 0.1618E-01   max: -.2380E+00   D at   19  2
       a = -2.500      CL =  0.2369
      Cm = -0.1217     CD =  0.00863   =>   CDf =  0.00636    CDp =  0.00226

 Side 1  free  transition at x/c =  0.8370   67
 Side 2  free  transition at x/c =  0.0529   19

  33   rms: 0.1618E-01   max: -.2380E+00   D at   19  2
       a = -2.500      CL =  0.2369
      Cm = -0.1217     CD =  0.00863   =>   CDf =  0.00636    CDp =  0.00226

 Side 1  free  transition at x/c =  0.8370   67
 Side 2  free  transition at x/c =  0.0529   19

  34   rms: 0.1618E-01   max: -.2380E+00   D at   19  2
       a = -2.500      CL =  0.2369
      Cm = -0.1217     CD =  0.00863   =>   CDf =  0.00636    CDp =  0.00226

 Side 1  free  transition at x/c =  0.8370   67
 Side 2  free  transition at x/c =  0.0529   19

  35   rms: 0.1618E-01   max: -.2380E+00   D at   19  2
       a = -2.500      CL =  0.2369
      Cm = -0.1217     CD =  0.00863   =>   CDf =  0.00636    CDp =  0.00226

 Side 1  free  transition at x/c =  0.8370   67
 Side 2  free  transition at x/c =  0.0529   19

  36   rms: 0.1618E-01   max: -.2380E+00   D at   19  2
       a = -2.500      CL =  0.2369
      Cm = -0.1217     CD =  0.00863   =>   CDf =  0.00636    CDp =  0.00226

 Side 1  free  transition at x/c =  0.8370   67
 Side 2  free  transition at x/c =  0.0529   19

  37   rms: 0.1618E-01   max: -.2380E+00   D at   19  2
       a = -2.500      CL =  0.2369
      Cm = -0.1217     CD =  0.00863   =>   CDf =  0.00636    CDp =  0.00226

 Side 1  free  transition at x/c =  0.8370   67
 Side 2  free  transition at x/c =  0.0529   19

  38   rms: 0.1618E-01   max: -.2380E+00   D at   19  2
       a = -2.500      CL =  0.2369
      Cm = -0.1217     CD =  0.00863   =>   CDf =  0.00636    CDp =  0.00226

 Side 1  free  transition at x/c =  0.8370   67
 Side 2  free  transition at x/c =  0.0529   19

  39   rms: 0.1618E-01   max: -.2380E+00   D at   19  2
       a = -2.500      CL =  0.2369
      Cm = -0.1217     CD =  0.00863   =>   CDf =  0.00636    CDp =  0.00226

 Side 1  free  transition at x/c =  0.8370   67
 Side 2  free  transition at x/c =  0.0529   19

  40   rms: 0.1618E-01   max: -.2380E+00   D at   19  2
       a = -2.500      CL =  0.2369
      Cm = -0.1217     CD =  0.00863   =>   CDf =  0.00636    CDp =  0.00226

 Side 1  free  transition at x/c =  0.8370   67
 Side 2  free  transition at x/c =  0.0529   19

  41   rms: 0.1618E-01   max: -.2380E+00   D at   19  2
       a = -2.500      CL =  0.2369
      Cm = -0.1217     CD =  0.00863   =>   CDf =  0.00636    CDp =  0.00226

 Side 1  free  transition at x/c =  0.8370   67
 Side 2  free  transition at x/c =  0.0529   19

  42   rms: 0.1618E-01   max: -.2380E+00   D at   19  2
       a = -2.500      CL =  0.2369
      Cm = -0.1217     CD =  0.00863   =>   CDf =  0.00636    CDp =  0.00226

 Side 1  free  transition at x/c =  0.8370   67
 Side 2  free  transition at x/c =  0.0529   19

  43   rms: 0.1618E-01   max: -.2380E+00   D at   19  2
       a = -2.500      CL =  0.2369
      Cm = -0.1217     CD =  0.00863   =>   CDf =  0.00636    CDp =  0.00226

 Side 1  free  transition at x/c =  0.8370   67
 Side 2  free  transition at x/c =  0.0529   19

  44   rms: 0.1618E-01   max: -.2380E+00   D at   19  2
       a = -2.500      CL =  0.2369
      Cm = -0.1217     CD =  0.00863   =>   CDf =  0.00636    CDp =  0.00226

 Side 1  free  transition at x/c =  0.8370   67
 Side 2  free  transition at x/c =  0.0529   19

  45   rms: 0.1618E-01   max: -.2380E+00   D at   19  2
       a = -2.500      CL =  0.2369
      Cm = -0.1217     CD =  0.00863   =>   CDf =  0.00636    CDp =  0.00226

 Side 1  free  transition at x/c =  0.8370   67
 Side 2  free  transition at x/c =  0.0529   19

  46   rms: 0.1618E-01   max: -.2380E+00   D at   19  2
       a = -2.500      CL =  0.2369
      Cm = -0.1217     CD =  0.00863   =>   CDf =  0.00636    CDp =  0.00226

 Side 1  free  transition at x/c =  0.8370   67
 Side 2  free  transition at x/c =  0.0529   19

  47   rms: 0.1618E-01   max: -.2380E+00   D at   19  2
       a = -2.500      CL =  0.2369
      Cm = -0.1217     CD =  0.00863   =>   CDf =  0.00636    CDp =  0.00226

 Side 1  free  transition at x/c =  0.8370   67
 Side 2  free  transition at x/c =  0.0529   19

  48   rms: 0.1618E-01   max: -.2380E+00   D at   19  2
       a = -2.500      CL =  0.2369
      Cm = -0.1217     CD =  0.00863   =>   CDf =  0.00636    CDp =  0.00226

 Side 1  free  transition at x/c =  0.8370   67
 Side 2  free  transition at x/c =  0.0529   19

  49   rms: 0.1618E-01   max: -.2380E+00   D at   19  2
       a = -2.500      CL =  0.2369
      Cm = -0.1217     CD =  0.00863   =>   CDf =  0.00636    CDp =  0.00226

 Side 1  free  transition at x/c =  0.8370   67
 Side 2  free  transition at x/c =  0.0529   19

  50   rms: 0.1618E-01   max: -.2380E+00   D at   19  2
       a = -2.500      CL =  0.2369
      Cm = -0.1217     CD =  0.00863   =>   CDf =  0.00636    CDp =  0.00226

 Side 1  free  transition at x/c =  0.8370   67
 Side 2  free  transition at x/c =  0.0529   19

  51   rms: 0.1618E-01   max: -.2380E+00   D at   19  2
       a = -2.500      CL =  0.2369
      Cm = -0.1217     CD =  0.00863   =>   CDf =  0.00636    CDp =  0.00226

 Side 1  free  transition at x/c =  0.8370   67
 Side 2  free  transition at x/c =  0.0529   19

  52   rms: 0.1618E-01   max: -.2380E+00   D at   19  2
       a = -2.500      CL =  0.2369
      Cm = -0.1217     CD =  0.00863   =>   CDf =  0.00636    CDp =  0.00226

 Side 1  free  transition at x/c =  0.8370   67
 Side 2  free  transition at x/c =  0.0529   19

  53   rms: 0.1618E-01   max: -.2380E+00   D at   19  2
       a = -2.500      CL =  0.2369
      Cm = -0.1217     CD =  0.00863   =>   CDf =  0.00636    CDp =  0.00226

 Side 1  free  transition at x/c =  0.8370   67
 Side 2  free  transition at x/c =  0.0529   19

  54   rms: 0.1618E-01   max: -.2380E+00   D at   19  2
       a = -2.500      CL =  0.2369
      Cm = -0.1217     CD =  0.00863   =>   CDf =  0.00636    CDp =  0.00226

 Side 1  free  transition at x/c =  0.8370   67
 Side 2  free  transition at x/c =  0.0529   19

  55   rms: 0.1618E-01   max: -.2380E+00   D at   19  2
       a = -2.500      CL =  0.2369
      Cm = -0.1217     CD =  0.00863   =>   CDf =  0.00636    CDp =  0.00226

 Side 1  free  transition at x/c =  0.8370   67
 Side 2  free  transition at x/c =  0.0529   19

  56   rms: 0.1618E-01   max: -.2380E+00   D at   19  2
       a = -2.500      CL =  0.2369
      Cm = -0.1217     CD =  0.00863   =>   CDf =  0.00636    CDp =  0.00226

 Side 1  free  transition at x/c =  0.8370   67
 Side 2  free  transition at x/c =  0.0529   19

  57   rms: 0.1618E-01   max: -.2380E+00   D at   19  2
       a = -2.500      CL =  0.2369
      Cm = -0.1217     CD =  0.00863   =>   CDf =  0.00636    CDp =  0.00226

 Side 1  free  transition at x/c =  0.8370   67
 Side 2  free  transition at x/c =  0.0529   19

  58   rms: 0.1618E-01   max: -.2380E+00   D at   19  2
       a = -2.500      CL =  0.2369
      Cm = -0.1217     CD =  0.00863   =>   CDf =  0.00636    CDp =  0.00226

 Side 1  free  transition at x/c =  0.8370   67
 Side 2  free  transition at x/c =  0.0529   19

  59   rms: 0.1618E-01   max: -.2380E+00   D at   19  2
       a = -2.500      CL =  0.2369
      Cm = -0.1217     CD =  0.00863   =>   CDf =  0.00636    CDp =  0.00226

 Side 1  free  transition at x/c =  0.8370   67
 Side 2  free  transition at x/c =  0.0529   19

  60   rms: 0.1618E-01   max: -.2380E+00   D at   19  2
       a = -2.500      CL =  0.2369
      Cm = -0.1217     CD =  0.00863   =>   CDf =  0.00636    CDp =  0.00226

 Side 1  free  transition at x/c =  0.8370   67
 Side 2  free  transition at x/c =  0.0529   19

  61   rms: 0.1618E-01   max: -.2380E+00   D at   19  2
       a = -2.500      CL =  0.2369
      Cm = -0.1217     CD =  0.00863   =>   CDf =  0.00636    CDp =  0.00226

 Side 1  free  transition at x/c =  0.8370   67
 Side 2  free  transition at x/c =  0.0529   19

  62   rms: 0.1618E-01   max: -.2380E+00   D at   19  2
       a = -2.500      CL =  0.2369
      Cm = -0.1217     CD =  0.00863   =>   CDf =  0.00636    CDp =  0.00226

 Side 1  free  transition at x/c =  0.8370   67
 Side 2  free  transition at x/c =  0.0529   19

  63   rms: 0.1618E-01   max: -.2380E+00   D at   19  2
       a = -2.500      CL =  0.2369
      Cm = -0.1217     CD =  0.00863   =>   CDf =  0.00636    CDp =  0.00226

 Side 1  free  transition at x/c =  0.8370   67
 Side 2  free  transition at x/c =  0.0529   19

  64   rms: 0.1618E-01   max: -.2380E+00   D at   19  2
       a = -2.500      CL =  0.2369
      Cm = -0.1217     CD =  0.00863   =>   CDf =  0.00636    CDp =  0.00226

 Side 1  free  transition at x/c =  0.8370   67
 Side 2  free  transition at x/c =  0.0529   19

  65   rms: 0.1618E-01   max: -.2380E+00   D at   19  2
       a = -2.500      CL =  0.2369
      Cm = -0.1217     CD =  0.00863   =>   CDf =  0.00636    CDp =  0.00226

 Side 1  free  transition at x/c =  0.8370   67
 Side 2  free  transition at x/c =  0.0529   19

  66   rms: 0.1618E-01   max: -.2380E+00   D at   19  2
       a = -2.500      CL =  0.2369
      Cm = -0.1217     CD =  0.00863   =>   CDf =  0.00636    CDp =  0.00226

 Side 1  free  transition at x/c =  0.8370   67
 Side 2  free  transition at x/c =  0.0529   19

  67   rms: 0.1618E-01   max: -.2380E+00   D at   19  2
       a = -2.500      CL =  0.2369
      Cm = -0.1217     CD =  0.00863   =>   CDf =  0.00636    CDp =  0.00226

 Side 1  free  transition at x/c =  0.8370   67
 Side 2  free  transition at x/c =  0.0529   19

  68   rms: 0.1618E-01   max: -.2380E+00   D at   19  2
       a = -2.500      CL =  0.2369
      Cm = -0.1217     CD =  0.00863   =>   CDf =  0.00636    CDp =  0.00226

 Side 1  free  transition at x/c =  0.8370   67
 Side 2  free  transition at x/c =  0.0529   19

  69   rms: 0.1618E-01   max: -.2380E+00   D at   19  2
       a = -2.500      CL =  0.2369
      Cm = -0.1217     CD =  0.00863   =>   CDf =  0.00636    CDp =  0.00226

 Side 1  free  transition at x/c =  0.8370   67
 Side 2  free  transition at x/c =  0.0529   19

  70   rms: 0.1618E-01   max: -.2380E+00   D at   19  2
       a = -2.500      CL =  0.2369
      Cm = -0.1217     CD =  0.00863   =>   CDf =  0.00636    CDp =  0.00226

 Side 1  free  transition at x/c =  0.8370   67
 Side 2  free  transition at x/c =  0.0529   19

  71   rms: 0.1618E-01   max: -.2380E+00   D at   19  2
       a = -2.500      CL =  0.2369
      Cm = -0.1217     CD =  0.00863   =>   CDf =  0.00636    CDp =  0.00226

 Side 1  free  transition at x/c =  0.8370   67
 Side 2  free  transition at x/c =  0.0529   19

  72   rms: 0.1618E-01   max: -.2380E+00   D at   19  2
       a = -2.500      CL =  0.2369
      Cm = -0.1217     CD =  0.00863   =>   CDf =  0.00636    CDp =  0.00226

 Side 1  free  transition at x/c =  0.8370   67
 Side 2  free  transition at x/c =  0.0529   19

  73   rms: 0.1618E-01   max: -.2380E+00   D at   19  2
       a = -2.500      CL =  0.2369
      Cm = -0.1217     CD =  0.00863   =>   CDf =  0.00636    CDp =  0.00226

 Side 1  free  transition at x/c =  0.8370   67
 Side 2  free  transition at x/c =  0.0529   19

  74   rms: 0.1618E-01   max: -.2380E+00   D at   19  2
       a = -2.500      CL =  0.2369
      Cm = -0.1217     CD =  0.00863   =>   CDf =  0.00636    CDp =  0.00226

 Side 1  free  transition at x/c =  0.8370   67
 Side 2  free  transition at x/c =  0.0529   19

  75   rms: 0.1618E-01   max: -.2380E+00   D at   19  2
       a = -2.500      CL =  0.2369
      Cm = -0.1217     CD =  0.00863   =>   CDf =  0.00636    CDp =  0.00226

 Side 1  free  transition at x/c =  0.8370   67
 Side 2  free  transition at x/c =  0.0529   19

  76   rms: 0.1618E-01   max: -.2380E+00   D at   19  2
       a = -2.500      CL =  0.2369
      Cm = -0.1217     CD =  0.00863   =>   CDf =  0.00636    CDp =  0.00226

 Side 1  free  transition at x/c =  0.8370   67
 Side 2  free  transition at x/c =  0.0529   19

  77   rms: 0.1618E-01   max: -.2380E+00   D at   19  2
       a = -2.500      CL =  0.2369
      Cm = -0.1217     CD =  0.00863   =>   CDf =  0.00636    CDp =  0.00226

 Side 1  free  transition at x/c =  0.8370   67
 Side 2  free  transition at x/c =  0.0529   19

  78   rms: 0.1618E-01   max: -.2380E+00   D at   19  2
       a = -2.500      CL =  0.2369
      Cm = -0.1217     CD =  0.00863   =>   CDf =  0.00636    CDp =  0.00226

 Side 1  free  transition at x/c =  0.8370   67
 Side 2  free  transition at x/c =  0.0529   19

  79   rms: 0.1618E-01   max: -.2380E+00   D at   19  2
       a = -2.500      CL =  0.2369
      Cm = -0.1217     CD =  0.00863   =>   CDf =  0.00636    CDp =  0.00226

 Side 1  free  transition at x/c =  0.8370   67
 Side 2  free  transition at x/c =  0.0529   19

  80   rms: 0.1618E-01   max: -.2380E+00   D at   19  2
       a = -2.500      CL =  0.2369
      Cm = -0.1217     CD =  0.00863   =>   CDf =  0.00636    CDp =  0.00226

 Side 1  free  transition at x/c =  0.8370   67
 Side 2  free  transition at x/c =  0.0529   19

  81   rms: 0.1618E-01   max: -.2380E+00   D at   19  2
       a = -2.500      CL =  0.2369
      Cm = -0.1217     CD =  0.00863   =>   CDf =  0.00636    CDp =  0.00226

 Side 1  free  transition at x/c =  0.8370   67
 Side 2  free  transition at x/c =  0.0529   19

  82   rms: 0.1618E-01   max: -.2380E+00   D at   19  2
       a = -2.500      CL =  0.2369
      Cm = -0.1217     CD =  0.00863   =>   CDf =  0.00636    CDp =  0.00226

 Side 1  free  transition at x/c =  0.8370   67
 Side 2  free  transition at x/c =  0.0529   19

  83   rms: 0.1618E-01   max: -.2380E+00   D at   19  2
       a = -2.500      CL =  0.2369
      Cm = -0.1217     CD =  0.00863   =>   CDf =  0.00636    CDp =  0.00226

 Side 1  free  transition at x/c =  0.8370   67
 Side 2  free  transition at x/c =  0.0529   19

  84   rms: 0.1618E-01   max: -.2380E+00   D at   19  2
       a = -2.500      CL =  0.2369
      Cm = -0.1217     CD =  0.00863   =>   CDf =  0.00636    CDp =  0.00226

 Side 1  free  transition at x/c =  0.8370   67
 Side 2  free  transition at x/c =  0.0529   19

  85   rms: 0.1618E-01   max: -.2380E+00   D at   19  2
       a = -2.500      CL =  0.2369
      Cm = -0.1217     CD =  0.00863   =>   CDf =  0.00636    CDp =  0.00226

 Side 1  free  transition at x/c =  0.8370   67
 Side 2  free  transition at x/c =  0.0529   19

  86   rms: 0.1618E-01   max: -.2380E+00   D at   19  2
       a = -2.500      CL =  0.2369
      Cm = -0.1217     CD =  0.00863   =>   CDf =  0.00636    CDp =  0.00226

 Side 1  free  transition at x/c =  0.8370   67
 Side 2  free  transition at x/c =  0.0529   19

  87   rms: 0.1618E-01   max: -.2380E+00   D at   19  2
       a = -2.500      CL =  0.2369
      Cm = -0.1217     CD =  0.00863   =>   CDf =  0.00636    CDp =  0.00226

 Side 1  free  transition at x/c =  0.8370   67
 Side 2  free  transition at x/c =  0.0529   19

  88   rms: 0.1618E-01   max: -.2380E+00   D at   19  2
       a = -2.500      CL =  0.2369
      Cm = -0.1217     CD =  0.00863   =>   CDf =  0.00636    CDp =  0.00226

 Side 1  free  transition at x/c =  0.8370   67
 Side 2  free  transition at x/c =  0.0529   19

  89   rms: 0.1618E-01   max: -.2380E+00   D at   19  2
       a = -2.500      CL =  0.2369
      Cm = -0.1217     CD =  0.00863   =>   CDf =  0.00636    CDp =  0.00226

 Side 1  free  transition at x/c =  0.8370   67
 Side 2  free  transition at x/c =  0.0529   19

  90   rms: 0.1618E-01   max: -.2380E+00   D at   19  2
       a = -2.500      CL =  0.2369
      Cm = -0.1217     CD =  0.00863   =>   CDf =  0.00636    CDp =  0.00226

 Side 1  free  transition at x/c =  0.8370   67
 Side 2  free  transition at x/c =  0.0529   19

  91   rms: 0.1618E-01   max: -.2380E+00   D at   19  2
       a = -2.500      CL =  0.2369
      Cm = -0.1217     CD =  0.00863   =>   CDf =  0.00636    CDp =  0.00226

 Side 1  free  transition at x/c =  0.8370   67
 Side 2  free  transition at x/c =  0.0529   19

  92   rms: 0.1618E-01   max: -.2380E+00   D at   19  2
       a = -2.500      CL =  0.2369
      Cm = -0.1217     CD =  0.00863   =>   CDf =  0.00636    CDp =  0.00226

 Side 1  free  transition at x/c =  0.8370   67
 Side 2  free  transition at x/c =  0.0529   19

  93   rms: 0.1618E-01   max: -.2380E+00   D at   19  2
       a = -2.500      CL =  0.2369
      Cm = -0.1217     CD =  0.00863   =>   CDf =  0.00636    CDp =  0.00226

 Side 1  free  transition at x/c =  0.8370   67
 Side 2  free  transition at x/c =  0.0529   19

  94   rms: 0.1618E-01   max: -.2380E+00   D at   19  2
       a = -2.500      CL =  0.2369
      Cm = -0.1217     CD =  0.00863   =>   CDf =  0.00636    CDp =  0.00226

 Side 1  free  transition at x/c =  0.8370   67
 Side 2  free  transition at x/c =  0.0529   19

  95   rms: 0.1618E-01   max: -.2380E+00   D at   19  2
       a = -2.500      CL =  0.2369
      Cm = -0.1217     CD =  0.00863   =>   CDf =  0.00636    CDp =  0.00226

 Side 1  free  transition at x/c =  0.8370   67
 Side 2  free  transition at x/c =  0.0529   19

  96   rms: 0.1618E-01   max: -.2380E+00   D at   19  2
       a = -2.500      CL =  0.2369
      Cm = -0.1217     CD =  0.00863   =>   CDf =  0.00636    CDp =  0.00226

 Side 1  free  transition at x/c =  0.8370   67
 Side 2  free  transition at x/c =  0.0529   19

  97   rms: 0.1618E-01   max: -.2380E+00   D at   19  2
       a = -2.500      CL =  0.2369
      Cm = -0.1217     CD =  0.00863   =>   CDf =  0.00636    CDp =  0.00226

 Side 1  free  transition at x/c =  0.8370   67
 Side 2  free  transition at x/c =  0.0529   19

  98   rms: 0.1618E-01   max: -.2380E+00   D at   19  2
       a = -2.500      CL =  0.2369
      Cm = -0.1217     CD =  0.00863   =>   CDf =  0.00636    CDp =  0.00226

 Side 1  free  transition at x/c =  0.8370   67
 Side 2  free  transition at x/c =  0.0529   19

  99   rms: 0.1618E-01   max: -.2380E+00   D at   19  2
       a = -2.500      CL =  0.2369
      Cm = -0.1217     CD =  0.00863   =>   CDf =  0.00636    CDp =  0.00226

 Side 1  free  transition at x/c =  0.8370   67
 Side 2  free  transition at x/c =  0.0529   19

 100   rms: 0.1618E-01   max: -.2380E+00   D at   19  2
       a = -2.500      CL =  0.2369
      Cm = -0.1217     CD =  0.00863   =>   CDf =  0.00636    CDp =  0.00226

 Side 1  free  transition at x/c =  0.8370   67
 Side 2  free  transition at x/c =  0.0529   19

 101   rms: 0.1618E-01   max: -.2380E+00   D at   19  2
       a = -2.500      CL =  0.2369
      Cm = -0.1217     CD =  0.00863   =>   CDf =  0.00636    CDp =  0.00226

 Side 1  free  transition at x/c =  0.8370   67
 Side 2  free  transition at x/c =  0.0529   19

 102   rms: 0.1618E-01   max: -.2380E+00   D at   19  2
       a = -2.500      CL =  0.2369
      Cm = -0.1217     CD =  0.00863   =>   CDf =  0.00636    CDp =  0.00226

 Side 1  free  transition at x/c =  0.8370   67
 Side 2  free  transition at x/c =  0.0529   19

 103   rms: 0.1618E-01   max: -.2380E+00   D at   19  2
       a = -2.500      CL =  0.2369
      Cm = -0.1217     CD =  0.00863   =>   CDf =  0.00636    CDp =  0.00226

 Side 1  free  transition at x/c =  0.8370   67
 Side 2  free  transition at x/c =  0.0529   19

 104   rms: 0.1618E-01   max: -.2380E+00   D at   19  2
       a = -2.500      CL =  0.2369
      Cm = -0.1217     CD =  0.00863   =>   CDf =  0.00636    CDp =  0.00226

 Side 1  free  transition at x/c =  0.8370   67
 Side 2  free  transition at x/c =  0.0529   19

 105   rms: 0.1618E-01   max: -.2380E+00   D at   19  2
       a = -2.500      CL =  0.2369
      Cm = -0.1217     CD =  0.00863   =>   CDf =  0.00636    CDp =  0.00226

 Side 1  free  transition at x/c =  0.8370   67
 Side 2  free  transition at x/c =  0.0529   19

 106   rms: 0.1618E-01   max: -.2380E+00   D at   19  2
       a = -2.500      CL =  0.2369
      Cm = -0.1217     CD =  0.00863   =>   CDf =  0.00636    CDp =  0.00226

 Side 1  free  transition at x/c =  0.8370   67
 Side 2  free  transition at x/c =  0.0529   19

 107   rms: 0.1618E-01   max: -.2380E+00   D at   19  2
       a = -2.500      CL =  0.2369
      Cm = -0.1217     CD =  0.00863   =>   CDf =  0.00636    CDp =  0.00226

 Side 1  free  transition at x/c =  0.8370   67
 Side 2  free  transition at x/c =  0.0529   19

 108   rms: 0.1618E-01   max: -.2380E+00   D at   19  2
       a = -2.500      CL =  0.2369
      Cm = -0.1217     CD =  0.00863   =>   CDf =  0.00636    CDp =  0.00226

 Side 1  free  transition at x/c =  0.8370   67
 Side 2  free  transition at x/c =  0.0529   19

 109   rms: 0.1618E-01   max: -.2380E+00   D at   19  2
       a = -2.500      CL =  0.2369
      Cm = -0.1217     CD =  0.00863   =>   CDf =  0.00636    CDp =  0.00226

 Side 1  free  transition at x/c =  0.8370   67
 Side 2  free  transition at x/c =  0.0529   19

 110   rms: 0.1618E-01   max: -.2380E+00   D at   19  2
       a = -2.500      CL =  0.2369
      Cm = -0.1217     CD =  0.00863   =>   CDf =  0.00636    CDp =  0.00226

 Side 1  free  transition at x/c =  0.8370   67
 Side 2  free  transition at x/c =  0.0529   19

 111   rms: 0.1618E-01   max: -.2380E+00   D at   19  2
       a = -2.500      CL =  0.2369
      Cm = -0.1217     CD =  0.00863   =>   CDf =  0.00636    CDp =  0.00226

 Side 1  free  transition at x/c =  0.8370   67
 Side 2  free  transition at x/c =  0.0529   19

 112   rms: 0.1618E-01   max: -.2380E+00   D at   19  2
       a = -2.500      CL =  0.2369
      Cm = -0.1217     CD =  0.00863   =>   CDf =  0.00636    CDp =  0.00226

 Side 1  free  transition at x/c =  0.8370   67
 Side 2  free  transition at x/c =  0.0529   19

 113   rms: 0.1618E-01   max: -.2380E+00   D at   19  2
       a = -2.500      CL =  0.2369
      Cm = -0.1217     CD =  0.00863   =>   CDf =  0.00636    CDp =  0.00226

 Side 1  free  transition at x/c =  0.8370   67
 Side 2  free  transition at x/c =  0.0529   19

 114   rms: 0.1618E-01   max: -.2380E+00   D at   19  2
       a = -2.500      CL =  0.2369
      Cm = -0.1217     CD =  0.00863   =>   CDf =  0.00636    CDp =  0.00226

 Side 1  free  transition at x/c =  0.8370   67
 Side 2  free  transition at x/c =  0.0529   19

 115   rms: 0.1618E-01   max: -.2380E+00   D at   19  2
       a = -2.500      CL =  0.2369
      Cm = -0.1217     CD =  0.00863   =>   CDf =  0.00636    CDp =  0.00226

 Side 1  free  transition at x/c =  0.8370   67
 Side 2  free  transition at x/c =  0.0529   19

 116   rms: 0.1618E-01   max: -.2380E+00   D at   19  2
       a = -2.500      CL =  0.2369
      Cm = -0.1217     CD =  0.00863   =>   CDf =  0.00636    CDp =  0.00226

 Side 1  free  transition at x/c =  0.8370   67
 Side 2  free  transition at x/c =  0.0529   19

 117   rms: 0.1618E-01   max: -.2380E+00   D at   19  2
       a = -2.500      CL =  0.2369
      Cm = -0.1217     CD =  0.00863   =>   CDf =  0.00636    CDp =  0.00226

 Side 1  free  transition at x/c =  0.8370   67
 Side 2  free  transition at x/c =  0.0529   19

 118   rms: 0.1618E-01   max: -.2380E+00   D at   19  2
       a = -2.500      CL =  0.2369
      Cm = -0.1217     CD =  0.00863   =>   CDf =  0.00636    CDp =  0.00226

 Side 1  free  transition at x/c =  0.8370   67
 Side 2  free  transition at x/c =  0.0529   19

 119   rms: 0.1618E-01   max: -.2380E+00   D at   19  2
       a = -2.500      CL =  0.2369
      Cm = -0.1217     CD =  0.00863   =>   CDf =  0.00636    CDp =  0.00226

 Side 1  free  transition at x/c =  0.8370   67
 Side 2  free  transition at x/c =  0.0529   19

 120   rms: 0.1618E-01   max: -.2380E+00   D at   19  2
       a = -2.500      CL =  0.2369
      Cm = -0.1217     CD =  0.00863   =>   CDf =  0.00636    CDp =  0.00226

 Side 1  free  transition at x/c =  0.8370   67
 Side 2  free  transition at x/c =  0.0529   19

 121   rms: 0.1618E-01   max: -.2380E+00   D at   19  2
       a = -2.500      CL =  0.2369
      Cm = -0.1217     CD =  0.00863   =>   CDf =  0.00636    CDp =  0.00226

 Side 1  free  transition at x/c =  0.8370   67
 Side 2  free  transition at x/c =  0.0529   19

 122   rms: 0.1618E-01   max: -.2380E+00   D at   19  2
       a = -2.500      CL =  0.2369
      Cm = -0.1217     CD =  0.00863   =>   CDf =  0.00636    CDp =  0.00226

 Side 1  free  transition at x/c =  0.8370   67
 Side 2  free  transition at x/c =  0.0529   19

 123   rms: 0.1618E-01   max: -.2380E+00   D at   19  2
       a = -2.500      CL =  0.2369
      Cm = -0.1217     CD =  0.00863   =>   CDf =  0.00636    CDp =  0.00226

 Side 1  free  transition at x/c =  0.8370   67
 Side 2  free  transition at x/c =  0.0529   19

 124   rms: 0.1618E-01   max: -.2380E+00   D at   19  2
       a = -2.500      CL =  0.2369
      Cm = -0.1217     CD =  0.00863   =>   CDf =  0.00636    CDp =  0.00226

 Side 1  free  transition at x/c =  0.8370   67
 Side 2  free  transition at x/c =  0.0529   19

 125   rms: 0.1618E-01   max: -.2380E+00   D at   19  2
       a = -2.500      CL =  0.2369
      Cm = -0.1217     CD =  0.00863   =>   CDf =  0.00636    CDp =  0.00226

 Side 1  free  transition at x/c =  0.8370   67
 Side 2  free  transition at x/c =  0.0529   19

 126   rms: 0.1618E-01   max: -.2380E+00   D at   19  2
       a = -2.500      CL =  0.2369
      Cm = -0.1217     CD =  0.00863   =>   CDf =  0.00636    CDp =  0.00226

 Side 1  free  transition at x/c =  0.8370   67
 Side 2  free  transition at x/c =  0.0529   19

 127   rms: 0.1618E-01   max: -.2380E+00   D at   19  2
       a = -2.500      CL =  0.2369
      Cm = -0.1217     CD =  0.00863   =>   CDf =  0.00636    CDp =  0.00226

 Side 1  free  transition at x/c =  0.8370   67
 Side 2  free  transition at x/c =  0.0529   19

 128   rms: 0.1618E-01   max: -.2380E+00   D at   19  2
       a = -2.500      CL =  0.2369
      Cm = -0.1217     CD =  0.00863   =>   CDf =  0.00636    CDp =  0.00226

 Side 1  free  transition at x/c =  0.8370   67
 Side 2  free  transition at x/c =  0.0529   19

 129   rms: 0.1618E-01   max: -.2380E+00   D at   19  2
       a = -2.500      CL =  0.2369
      Cm = -0.1217     CD =  0.00863   =>   CDf =  0.00636    CDp =  0.00226

 Side 1  free  transition at x/c =  0.8370   67
 Side 2  free  transition at x/c =  0.0529   19

 130   rms: 0.1618E-01   max: -.2380E+00   D at   19  2
       a = -2.500      CL =  0.2369
      Cm = -0.1217     CD =  0.00863   =>   CDf =  0.00636    CDp =  0.00226

 Side 1  free  transition at x/c =  0.8370   67
 Side 2  free  transition at x/c =  0.0529   19

 131   rms: 0.1618E-01   max: -.2380E+00   D at   19  2
       a = -2.500      CL =  0.2369
      Cm = -0.1217     CD =  0.00863   =>   CDf =  0.00636    CDp =  0.00226

 Side 1  free  transition at x/c =  0.8370   67
 Side 2  free  transition at x/c =  0.0529   19

 132   rms: 0.1618E-01   max: -.2380E+00   D at   19  2
       a = -2.500      CL =  0.2369
      Cm = -0.1217     CD =  0.00863   =>   CDf =  0.00636    CDp =  0.00226

 Side 1  free  transition at x/c =  0.8370   67
 Side 2  free  transition at x/c =  0.0529   19

 133   rms: 0.1618E-01   max: -.2380E+00   D at   19  2
       a = -2.500      CL =  0.2369
      Cm = -0.1217     CD =  0.00863   =>   CDf =  0.00636    CDp =  0.00226

 Side 1  free  transition at x/c =  0.8370   67
 Side 2  free  transition at x/c =  0.0529   19

 134   rms: 0.1618E-01   max: -.2380E+00   D at   19  2
       a = -2.500      CL =  0.2369
      Cm = -0.1217     CD =  0.00863   =>   CDf =  0.00636    CDp =  0.00226

 Side 1  free  transition at x/c =  0.8370   67
 Side 2  free  transition at x/c =  0.0529   19

 135   rms: 0.1618E-01   max: -.2380E+00   D at   19  2
       a = -2.500      CL =  0.2369
      Cm = -0.1217     CD =  0.00863   =>   CDf =  0.00636    CDp =  0.00226

 Side 1  free  transition at x/c =  0.8370   67
 Side 2  free  transition at x/c =  0.0529   19

 136   rms: 0.1618E-01   max: -.2380E+00   D at   19  2
       a = -2.500      CL =  0.2369
      Cm = -0.1217     CD =  0.00863   =>   CDf =  0.00636    CDp =  0.00226

 Side 1  free  transition at x/c =  0.8370   67
 Side 2  free  transition at x/c =  0.0529   19

 137   rms: 0.1618E-01   max: -.2380E+00   D at   19  2
       a = -2.500      CL =  0.2369
      Cm = -0.1217     CD =  0.00863   =>   CDf =  0.00636    CDp =  0.00226

 Side 1  free  transition at x/c =  0.8370   67
 Side 2  free  transition at x/c =  0.0529   19

 138   rms: 0.1618E-01   max: -.2380E+00   D at   19  2
       a = -2.500      CL =  0.2369
      Cm = -0.1217     CD =  0.00863   =>   CDf =  0.00636    CDp =  0.00226

 Side 1  free  transition at x/c =  0.8370   67
 Side 2  free  transition at x/c =  0.0529   19

 139   rms: 0.1618E-01   max: -.2380E+00   D at   19  2
       a = -2.500      CL =  0.2369
      Cm = -0.1217     CD =  0.00863   =>   CDf =  0.00636    CDp =  0.00226

 Side 1  free  transition at x/c =  0.8370   67
 Side 2  free  transition at x/c =  0.0529   19

 140   rms: 0.1618E-01   max: -.2380E+00   D at   19  2
       a = -2.500      CL =  0.2369
      Cm = -0.1217     CD =  0.00863   =>   CDf =  0.00636    CDp =  0.00226

 Side 1  free  transition at x/c =  0.8370   67
 Side 2  free  transition at x/c =  0.0529   19

 141   rms: 0.1618E-01   max: -.2380E+00   D at   19  2
       a = -2.500      CL =  0.2369
      Cm = -0.1217     CD =  0.00863   =>   CDf =  0.00636    CDp =  0.00226

 Side 1  free  transition at x/c =  0.8370   67
 Side 2  free  transition at x/c =  0.0529   19

 142   rms: 0.1618E-01   max: -.2380E+00   D at   19  2
       a = -2.500      CL =  0.2369
      Cm = -0.1217     CD =  0.00863   =>   CDf =  0.00636    CDp =  0.00226

 Side 1  free  transition at x/c =  0.8370   67
 Side 2  free  transition at x/c =  0.0529   19

 143   rms: 0.1618E-01   max: -.2380E+00   D at   19  2
       a = -2.500      CL =  0.2369
      Cm = -0.1217     CD =  0.00863   =>   CDf =  0.00636    CDp =  0.00226

 Side 1  free  transition at x/c =  0.8370   67
 Side 2  free  transition at x/c =  0.0529   19

 144   rms: 0.1618E-01   max: -.2380E+00   D at   19  2
       a = -2.500      CL =  0.2369
      Cm = -0.1217     CD =  0.00863   =>   CDf =  0.00636    CDp =  0.00226

 Side 1  free  transition at x/c =  0.8370   67
 Side 2  free  transition at x/c =  0.0529   19

 145   rms: 0.1618E-01   max: -.2380E+00   D at   19  2
       a = -2.500      CL =  0.2369
      Cm = -0.1217     CD =  0.00863   =>   CDf =  0.00636    CDp =  0.00226

 Side 1  free  transition at x/c =  0.8370   67
 Side 2  free  transition at x/c =  0.0529   19

 146   rms: 0.1618E-01   max: -.2380E+00   D at   19  2
       a = -2.500      CL =  0.2369
      Cm = -0.1217     CD =  0.00863   =>   CDf =  0.00636    CDp =  0.00226

 Side 1  free  transition at x/c =  0.8370   67
 Side 2  free  transition at x/c =  0.0529   19

 147   rms: 0.1618E-01   max: -.2380E+00   D at   19  2
       a = -2.500      CL =  0.2369
      Cm = -0.1217     CD =  0.00863   =>   CDf =  0.00636    CDp =  0.00226

 Side 1  free  transition at x/c =  0.8370   67
 Side 2  free  transition at x/c =  0.0529   19

 148   rms: 0.1618E-01   max: -.2380E+00   D at   19  2
       a = -2.500      CL =  0.2369
      Cm = -0.1217     CD =  0.00863   =>   CDf =  0.00636    CDp =  0.00226

 Side 1  free  transition at x/c =  0.8370   67
 Side 2  free  transition at x/c =  0.0529   19

 149   rms: 0.1618E-01   max: -.2380E+00   D at   19  2
       a = -2.500      CL =  0.2369
      Cm = -0.1217     CD =  0.00863   =>   CDf =  0.00636    CDp =  0.00226

 Side 1  free  transition at x/c =  0.8370   67
 Side 2  free  transition at x/c =  0.0529   19

 150   rms: 0.1618E-01   max: -.2380E+00   D at   19  2
       a = -2.500      CL =  0.2369
      Cm = -0.1217     CD =  0.00863   =>   CDf =  0.00636    CDp =  0.00226

 Side 1  free  transition at x/c =  0.8370   67
 Side 2  free  transition at x/c =  0.0529   19

 151   rms: 0.1618E-01   max: -.2380E+00   D at   19  2
       a = -2.500      CL =  0.2369
      Cm = -0.1217     CD =  0.00863   =>   CDf =  0.00636    CDp =  0.00226

 Side 1  free  transition at x/c =  0.8370   67
 Side 2  free  transition at x/c =  0.0529   19

 152   rms: 0.1618E-01   max: -.2380E+00   D at   19  2
       a = -2.500      CL =  0.2369
      Cm = -0.1217     CD =  0.00863   =>   CDf =  0.00636    CDp =  0.00226

 Side 1  free  transition at x/c =  0.8370   67
 Side 2  free  transition at x/c =  0.0529   19

 153   rms: 0.1618E-01   max: -.2380E+00   D at   19  2
       a = -2.500      CL =  0.2369
      Cm = -0.1217     CD =  0.00863   =>   CDf =  0.00636    CDp =  0.00226

 Side 1  free  transition at x/c =  0.8370   67
 Side 2  free  transition at x/c =  0.0529   19

 154   rms: 0.1618E-01   max: -.2380E+00   D at   19  2
       a = -2.500      CL =  0.2369
      Cm = -0.1217     CD =  0.00863   =>   CDf =  0.00636    CDp =  0.00226

 Side 1  free  transition at x/c =  0.8370   67
 Side 2  free  transition at x/c =  0.0529   19

 155   rms: 0.1618E-01   max: -.2380E+00   D at   19  2
       a = -2.500      CL =  0.2369
      Cm = -0.1217     CD =  0.00863   =>   CDf =  0.00636    CDp =  0.00226
 VISCAL:  Convergence failed
 Calculating wake trajectory ...
 Calculating source influence matrix ...

 Solving BL system ...

 Side 1  free  transition at x/c =  0.8370   67
 Side 2  free  transition at x/c =  0.0529   19

   1   rms: 0.1457E+00   max: 0.1548E+01   D at    3  1   RLX: 0.331
       a = -2.000      CL =  0.2553
      Cm = -0.1216     CD =  0.00861   =>   CDf =  0.00637    CDp =  0.00224

 Side 1  free  transition at x/c =  0.8333   67
 Side 2  free  transition at x/c =  0.0569   20

   2   rms: 0.1028E+00   max: 0.7956E+00   D at   20  2   RLX: 0.790
       a = -2.000      CL =  0.2855
      Cm = -0.1218     CD =  0.00829   =>   CDf =  0.00639    CDp =  0.00190

 MRCHDU: Convergence failed at  21  side 2    Res =  0.1690E+01
 MRCHDU: Convergence failed at  22  side 2    Res =  0.1025E+01
 Side 1  free  transition at x/c =  0.8280   66
 Side 2  free  transition at x/c =  0.1367   26

   3   rms: 0.1804E+00   max: -.2191E+01   C at   26  2   RLX: 0.228
       a = -2.000      CL =  0.2739
      Cm = -0.1233     CD =  0.00803   =>   CDf =  0.00620    CDp =  0.00183

 Side 1  free  transition at x/c =  0.8270   66
 Side 2  free  transition at x/c =  0.1463   26

   4   rms: 0.6805E-01   max: -.7633E+00   C at   26  2   RLX: 0.655
       a = -2.000      CL =  0.2822
      Cm = -0.1215     CD =  0.00798   =>   CDf =  0.00611    CDp =  0.00187

 Side 1  free  transition at x/c =  0.8248   66
 Side 2  free  transition at x/c =  0.1788   29

   5   rms: 0.3517E-01   max: -.3506E+00   D at   29  2
       a = -2.000      CL =  0.2871
      Cm = -0.1207     CD =  0.00798   =>   CDf =  0.00597    CDp =  0.00201

 Side 1  free  transition at x/c =  0.8240   66
 Side 2  free  transition at x/c =  0.1037   23

   6   rms: 0.4716E-01   max: 0.1112E+01   C at   23  2
       a = -2.000      CL =  0.2890
      Cm = -0.1209     CD =  0.00827   =>   CDf =  0.00622    CDp =  0.00205

 Side 1  free  transition at x/c =  0.8241   66
 Side 2  free  transition at x/c =  0.0899   22

   7   rms: 0.1961E-02   max: -.2955E-01   D at   22  2
       a = -2.000      CL =  0.2891
      Cm = -0.1209     CD =  0.00828   =>   CDf =  0.00628    CDp =  0.00200

 Side 1  free  transition at x/c =  0.8241   66
 Side 2  free  transition at x/c =  0.0893   22

   8   rms: 0.4872E-04   max: 0.1038E-02   C at   22  2
       a = -2.000      CL =  0.2891
      Cm = -0.1209     CD =  0.00828   =>   CDf =  0.00628    CDp =  0.00200
 plradd ia,ip,cpol            4           0  1.42811118E-02

 Point added to stored polar  1
 Point written to save file  goe547_Re600k.base.pol                          
 Dump file unspecified or not available
 Calculating wake trajectory ...
 Calculating source influence matrix ...

 Solving BL system ...

 Side 1  free  transition at x/c =  0.8241   66
 Side 2  free  transition at x/c =  0.0893   22

   1   rms: 0.1136E+00   max: -.1208E+01   C at   22  2   RLX: 0.414
       a = -1.500      CL =  0.3107
      Cm = -0.1206     CD =  0.00816   =>   CDf =  0.00628    CDp =  0.00188

 Side 1  free  transition at x/c =  0.8187   66
 Side 2  free  transition at x/c =  0.1017   23

   2   rms: 0.1193E+00   max: -.2420E+01   C at   23  2   RLX: 0.207
       a = -1.500      CL =  0.3178
      Cm = -0.1205     CD =  0.00817   =>   CDf =  0.00632    CDp =  0.00184

 Side 1  free  transition at x/c =  0.8175   66
 Side 2  free  transition at x/c =  0.1037   22

   3   rms: 0.5732E-01   max: -.4733E+00   T at    2  1
       a = -1.500      CL =  0.3406
      Cm = -0.1199     CD =  0.00806   =>   CDf =  0.00632    CDp =  0.00175

 Side 1  free  transition at x/c =  0.8099   66
 Side 2  free  transition at x/c =  0.1989   29

   4   rms: 0.9108E-01   max: -.1948E+01   C at   29  2   RLX: 0.257
       a = -1.500      CL =  0.3387
      Cm = -0.1198     CD =  0.00775   =>   CDf =  0.00599    CDp =  0.00177

 Side 1  free  transition at x/c =  0.8101   66
 Side 2  free  transition at x/c =  0.2072   29

   5   rms: 0.4354E-01   max: -.9545E+00   C at   29  2   RLX: 0.524
       a = -1.500      CL =  0.3391
      Cm = -0.1199     CD =  0.00773   =>   CDf =  0.00595    CDp =  0.00178

 Side 1  free  transition at x/c =  0.8105   66
 Side 2  free  transition at x/c =  0.2151   30

   6   rms: 0.9645E-02   max: -.1587E+00   C at   30  2
       a = -1.500      CL =  0.3393
      Cm = -0.1200     CD =  0.00772   =>   CDf =  0.00591    CDp =  0.00181

 Side 1  free  transition at x/c =  0.8108   66
 Side 2  free  transition at x/c =  0.2185   30

   7   rms: 0.1278E-02   max: -.2731E-01   C at   30  2
       a = -1.500      CL =  0.3394
      Cm = -0.1200     CD =  0.00773   =>   CDf =  0.00590    CDp =  0.00183

 Side 1  free  transition at x/c =  0.8108   66
 Side 2  free  transition at x/c =  0.2190   30

   8   rms: 0.4497E-05   max: 0.7437E-04   C at   30  2
       a = -1.500      CL =  0.3394
      Cm = -0.1200     CD =  0.00773   =>   CDf =  0.00590    CDp =  0.00183
 plradd ia,ip,cpol            5           0  1.42811118E-02

 Point added to stored polar  1
 Point written to save file  goe547_Re600k.base.pol                          
 Dump file unspecified or not available
 Calculating wake trajectory ...
 Calculating source influence matrix ...

 Solving BL system ...

 Side 1  free  transition at x/c =  0.8108   66
 Side 2  free  transition at x/c =  0.2190   30

   1   rms: 0.1650E+00   max: -.2975E+01   C at   30  2   RLX: 0.168
       a = -1.000      CL =  0.3479
      Cm = -0.1198     CD =  0.00767   =>   CDf =  0.00590    CDp =  0.00178

 Side 1  free  transition at x/c =  0.8083   66
 Side 2  free  transition at x/c =  0.2339   31

   2   rms: 0.1282E+00   max: -.2235E+01   C at   31  2   RLX: 0.224
       a = -1.000      CL =  0.3577
      Cm = -0.1196     CD =  0.00762   =>   CDf =  0.00586    CDp =  0.00177

 MRCHDU: Convergence failed at  32  side 2    Res =  0.6823E-05
 Side 1  free  transition at x/c =  0.8058   66
 Side 2  free  transition at x/c =  0.2467   32

   3   rms: 0.9928E-01   max: -.1691E+01   C at   32  2   RLX: 0.296
       a = -1.000      CL =  0.3683
      Cm = -0.1196     CD =  0.00758   =>   CDf =  0.00584    CDp =  0.00175

 Side 1  free  transition at x/c =  0.8035   66
 Side 2  free  transition at x/c =  0.2587   33

   4   rms: 0.7693E-01   max: -.1298E+01   C at   33  2   RLX: 0.385
       a = -1.000      CL =  0.3783
      Cm = -0.1197     CD =  0.00755   =>   CDf =  0.00583    CDp =  0.00172

 Side 1  free  transition at x/c =  0.8017   65
 Side 2  free  transition at x/c =  0.2696   33

   5   rms: 0.3479E-01   max: -.5620E+00   C at   33  2   RLX: 0.890
       a = -1.000      CL =  0.3895
      Cm = -0.1191     CD =  0.00751   =>   CDf =  0.00582    CDp =  0.00169

 Side 1  free  transition at x/c =  0.7968   66
 Side 2  free  transition at x/c =  0.3065   35

   6   rms: 0.1182E-01   max: -.2160E+00   C at   35  2
       a = -1.000      CL =  0.3906
      Cm = -0.1191     CD =  0.00740   =>   CDf =  0.00569    CDp =  0.00172

 Side 1  free  transition at x/c =  0.7968   66
 Side 2  free  transition at x/c =  0.3093   35

   7   rms: 0.5738E-03   max: -.9008E-02   C at   35  2
       a = -1.000      CL =  0.3907
      Cm = -0.1191     CD =  0.00741   =>   CDf =  0.00566    CDp =  0.00175

 Side 1  free  transition at x/c =  0.7968   66
 Side 2  free  transition at x/c =  0.3095   35

   8   rms: 0.2202E-05   max: 0.2981E-04   C at   35  2
       a = -1.000      CL =  0.3907
      Cm = -0.1191     CD =  0.00741   =>   CDf =  0.00566    CDp =  0.00175
 plradd ia,ip,cpol            6           0  1.42811118E-02

 Point added to stored polar  1
 Point written to save file  goe547_Re600k.base.pol                          
 Dump file unspecified or not available
 Calculating wake trajectory ...
 Calculating source influence matrix ...

 Solving BL system ...

 Side 1  free  transition at x/c =  0.7968   66
 Side 2  free  transition at x/c =  0.3095   35

   1   rms: 0.2117E+00   max: -.4142E+01   C at   35  2   RLX: 0.121
       a = -0.500      CL =  0.3966
      Cm = -0.1189     CD =  0.00736   =>   CDf =  0.00566    CDp =  0.00170

 Side 1  free  transition at x/c =  0.7948   66
 Side 2  free  transition at x/c =  0.3220   36

   2   rms: 0.1818E+00   max: -.3499E+01   C at   36  2   RLX: 0.143
       a = -0.500      CL =  0.4030
      Cm = -0.1188     CD =  0.00732   =>   CDf =  0.00563    CDp =  0.00170

 Side 1  free  transition at x/c =  0.7927   66
 Side 2  free  transition at x/c =  0.3336   37

   3   rms: 0.1585E+00   max: -.2886E+01   C at   37  2   RLX: 0.173
       a = -0.500      CL =  0.4098
      Cm = -0.1187     CD =  0.00729   =>   CDf =  0.00561    CDp =  0.00168

 Side 1  free  transition at x/c =  0.7907   66
 Side 2  free  transition at x/c =  0.3464   37

   4   rms: 0.1302E+00   max: -.2512E+01   C at   37  2   RLX: 0.199
       a = -0.500      CL =  0.4167
      Cm = -0.1186     CD =  0.00728   =>   CDf =  0.00559    CDp =  0.00170

 Side 1  free  transition at x/c =  0.7889   66
 Side 2  free  transition at x/c =  0.3624   39

   5   rms: 0.1203E+00   max: -.2173E+01   C at   39  2   RLX: 0.230
       a = -0.500      CL =  0.4227
      Cm = -0.1186     CD =  0.00723   =>   CDf =  0.00556    CDp =  0.00167

 Side 1  free  transition at x/c =  0.7874   65
 Side 2  free  transition at x/c =  0.3761   39

   6   rms: 0.9294E-01   max: -.1833E+01   C at   39  2   RLX: 0.273
       a = -0.500      CL =  0.4275
      Cm = -0.1184     CD =  0.00720   =>   CDf =  0.00552    CDp =  0.00167

 Side 1  free  transition at x/c =  0.7852   65
 Side 2  free  transition at x/c =  0.3915   40

   7   rms: 0.6474E-01   max: -.1263E+01   C at   40  2   RLX: 0.396
       a = -0.500      CL =  0.4325
      Cm = -0.1181     CD =  0.00715   =>   CDf =  0.00547    CDp =  0.00168

 Side 1  free  transition at x/c =  0.7829   65
 Side 2  free  transition at x/c =  0.4111   42

   8   rms: 0.4111E-01   max: -.7742E+00   C at   42  2   RLX: 0.646
       a = -0.500      CL =  0.4372
      Cm = -0.1179     CD =  0.00708   =>   CDf =  0.00541    CDp =  0.00167

 Side 1  free  transition at x/c =  0.7808   65
 Side 2  free  transition at x/c =  0.4238   42

   9   rms: 0.1483E-01   max: -.2877E+00   C at   42  2
       a = -0.500      CL =  0.4403
      Cm = -0.1178     CD =  0.00709   =>   CDf =  0.00538    CDp =  0.00170

 Side 1  free  transition at x/c =  0.7798   65
 Side 2  free  transition at x/c =  0.4384   43

  10   rms: 0.1488E-02   max: 0.2451E-01   D at   42  2
       a = -0.500      CL =  0.4402
      Cm = -0.1178     CD =  0.00707   =>   CDf =  0.00534    CDp =  0.00173

 Side 1  free  transition at x/c =  0.7798   65
 Side 2  free  transition at x/c =  0.4363   43

  11   rms: 0.3005E-03   max: -.5956E-02   C at   43  2
       a = -0.500      CL =  0.4402
      Cm = -0.1178     CD =  0.00707   =>   CDf =  0.00534    CDp =  0.00173

 Side 1  free  transition at x/c =  0.7798   65
 Side 2  free  transition at x/c =  0.4364   43

  12   rms: 0.1303E-05   max: -.1711E-04   C at   43  2
       a = -0.500      CL =  0.4402
      Cm = -0.1178     CD =  0.00707   =>   CDf =  0.00534    CDp =  0.00173
 plradd ia,ip,cpol            7           0  0.41493243    

 Point added to stored polar  1
 Point written to save file  goe547_Re600k.base.pol                          
 Dump file unspecified or not available
 Calculating wake trajectory ...
 Calculating source influence matrix ...

 Solving BL system ...

 Side 1  free  transition at x/c =  0.7798   65
 Side 2  free  transition at x/c =  0.4364   43

   1   rms: 0.1564E+00   max: -.2699E+01   C at   43  2   RLX: 0.185
       a =  0.000      CL =  0.4494
      Cm = -0.1176     CD =  0.00704   =>   CDf =  0.00534    CDp =  0.00169

 Side 1  free  transition at x/c =  0.7759   65
 Side 2  free  transition at x/c =  0.4607   45

   2   rms: 0.1464E+00   max: -.2540E+01   C at   45  2   RLX: 0.197
       a =  0.000      CL =  0.4572
      Cm = -0.1173     CD =  0.00699   =>   CDf =  0.00529    CDp =  0.00170

 Side 1  free  transition at x/c =  0.7731   65
 Side 2  free  transition at x/c =  0.4793   45

   3   rms: 0.8642E-01   max: -.1289E+01   C at   45  2   RLX: 0.388
       a =  0.000      CL =  0.4689
      Cm = -0.1167     CD =  0.00694   =>   CDf =  0.00528    CDp =  0.00166

 Side 1  free  transition at x/c =  0.7667   65
 Side 2  free  transition at x/c =  0.5118   47

   4   rms: 0.4709E-01   max: -.6156E+00   C at   47  2   RLX: 0.812
       a =  0.000      CL =  0.4849
      Cm = -0.1162     CD =  0.00687   =>   CDf =  0.00519    CDp =  0.00169

 Side 1  free  transition at x/c =  0.7601   65
 Side 2  free  transition at x/c =  0.5401   49

   5   rms: 0.7570E-02   max: 0.5508E-01   D at   47  2
       a =  0.000      CL =  0.4892
      Cm = -0.1163     CD =  0.00685   =>   CDf =  0.00514    CDp =  0.00171

 Side 1  free  transition at x/c =  0.7598   65
 Side 2  free  transition at x/c =  0.5413   49

   6   rms: 0.1889E-03   max: 0.3129E-02   C at   49  2
       a =  0.000      CL =  0.4892
      Cm = -0.1163     CD =  0.00686   =>   CDf =  0.00514    CDp =  0.00172

 Side 1  free  transition at x/c =  0.7597   65
 Side 2  free  transition at x/c =  0.5412   49

   7   rms: 0.1345E-05   max: -.2194E-04   C at   49  2
       a =  0.000      CL =  0.4892
      Cm = -0.1163     CD =  0.00686   =>   CDf =  0.00514    CDp =  0.00172
 plradd ia,ip,cpol            8           0  0.40002346    

 Point added to stored polar  1
 Point written to save file  goe547_Re600k.base.pol                          
 Dump file unspecified or not available
 Calculating wake trajectory ...
 Calculating source influence matrix ...

 Solving BL system ...

 Side 1  free  transition at x/c =  0.7597   65
 Side 2  free  transition at x/c =  0.5412   49

   1   rms: 0.1394E+00   max: -.2140E+01   C at   49  2   RLX: 0.234
       a =  0.500      CL =  0.5013
      Cm = -0.1160     CD =  0.00684   =>   CDf =  0.00514    CDp =  0.00170

 Side 1  free  transition at x/c =  0.7557   64
 Side 2  free  transition at x/c =  0.5598   50

   2   rms: 0.9150E-01   max: -.1315E+01   C at   50  2   RLX: 0.380
       a =  0.500      CL =  0.5149
      Cm = -0.1155     CD =  0.00678   =>   CDf =  0.00511    CDp =  0.00168

 Side 1  free  transition at x/c =  0.7472   64
 Side 2  free  transition at x/c =  0.5878   52

   3   rms: 0.6638E-01   max: -.1042E+01   C at   52  2   RLX: 0.480
       a =  0.500      CL =  0.5254
      Cm = -0.1148     CD =  0.00676   =>   CDf =  0.00503    CDp =  0.00173

 Side 1  free  transition at x/c =  0.7427   64
 Side 2  free  transition at x/c =  0.6153   53

   4   rms: 0.4311E-01   max: -.7298E+00   C at   53  2   RLX: 0.685
       a =  0.500      CL =  0.5326
      Cm = -0.1144     CD =  0.00667   =>   CDf =  0.00500    CDp =  0.00167

 Side 1  free  transition at x/c =  0.7389   64
 Side 2  free  transition at x/c =  0.6360   54

   5   rms: 0.1555E-01   max: -.2734E+00   C at   54  2
       a =  0.500      CL =  0.5362
      Cm = -0.1142     CD =  0.00664   =>   CDf =  0.00493    CDp =  0.00171

 Side 1  free  transition at x/c =  0.7375   64
 Side 2  free  transition at x/c =  0.6496   55

   6   rms: 0.6720E-03   max: -.9761E-02   D at   57  2
       a =  0.500      CL =  0.5360
      Cm = -0.1142     CD =  0.00663   =>   CDf =  0.00488    CDp =  0.00175

 Side 1  free  transition at x/c =  0.7376   64
 Side 2  free  transition at x/c =  0.6495   55

   7   rms: 0.5799E-05   max: 0.1023E-03   C at   55  2
       a =  0.500      CL =  0.5360
      Cm = -0.1142     CD =  0.00663   =>   CDf =  0.00488    CDp =  0.00175
 plradd ia,ip,cpol            9           0  0.16233633    

 Point added to stored polar  1
 Point written to save file  goe547_Re600k.base.pol                          
 Dump file unspecified or not available
 Calculating wake trajectory ...
 Calculating source influence matrix ...

 Solving BL system ...

 Side 1  free  transition at x/c =  0.7376   64
 Side 2  free  transition at x/c =  0.6495   55

   1   rms: 0.2084E+00   max: -.3702E+01   C at   55  2   RLX: 0.135
       a =  1.000      CL =  0.5419
      Cm = -0.1138     CD =  0.00658   =>   CDf =  0.00488    CDp =  0.00170

 Side 1  free  transition at x/c =  0.7340   64
 Side 2  free  transition at x/c =  0.6687   56

   2   rms: 0.1712E+00   max: -.2984E+01   C at   56  2   RLX: 0.168
       a =  1.000      CL =  0.5485
      Cm = -0.1135     CD =  0.00655   =>   CDf =  0.00484    CDp =  0.00171

 Side 1  free  transition at x/c =  0.7305   64
 Side 2  free  transition at x/c =  0.6960   58

   3   rms: 0.1980E+00   max: -.3628E+01   C at   58  2   RLX: 0.138
       a =  1.000      CL =  0.5523
      Cm = -0.1130     CD =  0.00648   =>   CDf =  0.00477    CDp =  0.00171

 Side 1  free  transition at x/c =  0.7285   63
 Side 2  free  transition at x/c =  0.7171   60

   4   rms: 0.2173E+00   max: -.4135E+01   C at   60  2   RLX: 0.121
       a =  1.000      CL =  0.5549
      Cm = -0.1127     CD =  0.00641   =>   CDf =  0.00472    CDp =  0.00168

 Side 1  free  transition at x/c =  0.7267   63
 Side 2  free  transition at x/c =  0.7333   61

   5   rms: 0.2433E+00   max: -.4662E+01   C at   61  2   RLX: 0.107
       a =  1.000      CL =  0.5568
      Cm = -0.1124     CD =  0.00636   =>   CDf =  0.00466    CDp =  0.00169

 Side 1  free  transition at x/c =  0.7253   63
 Side 2  free  transition at x/c =  0.7492   62

   6   rms: 0.2890E+00   max: -.5508E+01   C at   62  2   RLX: 0.091
       a =  1.000      CL =  0.5580
      Cm = -0.1121     CD =  0.00630   =>   CDf =  0.00460    CDp =  0.00170

 Side 1  free  transition at x/c =  0.7243   63
 Side 2  free  transition at x/c =  0.7651   63

   7   rms: 0.3471E+00   max: -.6533E+01   C at   63  2   RLX: 0.077
       a =  1.000      CL =  0.5587
      Cm = -0.1119     CD =  0.00625   =>   CDf =  0.00454    CDp =  0.00171

 Side 1  free  transition at x/c =  0.7236   63
 Side 2  free  transition at x/c =  0.7906   64

   8   rms: 0.5690E+00   max: -.9890E+01   C at   64  2   RLX: 0.051
       a =  1.000      CL =  0.5589
      Cm = -0.1116     CD =  0.00618   =>   CDf =  0.00445    CDp =  0.00174

 Side 1  free  transition at x/c =  0.7231   63
 Side 2  free  transition at x/c =  0.8053   65

   9   rms: 0.6904E+00   max: -.1194E+02   C at   65  2   RLX: 0.042
       a =  1.000      CL =  0.5591
      Cm = -0.1114     CD =  0.00614   =>   CDf =  0.00440    CDp =  0.00174

 Side 1  free  transition at x/c =  0.7228   63
 Side 2  free  transition at x/c =  0.8311   67

  10   rms: 0.1111E+01   max: -.1955E+02   C at   67  2   RLX: 0.026
       a =  1.000      CL =  0.5592
      Cm = -0.1113     CD =  0.00608   =>   CDf =  0.00432    CDp =  0.00176

 Side 1  free  transition at x/c =  0.7226   63
 Side 2  free  transition at x/c =  0.8526   68

  11   rms: 0.2575E+01   max: -.4367E+02   C at   68  2   RLX: 0.011
       a =  1.000      CL =  0.5600
      Cm = -0.1114     CD =  0.00604   =>   CDf =  0.00426    CDp =  0.00178

 Side 1  free  transition at x/c =  0.7226   63
 Side 2  free  transition at x/c =  0.8750   70

  12   rms: 0.1910E+01   max: 0.3370E+02   C at   70  2   RLX: 0.045
       a =  1.000      CL =  0.5533
      Cm = -0.1098     CD =  0.00614   =>   CDf =  0.00421    CDp =  0.00193

 Side 1  free  transition at x/c =  0.7222   63
 Side 2  free  transition at x/c =  0.8189   66

  13   rms: 0.8960E+00   max: -.1560E+02   C at   66  2   RLX: 0.032
       a =  1.000      CL =  0.5538
      Cm = -0.1098     CD =  0.00609   =>   CDf =  0.00436    CDp =  0.00174

 Side 1  free  transition at x/c =  0.7220   63
 Side 2  free  transition at x/c =  0.8445   68

  14   rms: 0.2333E+01   max: -.4096E+02   C at   68  2   RLX: 0.012
       a =  1.000      CL =  0.5545
      Cm = -0.1097     CD =  0.00604   =>   CDf =  0.00428    CDp =  0.00176

 Side 1  free  transition at x/c =  0.7219   63
 Side 2  free  transition at x/c =  0.8636   69

  15   rms: 0.2779E+01   max: 0.4679E+02   C at   69  2   RLX: 0.032
       a =  1.000      CL =  0.5494
      Cm = -0.1086     CD =  0.00614   =>   CDf =  0.00422    CDp =  0.00191

 Side 1  free  transition at x/c =  0.7217   63
 Side 2  free  transition at x/c =  0.8260   67

  16   rms: 0.9375E+00   max: -.1697E+02   C at   67  2   RLX: 0.029
       a =  1.000      CL =  0.5500
      Cm = -0.1086     CD =  0.00606   =>   CDf =  0.00433    CDp =  0.00173

 Side 1  free  transition at x/c =  0.7215   63
 Side 2  free  transition at x/c =  0.8483   68

  17   rms: 0.4995E+01   max: -.8456E+02   C at   68  2   RLX: 0.006
       a =  1.000      CL =  0.5510
      Cm = -0.1087     CD =  0.00602   =>   CDf =  0.00426    CDp =  0.00176

 Side 1  free  transition at x/c =  0.7215   63
 Side 2  free  transition at x/c =  0.8679   69

  18   rms: 0.1205E+01   max: 0.1932E+02   C at   69  2   RLX: 0.078
       a =  1.000      CL =  0.5444
      Cm = -0.1070     CD =  0.00610   =>   CDf =  0.00420    CDp =  0.00190

 Side 1  free  transition at x/c =  0.7210   63
 Side 2  free  transition at x/c =  0.8431   68

  19   rms: 0.2813E+01   max: -.4922E+02   C at   68  2   RLX: 0.010
       a =  1.000      CL =  0.5453
      Cm = -0.1070     CD =  0.00602   =>   CDf =  0.00428    CDp =  0.00174

 Side 1  free  transition at x/c =  0.7210   63
 Side 2  free  transition at x/c =  0.8610   69

  20   rms: 0.1711E+01   max: 0.2861E+02   C at   69  2   RLX: 0.052
       a =  1.000      CL =  0.5394
      Cm = -0.1056     CD =  0.00611   =>   CDf =  0.00422    CDp =  0.00189

 Side 1  free  transition at x/c =  0.7207   63
 Side 2  free  transition at x/c =  0.8240   67

  21   rms: 0.1065E+01   max: -.1946E+02   C at   67  2   RLX: 0.026
       a =  1.000      CL =  0.5403
      Cm = -0.1057     CD =  0.00604   =>   CDf =  0.00434    CDp =  0.00170

 Side 1  free  transition at x/c =  0.7206   63
 Side 2  free  transition at x/c =  0.8394   68

  22   rms: 0.2339E+01   max: -.4182E+02   C at   68  2   RLX: 0.012
       a =  1.000      CL =  0.5415
      Cm = -0.1059     CD =  0.00602   =>   CDf =  0.00429    CDp =  0.00173

 Side 1  free  transition at x/c =  0.7205   63
 Side 2  free  transition at x/c =  0.8550   69

  23   rms: 0.2758E+01   max: 0.4769E+02   C at   69  2   RLX: 0.031
       a =  1.000      CL =  0.5362
      Cm = -0.1047     CD =  0.00612   =>   CDf =  0.00424    CDp =  0.00188

 Side 1  free  transition at x/c =  0.7203   63
 Side 2  free  transition at x/c =  0.8129   66

  24   rms: 0.9214E+00   max: -.1660E+02   C at   66  2   RLX: 0.030
       a =  1.000      CL =  0.5370
      Cm = -0.1048     CD =  0.00606   =>   CDf =  0.00437    CDp =  0.00169

 Side 1  free  transition at x/c =  0.7202   63
 Side 2  free  transition at x/c =  0.8295   67

  25   rms: 0.1484E+01   max: -.2605E+02   C at   67  2   RLX: 0.019
       a =  1.000      CL =  0.5381
      Cm = -0.1049     CD =  0.00603   =>   CDf =  0.00432    CDp =  0.00171

 Side 1  free  transition at x/c =  0.7201   63
 Side 2  free  transition at x/c =  0.8457   68

[...]

 Side 1  free  transition at x/c =  0.0100   22
 Side 2 forced transition at x/c =  1.0000   68

   4   rms: 0.1321E-02   max: -.1528E-01   D at    4  1
       a = 12.750      CL =  1.3071
      Cm = -0.0300     CD =  0.03853   =>   CDf =  0.00597    CDp =  0.03255

 Side 1  free  transition at x/c =  0.0100   22
 Side 2 forced transition at x/c =  1.0000   68

   5   rms: 0.2162E-05   max: 0.1706E-04   D at    8  1
       a = 12.750      CL =  1.3071
      Cm = -0.0300     CD =  0.03853   =>   CDf =  0.00597    CDp =  0.03255
 plradd ia,ip,cpol           39           0  2.19456982E-04

 Point added to stored polar  1
 Point written to save file  goe547_Re600k.base.pol                          
 Dump file unspecified or not available
 Calculating wake trajectory ...
 Calculating source influence matrix ...

 Solving BL system ...

 Side 1  free  transition at x/c =  0.0100   22
 Side 2 forced transition at x/c =  1.0000   68

   1   rms: 0.3264E-01   max: 0.1363E+00   T at   22  1   RLX: 0.657
       a = 13.000      CL =  1.3132
      Cm = -0.0293     CD =  0.03960   =>   CDf =  0.00598    CDp =  0.03362

 Side 1  free  transition at x/c =  0.0098   22
 Side 2 forced transition at x/c =  1.0000   68

   2   rms: 0.1144E-01   max: 0.3787E-01   D at   75  1
       a = 13.000      CL =  1.3146
      Cm = -0.0288     CD =  0.04022   =>   CDf =  0.00592    CDp =  0.03429

 Side 1  free  transition at x/c =  0.0097   22
 Side 2 forced transition at x/c =  1.0000   68

   3   rms: 0.1249E-02   max: 0.5901E-02   D at   22  1
       a = 13.000      CL =  1.3139
      Cm = -0.0287     CD =  0.04020   =>   CDf =  0.00589    CDp =  0.03430

 Side 1  free  transition at x/c =  0.0097   22
 Side 2 forced transition at x/c =  1.0000   68

   4   rms: 0.8679E-04   max: 0.4161E-03   D at   81  2
       a = 13.000      CL =  1.3138
      Cm = -0.0287     CD =  0.04019   =>   CDf =  0.00589    CDp =  0.03430
 plradd ia,ip,cpol           40           0  2.19456982E-04

 Point added to stored polar  1
 Point written to save file  goe547_Re600k.base.pol                          
 Dump file unspecified or not available
 Calculating wake trajectory ...
 Calculating source influence matrix ...

 Solving BL system ...

 Side 1  free  transition at x/c =  0.0097   22
 Side 2 forced transition at x/c =  1.0000   68

   1   rms: 0.3445E-01   max: 0.8949E-01   D at   71  1   RLX: 0.637
       a = 13.250      CL =  1.3182
      Cm = -0.0279     CD =  0.04149   =>   CDf =  0.00589    CDp =  0.03560

 Side 1  free  transition at x/c =  0.0096   22
 Side 2 forced transition at x/c =  1.0000   68

   2   rms: 0.1248E-01   max: 0.3798E-01   D at   74  1
       a = 13.250      CL =  1.3192
      Cm = -0.0273     CD =  0.04222   =>   CDf =  0.00583    CDp =  0.03640

 Side 1  free  transition at x/c =  0.0095   22
 Side 2 forced transition at x/c =  1.0000   68

   3   rms: 0.1316E-02   max: 0.9474E-02   D at   81  2
       a = 13.250      CL =  1.3183
      Cm = -0.0273     CD =  0.04219   =>   CDf =  0.00579    CDp =  0.03640

 Side 1  free  transition at x/c =  0.0095   22
 Side 2 forced transition at x/c =  1.0000   68

   4   rms: 0.3955E-04   max: 0.5725E-03   D at   81  2
       a = 13.250      CL =  1.3183
      Cm = -0.0273     CD =  0.04219   =>   CDf =  0.00579    CDp =  0.03640
 plradd ia,ip,cpol           41           0  2.19456982E-04

 Point added to stored polar  1
 Point written to save file  goe547_Re600k.base.pol                          
 Dump file unspecified or not available
 Calculating wake trajectory ...
 Calculating source influence matrix ...

 Solving BL system ...

 Side 1  free  transition at x/c =  0.0095   22
 Side 2 forced transition at x/c =  1.0000   68

   1   rms: 0.3335E-01   max: 0.8742E-01   D at   70  1   RLX: 0.618
       a = 13.500      CL =  1.3225
      Cm = -0.0266     CD =  0.04347   =>   CDf =  0.00579    CDp =  0.03768

 Side 1  free  transition at x/c =  0.0094   22
 Side 2 forced transition at x/c =  1.0000   68

   2   rms: 0.1299E-01   max: 0.3765E-01   D at   73  1
       a = 13.500      CL =  1.3238
      Cm = -0.0260     CD =  0.04425   =>   CDf =  0.00573    CDp =  0.03852

 Side 1  free  transition at x/c =  0.0094   22
 Side 2 forced transition at x/c =  1.0000   68

   3   rms: 0.1346E-02   max: 0.6555E-02   D at   73  1
       a = 13.500      CL =  1.3227
      Cm = -0.0260     CD =  0.04422   =>   CDf =  0.00569    CDp =  0.03853

 Side 1  free  transition at x/c =  0.0094   22
 Side 2 forced transition at x/c =  1.0000   68

   4   rms: 0.3391E-04   max: -.4134E-03   C at   68  2
       a = 13.500      CL =  1.3227
      Cm = -0.0260     CD =  0.04421   =>   CDf =  0.00569    CDp =  0.03852
 plradd ia,ip,cpol           42           0  2.19456982E-04

 Point added to stored polar  1
 Point written to save file  goe547_Re600k.base.pol                          
 Dump file unspecified or not available
 Calculating wake trajectory ...
 Calculating source influence matrix ...

 Solving BL system ...

 Side 1  free  transition at x/c =  0.0094   22
 Side 2 forced transition at x/c =  1.0000   68

   1   rms: 0.3295E-01   max: 0.9617E-01   T at   22  1   RLX: 0.600
       a = 13.750      CL =  1.3266
      Cm = -0.0254     CD =  0.04551   =>   CDf =  0.00569    CDp =  0.03982

 Side 1  free  transition at x/c =  0.0092   22
 Side 2 forced transition at x/c =  1.0000   68

   2   rms: 0.1300E-01   max: 0.3927E-01   D at   72  1
       a = 13.750      CL =  1.3276
      Cm = -0.0249     CD =  0.04636   =>   CDf =  0.00563    CDp =  0.04073

 Side 1  free  transition at x/c =  0.0092   22
 Side 2 forced transition at x/c =  1.0000   68

   3   rms: 0.1105E-02   max: 0.5811E-02   D at   82  2
       a = 13.750      CL =  1.3268
      Cm = -0.0248     CD =  0.04629   =>   CDf =  0.00559    CDp =  0.04070

 Side 1  free  transition at x/c =  0.0092   22
 Side 2 forced transition at x/c =  1.0000   68

   4   rms: 0.3010E-04   max: -.2671E-03   C at   68  2
       a = 13.750      CL =  1.3268
      Cm = -0.0248     CD =  0.04628   =>   CDf =  0.00559    CDp =  0.04069
 plradd ia,ip,cpol           43           0  3.94687413E-06

 Point added to stored polar  1
 Point written to save file  goe547_Re600k.base.pol                          
 Dump file unspecified or not available
 Calculating wake trajectory ...
 Calculating source influence matrix ...

 Solving BL system ...

 Side 1  free  transition at x/c =  0.0092   22
 Side 2 forced transition at x/c =  1.0000   68

   1   rms: 0.3283E-01   max: 0.1193E+00   T at   22  1   RLX: 0.582
       a = 14.000      CL =  1.3299
      Cm = -0.0243     CD =  0.04763   =>   CDf =  0.00559    CDp =  0.04204

 Side 1  free  transition at x/c =  0.0090   22
 Side 2 forced transition at x/c =  1.0000   68

   2   rms: 0.1345E-01   max: 0.4570E-01   T at   22  1
       a = 14.000      CL =  1.3306
      Cm = -0.0239     CD =  0.04859   =>   CDf =  0.00554    CDp =  0.04305

 Side 1  free  transition at x/c =  0.0089   22
 Side 2 forced transition at x/c =  1.0000   68

   3   rms: 0.1176E-02   max: 0.6667E-02   D at   82  2
       a = 14.000      CL =  1.3297
      Cm = -0.0239     CD =  0.04852   =>   CDf =  0.00550    CDp =  0.04301

 Side 1  free  transition at x/c =  0.0089   22
 Side 2 forced transition at x/c =  1.0000   68

   4   rms: 0.4090E-04   max: -.2602E-03   C at   68  2
       a = 14.000      CL =  1.3297
      Cm = -0.0239     CD =  0.04851   =>   CDf =  0.00550    CDp =  0.04300
 plradd ia,ip,cpol           44           0  2.19456982E-04

 Point added to stored polar  1
 Point written to save file  goe547_Re600k.base.pol                          
 Dump file unspecified or not available
 Calculating wake trajectory ...
 Calculating source influence matrix ...

 Solving BL system ...

 Side 1  free  transition at x/c =  0.0089   22
 Side 2 forced transition at x/c =  1.0000   68

   1   rms: 0.3314E-01   max: 0.9118E-01   D at   67  1   RLX: 0.565
       a = 14.250      CL =  1.3326
      Cm = -0.0234     CD =  0.04993   =>   CDf =  0.00551    CDp =  0.04442

 Side 1  free  transition at x/c =  0.0088   22
 Side 2 forced transition at x/c =  1.0000   68

   2   rms: 0.1474E-01   max: 0.4756E-01   D at   71  1
       a = 14.250      CL =  1.3331
      Cm = -0.0229     CD =  0.05102   =>   CDf =  0.00544    CDp =  0.04558

 Side 1  free  transition at x/c =  0.0088   22
 Side 2 forced transition at x/c =  1.0000   68

   3   rms: 0.1702E-02   max: 0.9967E-02   D at   82  2
       a = 14.250      CL =  1.3319
      Cm = -0.0229     CD =  0.05095   =>   CDf =  0.00539    CDp =  0.04556

 Side 1  free  transition at x/c =  0.0088   22
 Side 2 forced transition at x/c =  1.0000   68

   4   rms: 0.5201E-04   max: -.5681E-03   C at   68  2
       a = 14.250      CL =  1.3318
      Cm = -0.0228     CD =  0.05093   =>   CDf =  0.00539    CDp =  0.04555
 plradd ia,ip,cpol           45           0  3.94687413E-06

 Point added to stored polar  1
 Point written to save file  goe547_Re600k.base.pol                          
 Dump file unspecified or not available
 Calculating wake trajectory ...
 Calculating source influence matrix ...

 Solving BL system ...

 Side 1  free  transition at x/c =  0.0088   22
 Side 2 forced transition at x/c =  1.0000   68

   1   rms: 0.3289E-01   max: 0.9298E-01   D at   67  1   RLX: 0.549
       a = 14.500      CL =  1.3342
      Cm = -0.0225     CD =  0.05240   =>   CDf =  0.00539    CDp =  0.04701

 Side 1  free  transition at x/c =  0.0088   22
 Side 2 forced transition at x/c =  1.0000   68

   2   rms: 0.1487E-01   max: 0.4824E-01   D at   70  1
       a = 14.500      CL =  1.3344
      Cm = -0.0221     CD =  0.05359   =>   CDf =  0.00533    CDp =  0.04826

 Side 1  free  transition at x/c =  0.0087   22
 Side 2 forced transition at x/c =  1.0000   68

   3   rms: 0.1716E-02   max: 0.7708E-02   D at   83  2
       a = 14.500      CL =  1.3331
      Cm = -0.0220     CD =  0.05350   =>   CDf =  0.00528    CDp =  0.04822

 Side 1  free  transition at x/c =  0.0087   22
 Side 2 forced transition at x/c =  1.0000   68

   4   rms: 0.4433E-04   max: -.4978E-03   C at   68  2
       a = 14.500      CL =  1.3331
      Cm = -0.0220     CD =  0.05348   =>   CDf =  0.00528    CDp =  0.04820
 plradd ia,ip,cpol           46           0  3.94687413E-06

 Point added to stored polar  1
 Point written to save file  goe547_Re600k.base.pol                          
 Dump file unspecified or not available
 Calculating wake trajectory ...
 Calculating source influence matrix ...

 Solving BL system ...

 Side 1  free  transition at x/c =  0.0087   22
 Side 2 forced transition at x/c =  1.0000   68

   1   rms: 0.3295E-01   max: 0.9543E-01   D at   66  1   RLX: 0.532
       a = 14.750      CL =  1.3350
      Cm = -0.0217     CD =  0.05500   =>   CDf =  0.00528    CDp =  0.04972

 Side 1  free  transition at x/c =  0.0086   22
 Side 2 forced transition at x/c =  1.0000   68

   2   rms: 0.1557E-01   max: 0.4937E-01   D at   69  1
       a = 14.750      CL =  1.3350
      Cm = -0.0214     CD =  0.05632   =>   CDf =  0.00522    CDp =  0.05109

 Side 1  free  transition at x/c =  0.0086   22
 Side 2 forced transition at x/c =  1.0000   68

   3   rms: 0.1987E-02   max: 0.9433E-02   D at   83  2
       a = 14.750      CL =  1.3335
      Cm = -0.0213     CD =  0.05624   =>   CDf =  0.00517    CDp =  0.05107

 Side 1  free  transition at x/c =  0.0086   22
 Side 2 forced transition at x/c =  1.0000   68

   4   rms: 0.5396E-04   max: -.6442E-03   C at   68  2
       a = 14.750      CL =  1.3335
      Cm = -0.0213     CD =  0.05622   =>   CDf =  0.00517    CDp =  0.05105
 plradd ia,ip,cpol           47           0  3.94687413E-06

 Point added to stored polar  1
 Point written to save file  goe547_Re600k.base.pol                          
 Dump file unspecified or not available
 Calculating wake trajectory ...
 Calculating source influence matrix ...

 Solving BL system ...

 Side 1  free  transition at x/c =  0.0086   22
 Side 2 forced transition at x/c =  1.0000   68

   1   rms: 0.3302E-01   max: 0.9929E-01   D at   64  1   RLX: 0.517
       a = 15.000      CL =  1.3349
      Cm = -0.0211     CD =  0.05783   =>   CDf =  0.00517    CDp =  0.05265

 Side 1  free  transition at x/c =  0.0086   22
 Side 2 forced transition at x/c =  1.0000   68

   2   rms: 0.1632E-01   max: 0.5237E-01   D at   68  1
       a = 15.000      CL =  1.3344
      Cm = -0.0208     CD =  0.05931   =>   CDf =  0.00511    CDp =  0.05421

 Side 1  free  transition at x/c =  0.0086   22
 Side 2 forced transition at x/c =  1.0000   68

   3   rms: 0.2434E-02   max: 0.1253E-01   D at   83  2
       a = 15.000      CL =  1.3327
      Cm = -0.0207     CD =  0.05923   =>   CDf =  0.00504    CDp =  0.05419

 Side 1  free  transition at x/c =  0.0086   22
 Side 2 forced transition at x/c =  1.0000   68

   4   rms: 0.1027E-03   max: 0.1545E-02   D at   83  2
       a = 15.000      CL =  1.3327
      Cm = -0.0207     CD =  0.05919   =>   CDf =  0.00504    CDp =  0.05416

 Side 1  free  transition at x/c =  0.0086   22
 Side 2 forced transition at x/c =  1.0000   68

   5   rms: 0.4225E-05   max: 0.1537E-04   T at   22  1
       a = 15.000      CL =  1.3327
      Cm = -0.0207     CD =  0.05919   =>   CDf =  0.00504    CDp =  0.05416
 plradd ia,ip,cpol           48           0  3.94687413E-06

 Point added to stored polar  1
 Point written to save file  goe547_Re600k.base.pol                          
 Dump file unspecified or not available
 Calculating wake trajectory ...
 Calculating source influence matrix ...

 Solving BL system ...

 Side 1  free  transition at x/c =  0.0086   22
 Side 2 forced transition at x/c =  1.0000   68

   1   rms: 0.3286E-01   max: 0.1021E+00   D at   63  1   RLX: 0.501
       a = 15.250      CL =  1.3334
      Cm = -0.0206     CD =  0.06086   =>   CDf =  0.00504    CDp =  0.05582

 Side 1  free  transition at x/c =  0.0085   22
 Side 2 forced transition at x/c =  1.0000   68

   2   rms: 0.1674E-01   max: 0.5343E-01   D at   67  1
       a = 15.250      CL =  1.3326
      Cm = -0.0204     CD =  0.06248   =>   CDf =  0.00498    CDp =  0.05750

 Side 1  free  transition at x/c =  0.0084   22
 Side 2 forced transition at x/c =  1.0000   68

   3   rms: 0.2531E-02   max: 0.1197E-01   D at   67  1
       a = 15.250      CL =  1.3307
      Cm = -0.0203     CD =  0.06238   =>   CDf =  0.00493    CDp =  0.05745

 Side 1  free  transition at x/c =  0.0084   22
 Side 2 forced transition at x/c =  1.0000   68

   4   rms: 0.7401E-04   max: -.8283E-03   C at   68  2
       a = 15.250      CL =  1.3307
      Cm = -0.0203     CD =  0.06234   =>   CDf =  0.00493    CDp =  0.05742
 plradd ia,ip,cpol           49           0  3.94687413E-06

 Point added to stored polar  1
 Point written to save file  goe547_Re600k.base.pol                          
 Dump file unspecified or not available
 Calculating wake trajectory ...
 Calculating source influence matrix ...

 Solving BL system ...

 Side 1  free  transition at x/c =  0.0084   22
 Side 2 forced transition at x/c =  1.0000   68

   1   rms: 0.3475E-01   max: 0.1479E+00   T at   22  1   RLX: 0.486
       a = 15.500      CL =  1.3309
      Cm = -0.0203     CD =  0.06411   =>   CDf =  0.00493    CDp =  0.05919

 Side 1  free  transition at x/c =  0.0083   22
 Side 2 forced transition at x/c =  1.0000   68

   2   rms: 0.2014E-01   max: 0.7715E-01   T at   22  1
       a = 15.500      CL =  1.3285
      Cm = -0.0200     CD =  0.06616   =>   CDf =  0.00447    CDp =  0.06169

 Side 1  free  transition at x/c =  0.0082   23
 Side 2 forced transition at x/c =  1.0000   67

   3   rms: 0.1163E-01   max: -.1869E+00   D at    2  1
       a = 15.500      CL =  1.3254
      Cm = -0.0199     CD =  0.06618   =>   CDf =  0.00479    CDp =  0.06139

 Side 1  free  transition at x/c =  0.0082   23
 Side 2 forced transition at x/c =  1.0000   67

   4   rms: 0.9035E-03   max: -.1387E-01   T at    2  1
       a = 15.500      CL =  1.3255
      Cm = -0.0199     CD =  0.06615   =>   CDf =  0.00480    CDp =  0.06135

 Side 1  free  transition at x/c =  0.0082   23
 Side 2 forced transition at x/c =  1.0000   67

   5   rms: 0.4877E-04   max: 0.4680E-03   D at    6  1
       a = 15.500      CL =  1.3255
      Cm = -0.0199     CD =  0.06615   =>   CDf =  0.00480    CDp =  0.06135
 plradd ia,ip,cpol           50           0  3.94687413E-06

 Point added to stored polar  1
 Point written to save file  goe547_Re600k.base.pol                          
 Dump file unspecified or not available
 Calculating wake trajectory ...
 Calculating source influence matrix ...

 Solving BL system ...

 Side 1  free  transition at x/c =  0.0082   23
 Side 2 forced transition at x/c =  1.0000   67

   1   rms: 0.3403E-01   max: -.1874E+00   D at    3  1   RLX: 0.470
       a = 15.750      CL =  1.3251
      Cm = -0.0200     CD =  0.06803   =>   CDf =  0.00480    CDp =  0.06323

 Side 1  free  transition at x/c =  0.0082   23
 Side 2 forced transition at x/c =  1.0000   67

   2   rms: 0.1756E-01   max: 0.6166E-01   D at   66  1
       a = 15.750      CL =  1.3232
      Cm = -0.0201     CD =  0.07003   =>   CDf =  0.00473    CDp =  0.06531

 Side 1  free  transition at x/c =  0.0082   23
 Side 2 forced transition at x/c =  1.0000   67

   3   rms: 0.2890E-02   max: 0.1521E-01   D at   66  1
       a = 15.750      CL =  1.3213
      Cm = -0.0200     CD =  0.06981   =>   CDf =  0.00464    CDp =  0.06516

 Side 1  free  transition at x/c =  0.0082   23
 Side 2 forced transition at x/c =  1.0000   67

   4   rms: 0.1256E-03   max: 0.1159E-02   D at   83  2
       a = 15.750      CL =  1.3213
      Cm = -0.0200     CD =  0.06975   =>   CDf =  0.00465    CDp =  0.06511

 Side 1  free  transition at x/c =  0.0082   23
 Side 2 forced transition at x/c =  1.0000   67

   5   rms: 0.6985E-05   max: 0.9057E-04   C at   67  2
       a = 15.750      CL =  1.3213
      Cm = -0.0200     CD =  0.06975   =>   CDf =  0.00465    CDp =  0.06511
 plradd ia,ip,cpol           51           0  3.94687413E-06

 Point added to stored polar  1
 Point written to save file  goe547_Re600k.base.pol                          
 Dump file unspecified or not available
 Calculating wake trajectory ...
 Calculating source influence matrix ...

 Solving BL system ...

 Side 1  free  transition at x/c =  0.0082   23
 Side 2 forced transition at x/c =  1.0000   67

   1   rms: 0.3907E-01   max: 0.1291E+00   D at   60  1   RLX: 0.455
       a = 16.000      CL =  1.3196
      Cm = -0.0201     CD =  0.07196   =>   CDf =  0.00465    CDp =  0.06731

 Side 1  free  transition at x/c =  0.0082   23
 Side 2 forced transition at x/c =  1.0000   67

   2   rms: 0.2246E-01   max: 0.7445E-01   D at   65  1
       a = 16.000      CL =  1.3148
      Cm = -0.0203     CD =  0.07466   =>   CDf =  0.00457    CDp =  0.07009

 Side 1  free  transition at x/c =  0.0081   23
 Side 2 forced transition at x/c =  1.0000   67

   3   rms: 0.4484E-02   max: 0.2080E-01   D at   83  2
       a = 16.000      CL =  1.3120
      Cm = -0.0203     CD =  0.07437   =>   CDf =  0.00447    CDp =  0.06990

 Side 1  free  transition at x/c =  0.0081   23
 Side 2 forced transition at x/c =  1.0000   67

   4   rms: 0.2388E-03   max: -.1727E-02   C at   67  2
       a = 16.000      CL =  1.3121
      Cm = -0.0202     CD =  0.07428   =>   CDf =  0.00447    CDp =  0.06980

 Side 1  free  transition at x/c =  0.0081   23
 Side 2 forced transition at x/c =  1.0000   67

   5   rms: 0.1512E-04   max: 0.1215E-03   C at   67  2
       a = 16.000      CL =  1.3121
      Cm = -0.0202     CD =  0.07428   =>   CDf =  0.00447    CDp =  0.06981
 plradd ia,ip,cpol           52           0  3.94687413E-06

 Point added to stored polar  1
 Point written to save file  goe547_Re600k.base.pol                          
 Dump file unspecified or not available

.OPERva   c>  
 Polar accumulation disabled

.OPERv   c>  
 XFOIL   c>  
 XFOIL   c>  