  
       XFOIL         Version 6.99
  
 Calculated polar for: GOE 682 AIRFOIL                                 
  
 1 1 Reynolds number fixed          Mach number fixed         
  
 xtrf =   1.000 (top)        1.000 (bottom)  
 Mach =   0.000     Re =     0.600 e 6     Ncrit =   9.000
  
   alpha    CL        CD       CDp       CM     Top_Xtr  Bot_Xtr
  ------ -------- --------- --------- -------- -------- --------
  -4.000   0.0556   0.01071   0.00462  -0.1046   0.8160   0.0461
  -3.500   0.1081   0.01021   0.00398  -0.1036   0.7947   0.0482
  -3.000   0.1594   0.00949   0.00313  -0.1025   0.7741   0.0519
  -2.500   0.2123   0.00918   0.00272  -0.1016   0.7548   0.0568
  -2.000   0.2650   0.00882   0.00228  -0.1007   0.7354   0.0657
  -1.500   0.3180   0.00855   0.00197  -0.0998   0.7163   0.0829
  -1.000   0.3695   0.00815   0.00183  -0.0989   0.6953   0.1773
  -0.500   0.4222   0.00806   0.00179  -0.0981   0.6756   0.2317
   0.000   0.4748   0.00793   0.00178  -0.0973   0.6564   0.2959
   0.500   0.5223   0.00725   0.00185  -0.0958   0.6360   0.5710
   1.000   0.6174   0.00649   0.00198  -0.1039   0.6124   1.0000
   1.500   0.6665   0.00667   0.00203  -0.1023   0.5926   1.0000
   2.000   0.7154   0.00687   0.00211  -0.1007   0.5687   1.0000
   2.500   0.7641   0.00711   0.00222  -0.0990   0.5433   1.0000
   3.000   0.8123   0.00740   0.00237  -0.0973   0.5148   1.0000
   3.500   0.8601   0.00774   0.00257  -0.0956   0.4841   1.0000
   4.000   0.9077   0.00813   0.00283  -0.0939   0.4548   1.0000
   4.500   0.9559   0.00852   0.00312  -0.0923   0.4293   1.0000
   5.000   1.0033   0.00896   0.00347  -0.0907   0.4037   1.0000
   5.500   1.0499   0.00944   0.00385  -0.0889   0.3707   1.0000
   6.500   1.1354   0.01086   0.00486  -0.0843   0.2815   1.0000
   7.000   1.1763   0.01166   0.00551  -0.0818   0.2507   1.0000
   7.500   1.2188   0.01232   0.00614  -0.0795   0.2324   1.0000
   8.000   1.2604   0.01297   0.00678  -0.0771   0.2167   1.0000
   8.500   1.3009   0.01364   0.00745  -0.0746   0.2016   1.0000
   9.000   1.3386   0.01429   0.00810  -0.0716   0.1842   1.0000
   9.500   1.3718   0.01508   0.00884  -0.0679   0.1624   1.0000
  10.000   1.3935   0.01648   0.00998  -0.0627   0.1126   1.0000
  10.000   1.3935   0.01648   0.00998  -0.0627   0.1126   1.0000
  10.250   1.3939   0.01778   0.01104  -0.0587   0.0806   1.0000
  10.500   1.3930   0.01922   0.01229  -0.0548   0.0513   1.0000
  10.750   1.3897   0.02088   0.01376  -0.0509   0.0283   1.0000
  11.000   1.3956   0.02206   0.01494  -0.0482   0.0231   1.0000
  11.250   1.4043   0.02310   0.01604  -0.0461   0.0209   1.0000
  11.500   1.4117   0.02426   0.01725  -0.0440   0.0192   1.0000
  11.750   1.4157   0.02572   0.01879  -0.0416   0.0178   1.0000
  12.000   1.4222   0.02706   0.02021  -0.0398   0.0171   1.0000
  12.250   1.4288   0.02844   0.02167  -0.0381   0.0164   1.0000
  12.500   1.4343   0.02997   0.02329  -0.0364   0.0158   1.0000
  12.750   1.4386   0.03166   0.02507  -0.0349   0.0152   1.0000
  13.000   1.4397   0.03372   0.02721  -0.0335   0.0147   1.0000
  13.250   1.4381   0.03612   0.02971  -0.0321   0.0143   1.0000
  13.500   1.4319   0.03909   0.03278  -0.0309   0.0139   1.0000
  13.750   1.4221   0.04258   0.03641  -0.0299   0.0135   1.0000
  14.000   1.4250   0.04491   0.03883  -0.0294   0.0133   1.0000
  14.250   1.4248   0.04767   0.04169  -0.0291   0.0131   1.0000
  14.500   1.4225   0.05074   0.04487  -0.0289   0.0128   1.0000
  14.750   1.4221   0.05371   0.04793  -0.0289   0.0124   1.0000
  15.000   1.4196   0.05704   0.05136  -0.0291   0.0122   1.0000
  15.250   1.4145   0.06080   0.05522  -0.0295   0.0119   1.0000
  15.500   1.4088   0.06476   0.05929  -0.0301   0.0118   1.0000
  15.750   1.4028   0.06888   0.06352  -0.0309   0.0116   1.0000
  16.000   1.3980   0.07297   0.06770  -0.0319   0.0114   1.0000
