
 ===================================================
  XFOIL Version 6.99
  Copyright (C) 2000   Mark Drela, Harold Youngren

  This software comes with ABSOLUTELY NO WARRANTY,
    subject to the GNU General Public License.

  Caveat computor
 ===================================================

 File  xfoil.def  not found

   QUIT    Exit program

  .OPER    Direct operating point(s)
  .MDES    Complex mapping design routine
  .QDES    Surface speed design routine
  .GDES    Geometry design routine

   SAVE f  Write airfoil to labeled coordinate file
   PSAV f  Write airfoil to plain coordinate file
   ISAV f  Write airfoil to ISES coordinate file
   MSAV f  Write airfoil to MSES coordinate file
   REVE    Reverse written-airfoil node ordering

   LOAD f  Read buffer airfoil from coordinate file
   NACA i  Set NACA 4,5-digit airfoil and buffer airfoil
   INTE    Set buffer airfoil by interpolating two airfoils
   NORM    Buffer airfoil normalization toggle
   XYCM rr Change CM reference location, currently  0.25000 0.00000

   BEND    Display structural properties of current airfoil

   PCOP    Set current-airfoil panel nodes directly from buffer airfoil points
   PANE    Set current-airfoil panel nodes ( 160 ) based on curvature
  .PPAR    Show/change paneling

  .PLOP    Plotting options

   WDEF f  Write  current-settings file
   RDEF f  Reread current-settings file
   NAME s  Specify new airfoil name
   NINC    Increment name version number

   Z       Zoom    | (available in all menus)
   U       Unzoom  | 

 XFOIL   c>  
 Labeled airfoil file.  Name:  GOE 628 AIRFOIL                                 

 Number of input coordinate points:  33
 Counterclockwise ordering
 Max thickness =     0.167985  at x =   0.203
 Max camber    =     0.052859  at x =   0.402

  LE  x,y  =  -0.00079   0.00583  |   Chord =   1.00081
  TE  x,y  =   1.00000   0.00000  |

 Current airfoil nodes set from buffer airfoil nodes (  33 )

 WARNING: Poor input coordinate distribution
          Excessive panel angle   56.0  at i =  17
          Repaneling with PANE and/or PPAR suggested
           (doing GDES,CADD before repaneling _may_
            improve excessively coarse LE spacing

 XFOIL   c>  
 XFOIL   c>  
 Sharp trailing edge

 Paneling parameters used...
   Number of panel nodes       160
   Panel bunching parameter    1.000
   TE/LE panel density ratio   0.150
   Refined-area/LE panel density ratio    0.200
   Top    side refined area x/c limits  1.000 1.000
   Bottom side refined area x/c limits  1.000 1.000

 XFOIL   c>  
.OPERi   c>  
 Xtr/c     =  1.0000    top    side
 Xtr/c     =  1.0000    bottom side
 Ncrit     =    9.00   ( 0.070 % turb. level )
 Vacc      =  0.0100

 Klag  =  5.6000     Uxwt  =    1.00
 A     =  6.7000     B     =  0.7500       KCt = 0.01485
 CtiniK=  1.8000     CtiniX=  3.3000

..VPAR   c>  
..VPAR   c>  
.OPERi   c>  
 M  =    0.0000
 Re =    200000

.OPERv   c>  
.OPERv   c>  
.OPERv   c>  
 Polar  1 newly created for accumulation
 Airfoil archived with polar: GOE 628 AIRFOIL                                 

Enter  polar save filename  OR  <return> for no file   s>  
 New polar save file available

Enter  polar dump filename  OR  <return> for no file   s>  
 Polar dump file will NOT be written

 Polar accumulation enabled

.OPERva   c>   Calculating unit vorticity distributions ...
 Calculating wake trajectory ...
 Calculating source influence matrix ...

 Solving BL system ...

 Initializing BL ...
    side            1  ...
 MRCHUE: Inverse mode at  49     Hk =   4.058
 MRCHUE: Inverse mode at  50     Hk =   4.603
 MRCHUE: Inverse mode at  51     Hk =   5.135
 MRCHUE: Inverse mode at  52     Hk =   5.657
 MRCHUE: Inverse mode at  53     Hk =   6.172
 MRCHUE: Inverse mode at  54     Hk =   6.684
 MRCHUE: Inverse mode at  55     Hk =   7.196
 MRCHUE: Inverse mode at  56     Hk =   7.708
 MRCHUE: Inverse mode at  57     Hk =   8.221
 MRCHUE: Inverse mode at  58     Hk =   8.734
 MRCHUE: Inverse mode at  59     Hk =   8.045
 MRCHUE: Inverse mode at  60     Hk =   5.980
 MRCHUE: Inverse mode at  61     Hk =   4.647
 MRCHUE: Inverse mode at  62     Hk =   3.666
 MRCHUE: Inverse mode at  63     Hk =   2.898
 MRCHUE: Inverse mode at  76     Hk =   2.500
    side            2  ...
 MRCHUE: Inverse mode at  27     Hk =   3.800
 MRCHUE: Inverse mode at  28     Hk =   4.365
 MRCHUE: Inverse mode at  29     Hk =   4.934
 MRCHUE: Inverse mode at  30     Hk =   5.518
 MRCHUE: Inverse mode at  31     Hk =   6.118
 MRCHUE: Inverse mode at  32     Hk =   6.732
 MRCHUE: Inverse mode at  33     Hk =   7.360
 MRCHUE: Inverse mode at  34     Hk =   8.006
 MRCHUE: Inverse mode at  35     Hk =   8.686
 MRCHUE: Inverse mode at  36     Hk =   9.416
 MRCHUE: Inverse mode at  37     Hk =  10.203
 MRCHUE: Inverse mode at  38     Hk =   6.429
 MRCHUE: Inverse mode at  39     Hk =   4.375
 MRCHUE: Inverse mode at  40     Hk =   3.017
 MRCHUE: Inverse mode at  86     Hk =   2.500

 Side 1  free  transition at x/c =  0.7031   59
 Side 2  free  transition at x/c =  0.1135   38

   1   rms: 0.2384E+00   max: -.1640E+01   T at   38  2   RLX: 0.305
       a = -4.000      CL =  0.2114
      Cm = -0.1329     CD =  0.01796   =>   CDf =  0.00835    CDp =  0.00962

 Side 1  free  transition at x/c =  0.7111   60
 Side 2  free  transition at x/c =  0.1186   38

   2   rms: 0.1777E+00   max: -.9804E+00   D at   40  2   RLX: 0.510
       a = -4.000      CL =  0.1917
      Cm = -0.1262     CD =  0.01737   =>   CDf =  0.00838    CDp =  0.00899

 MRCHDU: Convergence failed at  40  side 2    Res =  0.3634E+01
 Side 1  free  transition at x/c =  0.7167   60
 Side 2  free  transition at x/c =  0.1349   39

   3   rms: 0.6189E-01   max: -.4091E+00   D at   86  2
       a = -4.000      CL =  0.1633
      Cm = -0.1189     CD =  0.01484   =>   CDf =  0.00786    CDp =  0.00697

 Side 1  free  transition at x/c =  0.7251   60
 Side 2  free  transition at x/c =  0.1547   41

   4   rms: 0.1902E-01   max: -.2141E+00   C at   41  2
       a = -4.000      CL =  0.1664
      Cm = -0.1198     CD =  0.01467   =>   CDf =  0.00784    CDp =  0.00683

 Side 1  free  transition at x/c =  0.7246   60
 Side 2  free  transition at x/c =  0.1607   41

   5   rms: 0.1186E-02   max: -.1006E-01   D at   86  2
       a = -4.000      CL =  0.1672
      Cm = -0.1199     CD =  0.01470   =>   CDf =  0.00774    CDp =  0.00696

 Side 1  free  transition at x/c =  0.7246   60
 Side 2  free  transition at x/c =  0.1607   41

   6   rms: 0.7553E-05   max: 0.8355E-04   C at   41  2
       a = -4.000      CL =  0.1672
      Cm = -0.1199     CD =  0.01470   =>   CDf =  0.00774    CDp =  0.00696
 plradd ia,ip,cpol            1           0  2.50599086E-02

 Point added to stored polar  1
 Point written to save file  goe628_Re200k.base.pol                          
 Dump file unspecified or not available
 Calculating wake trajectory ...
 Calculating source influence matrix ...

 Solving BL system ...

 Side 1  free  transition at x/c =  0.7246   60
 Side 2  free  transition at x/c =  0.1607   41

   1   rms: 0.1690E+00   max: -.2485E+01   C at   41  2   RLX: 0.201
       a = -3.500      CL =  0.1763
      Cm = -0.1195     CD =  0.01453   =>   CDf =  0.00774    CDp =  0.00678

 Side 1  free  transition at x/c =  0.7208   60
 Side 2  free  transition at x/c =  0.1829   43

   2   rms: 0.1444E+00   max: -.1539E+01   C at   43  2   RLX: 0.325
       a = -3.500      CL =  0.1886
      Cm = -0.1191     CD =  0.01436   =>   CDf =  0.00769    CDp =  0.00667

 Side 1  free  transition at x/c =  0.7164   60
 Side 2  free  transition at x/c =  0.2058   44

   3   rms: 0.6380E-01   max: -.4967E+00   T at   44  2
       a = -3.500      CL =  0.2199
      Cm = -0.1189     CD =  0.01449   =>   CDf =  0.00759    CDp =  0.00690

 Side 1  free  transition at x/c =  0.7090   60
 Side 2  free  transition at x/c =  0.2429   45

   4   rms: 0.1093E-01   max: 0.1578E+00   D at   45  2
       a = -3.500      CL =  0.2211
      Cm = -0.1190     CD =  0.01461   =>   CDf =  0.00763    CDp =  0.00698

 Side 1  free  transition at x/c =  0.7092   60
 Side 2  free  transition at x/c =  0.2435   45

   5   rms: 0.1634E-02   max: 0.1633E-01   C at   45  2
       a = -3.500      CL =  0.2211
      Cm = -0.1190     CD =  0.01462   =>   CDf =  0.00764    CDp =  0.00699

 Side 1  free  transition at x/c =  0.7092   60
 Side 2  free  transition at x/c =  0.2425   45

   6   rms: 0.3804E-04   max: -.5232E-03   D at   45  2
       a = -3.500      CL =  0.2211
      Cm = -0.1190     CD =  0.01462   =>   CDf =  0.00764    CDp =  0.00698
 plradd ia,ip,cpol            2           0  2.50599086E-02

 Point added to stored polar  1
 Point written to save file  goe628_Re200k.base.pol                          
 Dump file unspecified or not available
 Calculating wake trajectory ...
 Calculating source influence matrix ...

 Solving BL system ...

 Side 1  free  transition at x/c =  0.7092   60
 Side 2  free  transition at x/c =  0.2425   45

   1   rms: 0.8466E-01   max: 0.4500E+00   D at   46  2
       a = -3.000      CL =  0.2663
      Cm = -0.1167     CD =  0.01485   =>   CDf =  0.00764    CDp =  0.00720

 Side 1  free  transition at x/c =  0.6890   59
 Side 2  free  transition at x/c =  0.2702   46

   2   rms: 0.2486E-01   max: -.2310E+00   D at   60  1
       a = -3.000      CL =  0.2780
      Cm = -0.1185     CD =  0.01494   =>   CDf =  0.00792    CDp =  0.00702

 Side 1  free  transition at x/c =  0.6956   60
 Side 2  free  transition at x/c =  0.2767   47

   3   rms: 0.1755E-01   max: 0.1788E+00   D at   60  1
       a = -3.000      CL =  0.2743
      Cm = -0.1179     CD =  0.01478   =>   CDf =  0.00767    CDp =  0.00711

 Side 1  free  transition at x/c =  0.6933   60
 Side 2  free  transition at x/c =  0.2736   47

   4   rms: 0.1642E-02   max: -.2038E-01   D at   49  2
       a = -3.000      CL =  0.2739
      Cm = -0.1178     CD =  0.01482   =>   CDf =  0.00775    CDp =  0.00707

 Side 1  free  transition at x/c =  0.6930   60
 Side 2  free  transition at x/c =  0.2732   47

   5   rms: 0.2795E-04   max: -.4254E-03   D at   49  2
       a = -3.000      CL =  0.2739
      Cm = -0.1178     CD =  0.01482   =>   CDf =  0.00776    CDp =  0.00706
 plradd ia,ip,cpol            3           0  2.85354313E-02

 Point added to stored polar  1
 Point written to save file  goe628_Re200k.base.pol                          
 Dump file unspecified or not available
 Calculating wake trajectory ...
 Calculating source influence matrix ...

 Solving BL system ...

 Side 1  free  transition at x/c =  0.6930   60
 Side 2  free  transition at x/c =  0.2732   47

   1   rms: 0.9068E-01   max: 0.5143E+00   D at   48  2
       a = -2.500      CL =  0.3306
      Cm = -0.1174     CD =  0.01499   =>   CDf =  0.00772    CDp =  0.00727

 Side 1  free  transition at x/c =  0.6803   60
 Side 2  free  transition at x/c =  0.2921   47

   2   rms: 0.6422E-01   max: -.3687E+00   T at   47  2
       a = -2.500      CL =  0.3257
      Cm = -0.1166     CD =  0.01473   =>   CDf =  0.00802    CDp =  0.00670

 Side 1  free  transition at x/c =  0.6763   60
 Side 2  free  transition at x/c =  0.3004   47

   3   rms: 0.7637E-02   max: -.7592E-01   D at   49  2
       a = -2.500      CL =  0.3262
      Cm = -0.1165     CD =  0.01503   =>   CDf =  0.00781    CDp =  0.00723

 Side 1  free  transition at x/c =  0.6768   60
 Side 2  free  transition at x/c =  0.2972   47

   4   rms: 0.1309E-02   max: -.1332E-01   D at   47  2
       a = -2.500      CL =  0.3262
      Cm = -0.1165     CD =  0.01504   =>   CDf =  0.00782    CDp =  0.00722

 Side 1  free  transition at x/c =  0.6768   60
 Side 2  free  transition at x/c =  0.2974   47

   5   rms: 0.4595E-05   max: -.5288E-04   D at   49  2
       a = -2.500      CL =  0.3262
      Cm = -0.1165     CD =  0.01504   =>   CDf =  0.00782    CDp =  0.00723
 plradd ia,ip,cpol            4           0  2.85354313E-02

 Point added to stored polar  1
 Point written to save file  goe628_Re200k.base.pol                          
 Dump file unspecified or not available
 Calculating wake trajectory ...
 Calculating source influence matrix ...

 Solving BL system ...

 Side 1  free  transition at x/c =  0.6768   60
 Side 2  free  transition at x/c =  0.2974   47

   1   rms: 0.8371E-01   max: -.4948E+00   T at   47  2
       a = -2.000      CL =  0.3810
      Cm = -0.1157     CD =  0.01528   =>   CDf =  0.00777    CDp =  0.00751

 Side 1  free  transition at x/c =  0.6636   60
 Side 2  free  transition at x/c =  0.3104   47

   2   rms: 0.9220E-01   max: -.5327E+00   T at   47  2   RLX: 0.939
       a = -2.000      CL =  0.3789
      Cm = -0.1157     CD =  0.01462   =>   CDf =  0.00815    CDp =  0.00647

 Side 1  free  transition at x/c =  0.6614   60
 Side 2  free  transition at x/c =  0.3208   47

   3   rms: 0.1970E-01   max: -.1742E+00   D at   47  2
       a = -2.000      CL =  0.3790
      Cm = -0.1154     CD =  0.01515   =>   CDf =  0.00791    CDp =  0.00725

 Side 1  free  transition at x/c =  0.6613   60
 Side 2  free  transition at x/c =  0.3169   47

   4   rms: 0.1906E-02   max: -.1767E-01   D at   48  2
       a = -2.000      CL =  0.3790
      Cm = -0.1154     CD =  0.01517   =>   CDf =  0.00791    CDp =  0.00726

 Side 1  free  transition at x/c =  0.6613   60
 Side 2  free  transition at x/c =  0.3172   47

   5   rms: 0.5804E-05   max: -.5635E-04   D at   49  2
       a = -2.000      CL =  0.3790
      Cm = -0.1154     CD =  0.01517   =>   CDf =  0.00790    CDp =  0.00727
 plradd ia,ip,cpol            5           0  2.85354313E-02

 Point added to stored polar  1
 Point written to save file  goe628_Re200k.base.pol                          
 Dump file unspecified or not available
 Calculating wake trajectory ...
 Calculating source influence matrix ...

 Solving BL system ...

 Side 1  free  transition at x/c =  0.6613   60
 Side 2  free  transition at x/c =  0.3172   47

   1   rms: 0.7653E-01   max: -.4107E+00   T at   47  2
       a = -1.500      CL =  0.4312
      Cm = -0.1141     CD =  0.01527   =>   CDf =  0.00785    CDp =  0.00742

 Side 1  free  transition at x/c =  0.6448   60
 Side 2  free  transition at x/c =  0.3360   47

   2   rms: 0.1470E-01   max: -.1360E+00   D at   60  1
       a = -1.500      CL =  0.4325
      Cm = -0.1143     CD =  0.01524   =>   CDf =  0.00804    CDp =  0.00720

 Side 1  free  transition at x/c =  0.6460   60
 Side 2  free  transition at x/c =  0.3368   47

   3   rms: 0.1017E-02   max: 0.1303E-01   D at   61  1
       a = -1.500      CL =  0.4321
      Cm = -0.1143     CD =  0.01526   =>   CDf =  0.00800    CDp =  0.00726

 Side 1  free  transition at x/c =  0.6457   60
 Side 2  free  transition at x/c =  0.3367   47

   4   rms: 0.6899E-05   max: -.3041E-04   D at   60  1
       a = -1.500      CL =  0.4321
      Cm = -0.1143     CD =  0.01526   =>   CDf =  0.00800    CDp =  0.00726
 plradd ia,ip,cpol            6           0  0.19354518    

 Point added to stored polar  1
 Point written to save file  goe628_Re200k.base.pol                          
 Dump file unspecified or not available
 Calculating wake trajectory ...
 Calculating source influence matrix ...

 Solving BL system ...

 Side 1  free  transition at x/c =  0.6457   60
 Side 2  free  transition at x/c =  0.3367   47

   1   rms: 0.7622E-01   max: -.4445E+00   T at   47  2
       a = -1.000      CL =  0.4805
      Cm = -0.1124     CD =  0.01535   =>   CDf =  0.00794    CDp =  0.00742

 Side 1  free  transition at x/c =  0.6268   60
 Side 2  free  transition at x/c =  0.3507   47

   2   rms: 0.5427E-01   max: -.3162E+00   T at   47  2
       a = -1.000      CL =  0.4858
      Cm = -0.1133     CD =  0.01504   =>   CDf =  0.00828    CDp =  0.00676

 Side 1  free  transition at x/c =  0.6301   60
 Side 2  free  transition at x/c =  0.3574   47

   3   rms: 0.6389E-02   max: -.6743E-01   D at   49  2
       a = -1.000      CL =  0.4853
      Cm = -0.1132     CD =  0.01528   =>   CDf =  0.00809    CDp =  0.00718

 Side 1  free  transition at x/c =  0.6296   60
 Side 2  free  transition at x/c =  0.3555   47

   4   rms: 0.6986E-03   max: -.5941E-02   D at   47  2
       a = -1.000      CL =  0.4853
      Cm = -0.1132     CD =  0.01528   =>   CDf =  0.00810    CDp =  0.00718

 Side 1  free  transition at x/c =  0.6296   60
 Side 2  free  transition at x/c =  0.3556   47

   5   rms: 0.1697E-05   max: -.1035E-04   D at   55  2
       a = -1.000      CL =  0.4853
      Cm = -0.1132     CD =  0.01528   =>   CDf =  0.00810    CDp =  0.00718
 plradd ia,ip,cpol            7           0  0.19354518    

 Point added to stored polar  1
 Point written to save file  goe628_Re200k.base.pol                          
 Dump file unspecified or not available
 Calculating wake trajectory ...
 Calculating source influence matrix ...

 Solving BL system ...

 Side 1  free  transition at x/c =  0.6296   60
 Side 2  free  transition at x/c =  0.3556   47

   1   rms: 0.7436E-01   max: -.4180E+00   T at   47  2
       a = -0.500      CL =  0.5297
      Cm = -0.1106     CD =  0.01531   =>   CDf =  0.00811    CDp =  0.00720

 Side 1  free  transition at x/c =  0.6089   59
 Side 2  free  transition at x/c =  0.3733   48

   2   rms: 0.1982E-01   max: -.2096E+00   D at   60  1
       a = -0.500      CL =  0.5387
      Cm = -0.1121     CD =  0.01530   =>   CDf =  0.00825    CDp =  0.00705

 Side 1  free  transition at x/c =  0.6139   60
 Side 2  free  transition at x/c =  0.3757   48

   3   rms: 0.3667E-02   max: 0.5776E-01   D at   60  1
       a = -0.500      CL =  0.5376
      Cm = -0.1119     CD =  0.01530   =>   CDf =  0.00818    CDp =  0.00712

 Side 1  free  transition at x/c =  0.6131   60
 Side 2  free  transition at x/c =  0.3757   48

   4   rms: 0.1962E-03   max: 0.2613E-02   D at   60  1
       a = -0.500      CL =  0.5375
      Cm = -0.1119     CD =  0.01530   =>   CDf =  0.00817    CDp =  0.00713

 Side 1  free  transition at x/c =  0.6131   60
 Side 2  free  transition at x/c =  0.3756   48

   5   rms: 0.3406E-05   max: -.2985E-04   D at    4  2
       a = -0.500      CL =  0.5375
      Cm = -0.1119     CD =  0.01530   =>   CDf =  0.00817    CDp =  0.00713
 plradd ia,ip,cpol            8           0  0.19354518    

 Point added to stored polar  1
 Point written to save file  goe628_Re200k.base.pol                          
 Dump file unspecified or not available
 Calculating wake trajectory ...
 Calculating source influence matrix ...

 Solving BL system ...

 Side 1  free  transition at x/c =  0.6131   60
 Side 2  free  transition at x/c =  0.3756   48

   1   rms: 0.8578E-01   max: -.5286E+00   T at   48  2   RLX: 0.946
       a =  0.000      CL =  0.5934
      Cm = -0.1119     CD =  0.01551   =>   CDf =  0.00809    CDp =  0.00742

 Side 1  free  transition at x/c =  0.5995   60
 Side 2  free  transition at x/c =  0.3932   48

   2   rms: 0.2064E-01   max: -.1909E+00   D at   60  1
       a =  0.000      CL =  0.5869
      Cm = -0.1102     CD =  0.01525   =>   CDf =  0.00816    CDp =  0.00709

 Side 1  free  transition at x/c =  0.5941   60
 Side 2  free  transition at x/c =  0.3959   48

   3   rms: 0.4927E-02   max: -.6426E-01   D at   60  1
       a =  0.000      CL =  0.5881
      Cm = -0.1104     CD =  0.01528   =>   CDf =  0.00823    CDp =  0.00704

 Side 1  free  transition at x/c =  0.5951   60
 Side 2  free  transition at x/c =  0.3962   48

   4   rms: 0.1300E-03   max: -.1641E-02   D at   62  1
       a =  0.000      CL =  0.5881
      Cm = -0.1104     CD =  0.01528   =>   CDf =  0.00820    CDp =  0.00708

 Side 1  free  transition at x/c =  0.5951   60
 Side 2  free  transition at x/c =  0.3962   48

   5   rms: 0.9612E-06   max: 0.8519E-05   T at   60  1
       a =  0.000      CL =  0.5881
      Cm = -0.1104     CD =  0.01528   =>   CDf =  0.00820    CDp =  0.00708
 plradd ia,ip,cpol            9           0  0.17969640    

 Point added to stored polar  1
 Point written to save file  goe628_Re200k.base.pol                          
 Dump file unspecified or not available
 Calculating wake trajectory ...
 Calculating source influence matrix ...

 Solving BL system ...

 Side 1  free  transition at x/c =  0.5951   60
 Side 2  free  transition at x/c =  0.3962   48

   1   rms: 0.8433E-01   max: -.5071E+00   T at   48  2   RLX: 0.986
       a =  0.500      CL =  0.6449
      Cm = -0.1102     CD =  0.01539   =>   CDf =  0.00811    CDp =  0.00728

 Side 1  free  transition at x/c =  0.5806   60
 Side 2  free  transition at x/c =  0.4133   48

   2   rms: 0.2064E-01   max: -.1836E+00   D at   60  1
       a =  0.500      CL =  0.6373
      Cm = -0.1087     CD =  0.01518   =>   CDf =  0.00820    CDp =  0.00698

 Side 1  free  transition at x/c =  0.5754   60
 Side 2  free  transition at x/c =  0.4154   48

   3   rms: 0.4144E-02   max: -.5417E-01   D at   60  1
       a =  0.500      CL =  0.6385
      Cm = -0.1089     CD =  0.01523   =>   CDf =  0.00829    CDp =  0.00693

 Side 1  free  transition at x/c =  0.5763   60
 Side 2  free  transition at x/c =  0.4155   48

   4   rms: 0.1204E-03   max: -.1530E-02   D at   62  1
       a =  0.500      CL =  0.6385
      Cm = -0.1089     CD =  0.01523   =>   CDf =  0.00826    CDp =  0.00697

 Side 1  free  transition at x/c =  0.5762   60
 Side 2  free  transition at x/c =  0.4155   48

   5   rms: 0.7260E-06   max: -.5104E-05   D at   62  1
       a =  0.500      CL =  0.6385
      Cm = -0.1089     CD =  0.01523   =>   CDf =  0.00826    CDp =  0.00697
 plradd ia,ip,cpol           10           0  0.17969640    

 Point added to stored polar  1
 Point written to save file  goe628_Re200k.base.pol                          
 Dump file unspecified or not available
 Calculating wake trajectory ...
 Calculating source influence matrix ...

 Solving BL system ...

 Side 1  free  transition at x/c =  0.5762   60
 Side 2  free  transition at x/c =  0.4155   48

   1   rms: 0.8323E-01   max: -.4344E+00   T at   48  2
       a =  1.000      CL =  0.6963
      Cm = -0.1087     CD =  0.01531   =>   CDf =  0.00816    CDp =  0.00715

 Side 1  free  transition at x/c =  0.5616   60
 Side 2  free  transition at x/c =  0.4334   48

   2   rms: 0.1923E-01   max: -.1901E+00   D at   60  1
       a =  1.000      CL =  0.6872
      Cm = -0.1071     CD =  0.01513   =>   CDf =  0.00824    CDp =  0.00689

 Side 1  free  transition at x/c =  0.5562   59
 Side 2  free  transition at x/c =  0.4334   48

   3   rms: 0.3657E-02   max: -.4754E-01   D at   60  1
       a =  1.000      CL =  0.6893
      Cm = -0.1075     CD =  0.01520   =>   CDf =  0.00835    CDp =  0.00684

 Side 1  free  transition at x/c =  0.5569   60
 Side 2  free  transition at x/c =  0.4336   48

   4   rms: 0.2832E-02   max: -.3983E-01   D at   59  1
       a =  1.000      CL =  0.6888
      Cm = -0.1074     CD =  0.01519   =>   CDf =  0.00837    CDp =  0.00681

 Side 1  free  transition at x/c =  0.5570   60
 Side 2  free  transition at x/c =  0.4335   48

   5   rms: 0.1905E-03   max: 0.1801E-02   T at   60  1
       a =  1.000      CL =  0.6888
      Cm = -0.1074     CD =  0.01519   =>   CDf =  0.00833    CDp =  0.00686

 Side 1  free  transition at x/c =  0.5569   60
 Side 2  free  transition at x/c =  0.4335   48

   6   rms: 0.1643E-05   max: -.8173E-05   D at   62  1
       a =  1.000      CL =  0.6888
      Cm = -0.1074     CD =  0.01519   =>   CDf =  0.00833    CDp =  0.00686
 plradd ia,ip,cpol           11           0  0.17969640    

 Point added to stored polar  1
 Point written to save file  goe628_Re200k.base.pol                          
 Dump file unspecified or not available
 Calculating wake trajectory ...
 Calculating source influence matrix ...

 Solving BL system ...

 Side 1  free  transition at x/c =  0.5569   60
 Side 2  free  transition at x/c =  0.4335   48

   1   rms: 0.8437E-01   max: -.4261E+00   T at   48  2
       a =  1.500      CL =  0.7468
      Cm = -0.1074     CD =  0.01536   =>   CDf =  0.00822    CDp =  0.00714

 Side 1  free  transition at x/c =  0.5399   60
 Side 2  free  transition at x/c =  0.4519   48

   2   rms: 0.2646E-01   max: -.2755E+00   D at   60  1
       a =  1.500      CL =  0.7373
      Cm = -0.1056     CD =  0.01507   =>   CDf =  0.00831    CDp =  0.00676

 Side 1  free  transition at x/c =  0.5369   59
 Side 2  free  transition at x/c =  0.4525   48

   3   rms: 0.2774E-02   max: 0.3377E-01   D at   60  1
       a =  1.500      CL =  0.7370
      Cm = -0.1056     CD =  0.01518   =>   CDf =  0.00837    CDp =  0.00681

 Side 1  free  transition at x/c =  0.5357   59
 Side 2  free  transition at x/c =  0.4522   48

   4   rms: 0.7186E-04   max: -.7736E-03   D at   60  1
       a =  1.500      CL =  0.7370
      Cm = -0.1056     CD =  0.01518   =>   CDf =  0.00836    CDp =  0.00682
 plradd ia,ip,cpol           12           0  0.17969640    

 Point added to stored polar  1
 Point written to save file  goe628_Re200k.base.pol                          
 Dump file unspecified or not available
 Calculating wake trajectory ...
 Calculating source influence matrix ...

 Solving BL system ...

 Side 1  free  transition at x/c =  0.5358   59
 Side 2  free  transition at x/c =  0.4522   48

   1   rms: 0.7477E-01   max: -.4033E+00   T at   48  2
       a =  2.000      CL =  0.7785
      Cm = -0.1027     CD =  0.01516   =>   CDf =  0.00836    CDp =  0.00680

 Side 1  free  transition at x/c =  0.5096   58
 Side 2  free  transition at x/c =  0.4714   49

   2   rms: 0.2450E-01   max: -.2250E+00   D at   58  1
       a =  2.000      CL =  0.7844
      Cm = -0.1037     CD =  0.01515   =>   CDf =  0.00852    CDp =  0.00662

 Side 1  free  transition at x/c =  0.5146   58
 Side 2  free  transition at x/c =  0.4743   49

   3   rms: 0.2870E-02   max: 0.2218E-01   T at   59  1
       a =  2.000      CL =  0.7837
      Cm = -0.1036     CD =  0.01521   =>   CDf =  0.00834    CDp =  0.00687

 Side 1  free  transition at x/c =  0.5131   58
 Side 2  free  transition at x/c =  0.4743   49

   4   rms: 0.1002E-03   max: -.1044E-02   D at   58  1
       a =  2.000      CL =  0.7837
      Cm = -0.1036     CD =  0.01521   =>   CDf =  0.00835    CDp =  0.00685

 Side 1  free  transition at x/c =  0.5131   58
 Side 2  free  transition at x/c =  0.4743   49

   5   rms: 0.1989E-05   max: -.9112E-05   D at   84  1
       a =  2.000      CL =  0.7837
      Cm = -0.1036     CD =  0.01521   =>   CDf =  0.00835    CDp =  0.00686
 plradd ia,ip,cpol           13           0  0.16632222    

 Point added to stored polar  1
 Point written to save file  goe628_Re200k.base.pol                          
 Dump file unspecified or not available
 Calculating wake trajectory ...
 Calculating source influence matrix ...

 Solving BL system ...

 Side 1  free  transition at x/c =  0.5131   58
 Side 2  free  transition at x/c =  0.4743   49

   1   rms: 0.7519E-01   max: -.3875E+00   T at   49  2
       a =  2.500      CL =  0.8281
      Cm = -0.1012     CD =  0.01527   =>   CDf =  0.00822    CDp =  0.00705

 Side 1  free  transition at x/c =  0.4908   58
 Side 2  free  transition at x/c =  0.4994   49

   2   rms: 0.1674E-01   max: -.2047E+00   D at   58  1
       a =  2.500      CL =  0.8301
      Cm = -0.1016     CD =  0.01528   =>   CDf =  0.00844    CDp =  0.00684

 Side 1  free  transition at x/c =  0.4918   58
 Side 2  free  transition at x/c =  0.5006   49

   3   rms: 0.1546E-02   max: 0.1473E-01   C at   58  1
       a =  2.500      CL =  0.8300
      Cm = -0.1016     CD =  0.01532   =>   CDf =  0.00835    CDp =  0.00696

 Side 1  free  transition at x/c =  0.4911   58
 Side 2  free  transition at x/c =  0.5006   49

   4   rms: 0.2498E-04   max: -.2972E-03   D at   58  1
       a =  2.500      CL =  0.8300
      Cm = -0.1016     CD =  0.01532   =>   CDf =  0.00837    CDp =  0.00695
 plradd ia,ip,cpol           14           0  0.16632222    

 Point added to stored polar  1
 Point written to save file  goe628_Re200k.base.pol                          
 Dump file unspecified or not available
 Calculating wake trajectory ...
 Calculating source influence matrix ...

 Solving BL system ...

 Side 1  free  transition at x/c =  0.4911   58
 Side 2  free  transition at x/c =  0.5006   49

   1   rms: 0.7714E-01   max: -.3938E+00   T at   49  2
       a =  3.000      CL =  0.8768
      Cm = -0.0996     CD =  0.01556   =>   CDf =  0.00822    CDp =  0.00734

 Side 1  free  transition at x/c =  0.4715   58
 Side 2  free  transition at x/c =  0.5400   50

   2   rms: 0.2791E-01   max: -.3237E+00   C at   50  2
       a =  3.000      CL =  0.8753
      Cm = -0.0994     CD =  0.01539   =>   CDf =  0.00849    CDp =  0.00690

 Side 1  free  transition at x/c =  0.4706   58
 Side 2  free  transition at x/c =  0.5398   50

   3   rms: 0.1007E-01   max: -.1670E+00   C at   50  2
       a =  3.000      CL =  0.8752
      Cm = -0.0994     CD =  0.01542   =>   CDf =  0.00834    CDp =  0.00708

 Side 1  free  transition at x/c =  0.4704   58
 Side 2  free  transition at x/c =  0.5379   50

   4   rms: 0.4415E-03   max: 0.7197E-02   C at   50  2
       a =  3.000      CL =  0.8752
      Cm = -0.0994     CD =  0.01542   =>   CDf =  0.00829    CDp =  0.00713

 Side 1  free  transition at x/c =  0.4704   58
 Side 2  free  transition at x/c =  0.5378   50

   5   rms: 0.1440E-05   max: -.1901E-04   D at   52  2
       a =  3.000      CL =  0.8752
      Cm = -0.0994     CD =  0.01542   =>   CDf =  0.00829    CDp =  0.00713
 plradd ia,ip,cpol           15           0  0.16632222    

 Point added to stored polar  1
 Point written to save file  goe628_Re200k.base.pol                          
 Dump file unspecified or not available
 Calculating wake trajectory ...
 Calculating source influence matrix ...

 Solving BL system ...

 Side 1  free  transition at x/c =  0.4704   58
 Side 2  free  transition at x/c =  0.5378   50

   1   rms: 0.8230E-01   max: -.4390E+00   C at   50  2
       a =  3.500      CL =  0.9222
      Cm = -0.0976     CD =  0.01565   =>   CDf =  0.00830    CDp =  0.00735

 Side 1  free  transition at x/c =  0.4532   57
 Side 2  free  transition at x/c =  0.5978   53

   2   rms: 0.5638E-01   max: -.9502E+00   C at   53  2   RLX: 0.526
       a =  3.500      CL =  0.9191
      Cm = -0.0969     CD =  0.01560   =>   CDf =  0.00812    CDp =  0.00748

 Side 1  free  transition at x/c =  0.4523   57
 Side 2  free  transition at x/c =  0.6001   54

   3   rms: 0.4546E-01   max: -.7074E+00   C at   54  2   RLX: 0.707
       a =  3.500      CL =  0.9183
      Cm = -0.0970     CD =  0.01545   =>   CDf =  0.00823    CDp =  0.00722

 Side 1  free  transition at x/c =  0.4517   57
 Side 2  free  transition at x/c =  0.6219   55

   4   rms: 0.2464E-01   max: -.4389E+00   C at   55  2
       a =  3.500      CL =  0.9176
      Cm = -0.0968     CD =  0.01535   =>   CDf =  0.00805    CDp =  0.00730

 Side 1  free  transition at x/c =  0.4514   57
 Side 2  free  transition at x/c =  0.6378   55

   5   rms: 0.4654E-03   max: -.5175E-02   D at   58  2
       a =  3.500      CL =  0.9177
      Cm = -0.0968     CD =  0.01536   =>   CDf =  0.00795    CDp =  0.00741

 Side 1  free  transition at x/c =  0.4514   57
 Side 2  free  transition at x/c =  0.6378   55

   6   rms: 0.1888E-05   max: 0.1935E-04   C at   55  2
       a =  3.500      CL =  0.9177
      Cm = -0.0968     CD =  0.01536   =>   CDf =  0.00795    CDp =  0.00741
 plradd ia,ip,cpol           16           0  0.15339176    

 Point added to stored polar  1
 Point written to save file  goe628_Re200k.base.pol                          
 Dump file unspecified or not available
 Calculating wake trajectory ...
 Calculating source influence matrix ...

 Solving BL system ...

 Side 1  free  transition at x/c =  0.4514   57
 Side 2  free  transition at x/c =  0.6378   55

   1   rms: 0.3444E+00   max: -.5951E+01   C at   55  2   RLX: 0.084
       a =  4.000      CL =  0.9213
      Cm = -0.0966     CD =  0.01532   =>   CDf =  0.00795    CDp =  0.00736

 Side 1  free  transition at x/c =  0.4500   57
 Side 2  free  transition at x/c =  0.6636   57

   2   rms: 0.4861E+00   max: -.8474E+01   C at   57  2   RLX: 0.059
       a =  4.000      CL =  0.9238
      Cm = -0.0965     CD =  0.01526   =>   CDf =  0.00772    CDp =  0.00754

 Side 1  free  transition at x/c =  0.4492   58
 Side 2  free  transition at x/c =  0.6858   57

   3   rms: 0.7435E+00   max: -.1265E+02   C at   57  2   RLX: 0.040
       a =  4.000      CL =  0.9256
      Cm = -0.0965     CD =  0.01522   =>   CDf =  0.00783    CDp =  0.00739

 Side 1  free  transition at x/c =  0.4486   58
 Side 2  free  transition at x/c =  0.7089   58

   4   rms: 0.1348E+01   max: -.2201E+02   C at   58  2   RLX: 0.023
       a =  4.000      CL =  0.9265
      Cm = -0.0965     CD =  0.01516   =>   CDf =  0.00775    CDp =  0.00740

 Side 1  free  transition at x/c =  0.4484   58
 Side 2  free  transition at x/c =  0.7314   59

   5   rms: 0.2331E+01   max: -.3610E+02   C at   59  2   RLX: 0.014
       a =  4.000      CL =  0.9273
      Cm = -0.0965     CD =  0.01509   =>   CDf =  0.00768    CDp =  0.00742

 Side 1  free  transition at x/c =  0.4482   58
 Side 2  free  transition at x/c =  0.7503   60

   6   rms: 0.4306E+01   max: -.6460E+02   C at   60  2   RLX: 0.008
       a =  4.000      CL =  0.9284
      Cm = -0.0967     CD =  0.01505   =>   CDf =  0.00762    CDp =  0.00743

 Side 1  free  transition at x/c =  0.4481   58
 Side 2  free  transition at x/c =  0.7705   61

   7   rms: 0.9619E+03   max: 0.1385E+05   C at   61  2   RLX: 0.000
       a =  4.000      CL =  0.9237
      Cm = -0.0959     CD =  0.01521   =>   CDf =  0.00756    CDp =  0.00765

 Side 1  free  transition at x/c =  0.4484   58
 Side 2  free  transition at x/c =  0.7246   59

   8   rms: 0.1676E+01   max: -.2733E+02   C at   59  2   RLX: 0.018
       a =  4.000      CL =  0.9246
      Cm = -0.0959     CD =  0.01510   =>   CDf =  0.00771    CDp =  0.00739

 Side 1  free  transition at x/c =  0.4482   58
 Side 2  free  transition at x/c =  0.7426   60

   9   rms: 0.2791E+01   max: -.4444E+02   C at   60  2   RLX: 0.011
       a =  4.000      CL =  0.9256
      Cm = -0.0960     CD =  0.01506   =>   CDf =  0.00765    CDp =  0.00741

 Side 1  free  transition at x/c =  0.4480   58
 Side 2  free  transition at x/c =  0.7662   61

  10   rms: 0.1488E+03   max: 0.2181E+04   C at   61  2   RLX: 0.001
       a =  4.000      CL =  0.9209
      Cm = -0.0952     CD =  0.01520   =>   CDf =  0.00757    CDp =  0.00763

 Side 1  free  transition at x/c =  0.4483   58
 Side 2  free  transition at x/c =  0.7311   59

  11   rms: 0.1706E+01   max: -.2703E+02   C at   59  2   RLX: 0.018
       a =  4.000      CL =  0.9219
      Cm = -0.0951     CD =  0.01507   =>   CDf =  0.00768    CDp =  0.00739

 Side 1  free  transition at x/c =  0.4481   58
 Side 2  free  transition at x/c =  0.7841   62

  12   rms: 0.3422E+01   max: 0.4824E+02   C at   62  2   RLX: 0.031
       a =  4.000      CL =  0.9129
      Cm = -0.0929     CD =  0.01509   =>   CDf =  0.00750    CDp =  0.00759

 Side 1  free  transition at x/c =  0.4484   58
 Side 2  free  transition at x/c =  0.7399   60

  13   rms: 0.2669E+01   max: -.4362E+02   C at   60  2   RLX: 0.011
       a =  4.000      CL =  0.9141
      Cm = -0.0930     CD =  0.01499   =>   CDf =  0.00765    CDp =  0.00734

 Side 1  free  transition at x/c =  0.4482   58
 Side 2  free  transition at x/c =  0.7637   61

  14   rms: 0.1019E+03   max: -.1538E+04   C at   61  2   RLX: 0.000
       a =  4.000      CL =  0.9158
      Cm = -0.0933     CD =  0.01493   =>   CDf =  0.00757    CDp =  0.00736

 Side 1  free  transition at x/c =  0.4481   58
 Side 2  free  transition at x/c =  0.7821   62
 idif Ue xi dudx           1  0.10462119      2.26366520E-03   46.217606    
 Uenew xinew           2  1.43248762E-03  3.09944153E-05

  15   rms: 0.3039E+01   max: 0.4337E+02   C at   62  2   RLX: 0.035
       a =  4.000      CL =  0.9072
      Cm = -0.0914     CD =  0.01507   =>   CDf =  0.00766    CDp =  0.00741

 Side 1  free  transition at x/c =  0.4484   57
 Side 2  free  transition at x/c =  0.7430   61

  16   rms: 0.3516E+01   max: -.5603E+02   C at   61  2   RLX: 0.009
       a =  4.000      CL =  0.9085
      Cm = -0.0915     CD =  0.01496   =>   CDf =  0.00764    CDp =  0.00731

 Side 1  free  transition at x/c =  0.4482   57
 Side 2  free  transition at x/c =  0.7674   62

  17   rms: 0.7347E+01   max: 0.1074E+03   C at   62  2   RLX: 0.014
       a =  4.000      CL =  0.9021
      Cm = -0.0902     CD =  0.01509   =>   CDf =  0.00756    CDp =  0.00753

 Side 1  free  transition at x/c =  0.4485   57
 Side 2  free  transition at x/c =  0.7325   60

  18   rms: 0.2215E+01   max: -.3498E+02   C at   60  2   RLX: 0.014
       a =  4.000      CL =  0.9035
      Cm = -0.0902     CD =  0.01496   =>   CDf =  0.00767    CDp =  0.00729

 Side 1  free  transition at x/c =  0.4483   57
 Side 2  free  transition at x/c =  0.7782   63

  19   rms: 0.2183E+01   max: 0.3157E+02   C at   63  2   RLX: 0.048
       a =  4.000      CL =  0.8930
      Cm = -0.0876     CD =  0.01501   =>   CDf =  0.00751    CDp =  0.00750

 Side 1  free  transition at x/c =  0.4486   57
 Side 2  free  transition at x/c =  0.7356   60

  20   rms: 0.2967E+01   max: -.4625E+02   C at   60  2   RLX: 0.011
       a =  4.000      CL =  0.8948
      Cm = -0.0878     CD =  0.01491   =>   CDf =  0.00766    CDp =  0.00724

 Side 1  free  transition at x/c =  0.4484   57
 Side 2  free  transition at x/c =  0.7797   63

  21   rms: 0.1649E+01   max: 0.2361E+02   C at   63  2   RLX: 0.064
       a =  4.000      CL =  0.8828
      Cm = -0.0847     CD =  0.01495   =>   CDf =  0.00750    CDp =  0.00744

 Side 1  free  transition at x/c =  0.4487   57
 Side 2  free  transition at x/c =  0.7339   60

  22   rms: 0.4281E+01   max: -.6735E+02   C at   60  2   RLX: 0.007
       a =  4.000      CL =  0.8849
      Cm = -0.0851     CD =  0.01486   =>   CDf =  0.00767    CDp =  0.00719

 Side 1  free  transition at x/c =  0.4485   57
 Side 2  free  transition at x/c =  0.7648   62

  23   rms: 0.2657E+01   max: 0.3938E+02   C at   62  2   RLX: 0.038
       a =  4.000      CL =  0.8759
      Cm = -0.0829     CD =  0.01496   =>   CDf =  0.00756    CDp =  0.00740

 Side 1  free  transition at x/c =  0.4488   57
 Side 2  free  transition at x/c =  0.7187   60

  24   rms: 0.3375E+01   max: -.5688E+02   C at   60  2   RLX: 0.009
       a =  4.000      CL =  0.8783
      Cm = -0.0833     CD =  0.01485   =>   CDf =  0.00771    CDp =  0.00714

 Side 1  free  transition at x/c =  0.4486   57
 Side 2  free  transition at x/c =  0.7306   60

  25   rms: 0.2742E+01   max: -.4385E+02   C at   60  2   RLX: 0.011
       a =  4.000      CL =  0.8810
      Cm = -0.0839     CD =  0.01485   =>   CDf =  0.00768    CDp =  0.00717

 Side 1  free  transition at x/c =  0.4484   57
 Side 2  free  transition at x/c =  0.7866   63

  26   rms: 0.9683E+00   max: 0.1293E+02   C at   63  2   RLX: 0.116
       a =  4.000      CL =  0.8650
      Cm = -0.0793     CD =  0.01477   =>   CDf =  0.00747    CDp =  0.00729

 Side 1  free  transition at x/c =  0.4487   57
 Side 2  free  transition at x/c =  0.7625   62

  27   rms: 0.1875E+01   max: 0.2790E+02   C at   62  2   RLX: 0.054
       a =  4.000      CL =  0.8555
      Cm = -0.0769     CD =  0.01476   =>   CDf =  0.00757    CDp =  0.00719

 Side 1  free  transition at x/c =  0.4490   57
 Side 2  free  transition at x/c =  0.7147   59

  28   rms: 0.2771E+01   max: -.4415E+02   C at   59  2   RLX: 0.011
       a =  4.000      CL =  0.8586
      Cm = -0.0775     CD =  0.01466   =>   CDf =  0.00773    CDp =  0.00693

 Side 1  free  transition at x/c =  0.4487   57
 Side 2  free  transition at x/c =  0.7367   61

  29   rms: 0.2452E+02   max: 0.4079E+03   C at   61  2   RLX: 0.004
       a =  4.000      CL =  0.8509
      Cm = -0.0760     CD =  0.01484   =>   CDf =  0.00767    CDp =  0.00717

 Side 1  free  transition at x/c =  0.4492   57
 Side 2  free  transition at x/c =  0.7073   59

  30   rms: 0.2223E+01   max: -.3680E+02   C at   59  2   RLX: 0.014
       a =  4.000      CL =  0.8542
      Cm = -0.0764     CD =  0.01463   =>   CDf =  0.00776    CDp =  0.00687

 Side 1  free  transition at x/c =  0.4489   57
 Side 2  free  transition at x/c =  0.7356   60

  31   rms: 0.3176E+02   max: -.4827E+03   C at   60  2   RLX: 0.001
       a =  4.000      CL =  0.8571
      Cm = -0.0770     CD =  0.01457   =>   CDf =  0.00766    CDp =  0.00690

 Side 1  free  transition at x/c =  0.4487   57
 Side 2  free  transition at x/c =  0.7934   63

  32   rms: 0.8027E+00   max: 0.1018E+02   C at   63  2   RLX: 0.147
       a =  4.000      CL =  0.8421
      Cm = -0.0725     CD =  0.01441   =>   CDf =  0.00746    CDp =  0.00694

 Side 1  free  transition at x/c =  0.4488   57
 Side 2  free  transition at x/c =  0.7832   63

  33   rms: 0.9985E+00   max: 0.1366E+02   C at   63  2   RLX: 0.110
       a =  4.000      CL =  0.8315
      Cm = -0.0696     CD =  0.01431   =>   CDf =  0.00751    CDp =  0.00680

 Side 1  free  transition at x/c =  0.4490   57
 Side 2  free  transition at x/c =  0.7266   60

  34   rms: 0.2845E+02   max: 0.4585E+03   C at   60  2   RLX: 0.003
       a =  4.000      CL =  0.8247
      Cm = -0.0682     CD =  0.01444   =>   CDf =  0.00772    CDp =  0.00672

 Side 1  free  transition at x/c =  0.4494   57
 Side 2  free  transition at x/c =  0.6981   59

  35   rms: 0.1886E+01   max: -.3230E+02   C at   59  2   RLX: 0.015
       a =  4.000      CL =  0.8290
      Cm = -0.0690     CD =  0.01428   =>   CDf =  0.00781    CDp =  0.00647

 Side 1  free  transition at x/c =  0.4491   57
 Side 2  free  transition at x/c =  0.7564   62

  36   rms: 0.1821E+01   max: 0.2821E+02   C at   62  2   RLX: 0.053
       a =  4.000      CL =  0.8216
      Cm = -0.0671     CD =  0.01430   =>   CDf =  0.00761    CDp =  0.00669

 Side 1  free  transition at x/c =  0.4493   57
 Side 2  free  transition at x/c =  0.7150   59

  37   rms: 0.5012E+01   max: -.7892E+02   C at   59  2   RLX: 0.006
       a =  4.000      CL =  0.8248
      Cm = -0.0676     CD =  0.01417   =>   CDf =  0.00775    CDp =  0.00641

 Side 1  free  transition at x/c =  0.4491   57
 Side 2  free  transition at x/c =  0.7950   63

  38   rms: 0.8583E+00   max: 0.1090E+02   C at   63  2   RLX: 0.138
       a =  4.000      CL =  0.8151
      Cm = -0.0645     CD =  0.01400   =>   CDf =  0.00749    CDp =  0.00651

 Side 1  free  transition at x/c =  0.4492   57
 Side 2  free  transition at x/c =  0.7469   61

  39   rms: 0.3915E+01   max: 0.5952E+02   C at   61  2   RLX: 0.025
       a =  4.000      CL =  0.8098
      Cm = -0.0635     CD =  0.01411   =>   CDf =  0.00766    CDp =  0.00645

 Side 1  free  transition at x/c =  0.4494   57
 Side 2  free  transition at x/c =  0.7102   59

  40   rms: 0.3274E+01   max: -.5291E+02   C at   59  2   RLX: 0.009
       a =  4.000      CL =  0.8134
      Cm = -0.0641     CD =  0.01401   =>   CDf =  0.00779    CDp =  0.00622

 Side 1  free  transition at x/c =  0.4492   57
 Side 2  free  transition at x/c =  0.7878   63

  41   rms: 0.9357E+00   max: 0.1248E+02   C at   63  2   RLX: 0.120
       a =  4.000      CL =  0.8058
      Cm = -0.0617     CD =  0.01391   =>   CDf =  0.00753    CDp =  0.00638

 Side 1  free  transition at x/c =  0.4492   57
 Side 2  free  transition at x/c =  0.7421   61

  42   rms: 0.3681E+01   max: 0.5705E+02   C at   61  2   RLX: 0.026
       a =  4.000      CL =  0.8005
      Cm = -0.0606     CD =  0.01400   =>   CDf =  0.00769    CDp =  0.00631

 Side 1  free  transition at x/c =  0.4495   57
 Side 2  free  transition at x/c =  0.7110   59

  43   rms: 0.3965E+01   max: -.6375E+02   C at   59  2   RLX: 0.008
       a =  4.000      CL =  0.8040
      Cm = -0.0612     CD =  0.01388   =>   CDf =  0.00780    CDp =  0.00608

 Side 1  free  transition at x/c =  0.4493   57
 Side 2  free  transition at x/c =  0.7774   63

  44   rms: 0.9573E+00   max: 0.1341E+02   C at   63  2   RLX: 0.112
       a =  4.000      CL =  0.7977
      Cm = -0.0594     CD =  0.01385   =>   CDf =  0.00757    CDp =  0.00628

 Side 1  free  transition at x/c =  0.4494   57
 Side 2  free  transition at x/c =  0.7320   60

  45   rms: 0.6488E+01   max: 0.9942E+02   C at   60  2   RLX: 0.015
       a =  4.000      CL =  0.7917
      Cm = -0.0581     CD =  0.01391   =>   CDf =  0.00773    CDp =  0.00618

 Side 1  free  transition at x/c =  0.4497   57
 Side 2  free  transition at x/c =  0.6980   59

  46   rms: 0.4664E+01   max: -.7970E+02   C at   59  2   RLX: 0.006
       a =  4.000      CL =  0.7956
      Cm = -0.0589     CD =  0.01380   =>   CDf =  0.00784    CDp =  0.00596

 Side 1  free  transition at x/c =  0.4494   57
 Side 2  free  transition at x/c =  0.7150   59

  47   rms: 0.5528E+01   max: -.8688E+02   C at   59  2   RLX: 0.006
       a =  4.000      CL =  0.7992
      Cm = -0.0597     CD =  0.01380   =>   CDf =  0.00779    CDp =  0.00601

 Side 1  free  transition at x/c =  0.4492   57
 Side 2  free  transition at x/c =  0.7965   64

  48   rms: 0.8374E+00   max: 0.1144E+02   C at   64  2   RLX: 0.131
       a =  4.000      CL =  0.7931
      Cm = -0.0576     CD =  0.01371   =>   CDf =  0.00754    CDp =  0.00617

 Side 1  free  transition at x/c =  0.4493   57
 Side 2  free  transition at x/c =  0.7312   60

  49   rms: 0.6701E+01   max: 0.1029E+03   C at   60  2   RLX: 0.015
       a =  4.000      CL =  0.7880
      Cm = -0.0567     CD =  0.01384   =>   CDf =  0.00775    CDp =  0.00610

 Side 1  free  transition at x/c =  0.4496   57
 Side 2  free  transition at x/c =  0.7069   59

  50   rms: 0.4415E+01   max: -.7231E+02   C at   59  2   RLX: 0.007
       a =  4.000      CL =  0.7915
      Cm = -0.0573     CD =  0.01372   =>   CDf =  0.00783    CDp =  0.00589

 Side 1  free  transition at x/c =  0.4493   57
 Side 2  free  transition at x/c =  0.7506   61

  51   rms: 0.2321E+01   max: 0.3338E+02   C at   61  2   RLX: 0.045
       a =  4.000      CL =  0.7867
      Cm = -0.0562     CD =  0.01377   =>   CDf =  0.00767    CDp =  0.00610

 Side 1  free  transition at x/c =  0.4495   57
 Side 2  free  transition at x/c =  0.7171   60

  52   rms: 0.1450E+02   max: 0.2437E+03   C at   60  2   RLX: 0.006
       a =  4.000      CL =  0.7781
      Cm = -0.0543     CD =  0.01382   =>   CDf =  0.00780    CDp =  0.00602

 Side 1  free  transition at x/c =  0.4501   57
 Side 2  free  transition at x/c =  0.6807   58

  53   rms: 0.1616E+01   max: -.2770E+02   C at   58  2   RLX: 0.018
       a =  4.000      CL =  0.7839
      Cm = -0.0555     CD =  0.01370   =>   CDf =  0.00791    CDp =  0.00579

 Side 1  free  transition at x/c =  0.4496   57
 Side 2  free  transition at x/c =  0.7217   60

  54   rms: 0.5351E+01   max: 0.8619E+02   C at   60  2   RLX: 0.017
       a =  4.000      CL =  0.7765
      Cm = -0.0538     CD =  0.01376   =>   CDf =  0.00777    CDp =  0.00599

 Side 1  free  transition at x/c =  0.4501   57
 Side 2  free  transition at x/c =  0.6820   58

  55   rms: 0.1734E+01   max: -.2960E+02   C at   58  2   RLX: 0.017
       a =  4.000      CL =  0.7823
      Cm = -0.0550     CD =  0.01367   =>   CDf =  0.00791    CDp =  0.00576

 Side 1  free  transition at x/c =  0.4497   57
 Side 2  free  transition at x/c =  0.7168   59

  56   rms: 0.2530E+02   max: 0.3825E+03   C at   59  2   RLX: 0.004
       a =  4.000      CL =  0.7737
      Cm = -0.0532     CD =  0.01372   =>   CDf =  0.00778    CDp =  0.00593

 Side 1  free  transition at x/c =  0.4502   57
 Side 2  free  transition at x/c =  0.6727   57

  57   rms: 0.1069E+01   max: -.1781E+02   C at   57  2   RLX: 0.028
       a =  4.000      CL =  0.7812
      Cm = -0.0548     CD =  0.01369   =>   CDf =  0.00794    CDp =  0.00574

 Side 1  free  transition at x/c =  0.4497   57
 Side 2  free  transition at x/c =  0.7058   59

  58   rms: 0.1523E+02   max: -.2471E+03   C at   59  2   RLX: 0.002
       a =  4.000      CL =  0.7847
      Cm = -0.0555     CD =  0.01362   =>   CDf =  0.00783    CDp =  0.00580

 Side 1  free  transition at x/c =  0.4495   57
 Side 2  free  transition at x/c =  0.7349   60

  59   rms: 0.2761E+01   max: 0.3956E+02   C at   60  2   RLX: 0.038
       a =  4.000      CL =  0.7797
      Cm = -0.0544     CD =  0.01370   =>   CDf =  0.00771    CDp =  0.00599

 Side 1  free  transition at x/c =  0.4497   57
 Side 2  free  transition at x/c =  0.7109   59

  60   rms: 0.1191E+02   max: -.1878E+03   C at   59  2   RLX: 0.003
       a =  4.000      CL =  0.7827
      Cm = -0.0549     CD =  0.01358   =>   CDf =  0.00781    CDp =  0.00576

 Side 1  free  transition at x/c =  0.4495   57
 Side 2  free  transition at x/c =  0.7524   61

  61   rms: 0.1852E+01   max: 0.2553E+02   C at   61  2   RLX: 0.059
       a =  4.000      CL =  0.7780
      Cm = -0.0536     CD =  0.01361   =>   CDf =  0.00766    CDp =  0.00595

 Side 1  free  transition at x/c =  0.4497   57
 Side 2  free  transition at x/c =  0.7162   59

  62   rms: 0.7460E+01   max: -.1149E+03   C at   59  2   RLX: 0.004
       a =  4.000      CL =  0.7810
      Cm = -0.0542     CD =  0.01354   =>   CDf =  0.00781    CDp =  0.00573

 Side 1  free  transition at x/c =  0.4495   57
 Side 2  free  transition at x/c =  0.7774   63

  63   rms: 0.1145E+01   max: 0.1612E+02   C at   63  2   RLX: 0.093
       a =  4.000      CL =  0.7758
      Cm = -0.0525     CD =  0.01353   =>   CDf =  0.00761    CDp =  0.00592

 Side 1  free  transition at x/c =  0.4496   57
 Side 2  free  transition at x/c =  0.7141   59

  64   rms: 0.4213E+01   max: -.6642E+02   C at   59  2   RLX: 0.008
       a =  4.000      CL =  0.7796
      Cm = -0.0534     CD =  0.01353   =>   CDf =  0.00783    CDp =  0.00569

 Side 1  free  transition at x/c =  0.4494   57
 Side 2  free  transition at x/c =  0.7851   63

  65   rms: 0.1060E+01   max: 0.1429E+02   C at   63  2   RLX: 0.105
       a =  4.000      CL =  0.7753
      Cm = -0.0519     CD =  0.01350   =>   CDf =  0.00761    CDp =  0.00589

 Side 1  free  transition at x/c =  0.4495   57
 Side 2  free  transition at x/c =  0.7243   60

  66   rms: 0.1770E+02   max: 0.2838E+03   C at   60  2   RLX: 0.005
       a =  4.000      CL =  0.7689
      Cm = -0.0507     CD =  0.01361   =>   CDf =  0.00781    CDp =  0.00580

 Side 1  free  transition at x/c =  0.4499   57
 Side 2  free  transition at x/c =  0.6941   58

  67   rms: 0.3950E+01   max: -.6406E+02   C at   58  2   RLX: 0.008
       a =  4.000      CL =  0.7726
      Cm = -0.0513     CD =  0.01351   =>   CDf =  0.00791    CDp =  0.00560

 Side 1  free  transition at x/c =  0.4496   57
 Side 2  free  transition at x/c =  0.7086   59

  68   rms: 0.4461E+01   max: -.7248E+02   C at   59  2   RLX: 0.007
       a =  4.000      CL =  0.7766
      Cm = -0.0523     CD =  0.01351   =>   CDf =  0.00786    CDp =  0.00565

 Side 1  free  transition at x/c =  0.4494   57
 Side 2  free  transition at x/c =  0.7618   62

  69   rms: 0.1681E+01   max: 0.2385E+02   C at   62  2   RLX: 0.063
       a =  4.000      CL =  0.7722
      Cm = -0.0510     CD =  0.01352   =>   CDf =  0.00767    CDp =  0.00586

 Side 1  free  transition at x/c =  0.4496   57
 Side 2  free  transition at x/c =  0.7149   59

  70   rms: 0.4533E+01   max: -.7159E+02   C at   59  2   RLX: 0.007
       a =  4.000      CL =  0.7758
      Cm = -0.0518     CD =  0.01349   =>   CDf =  0.00785    CDp =  0.00564

 Side 1  free  transition at x/c =  0.4493   57
 Side 2  free  transition at x/c =  0.7918   63

  71   rms: 0.9831E+00   max: 0.1270E+02   C at   63  2   RLX: 0.118
       a =  4.000      CL =  0.7721
      Cm = -0.0504     CD =  0.01344   =>   CDf =  0.00762    CDp =  0.00582

 Side 1  free  transition at x/c =  0.4494   57
 Side 2  free  transition at x/c =  0.7241   60

  72   rms: 0.1399E+02   max: 0.2266E+03   C at   60  2   RLX: 0.007
       a =  4.000      CL =  0.7664
      Cm = -0.0494     CD =  0.01359   =>   CDf =  0.00783    CDp =  0.00576

 Side 1  free  transition at x/c =  0.4498   57
 Side 2  free  transition at x/c =  0.7017   59

  73   rms: 0.3505E+01   max: -.5902E+02   C at   59  2   RLX: 0.008
       a =  4.000      CL =  0.7703
      Cm = -0.0501     CD =  0.01346   =>   CDf =  0.00790    CDp =  0.00556

 Side 1  free  transition at x/c =  0.4495   57
 Side 2  free  transition at x/c =  0.7421   61

  74   rms: 0.2926E+01   max: 0.4461E+02   C at   61  2   RLX: 0.034
       a =  4.000      CL =  0.7660
      Cm = -0.0492     CD =  0.01353   =>   CDf =  0.00776    CDp =  0.00577

 Side 1  free  transition at x/c =  0.4497   57
 Side 2  free  transition at x/c =  0.7118   59

  75   rms: 0.4709E+01   max: -.7538E+02   C at   59  2   RLX: 0.007
       a =  4.000      CL =  0.7695
      Cm = -0.0498     CD =  0.01343   =>   CDf =  0.00787    CDp =  0.00556

 Side 1  free  transition at x/c =  0.4495   57
 Side 2  free  transition at x/c =  0.7870   63

  76   rms: 0.1041E+01   max: 0.1386E+02   C at   63  2   RLX: 0.108
       a =  4.000      CL =  0.7663
      Cm = -0.0486     CD =  0.01339   =>   CDf =  0.00764    CDp =  0.00575

 Side 1  free  transition at x/c =  0.4495   57
 Side 2  free  transition at x/c =  0.7195   60

  77   rms: 0.1912E+02   max: 0.3184E+03   C at   60  2   RLX: 0.005
       a =  4.000      CL =  0.7598
      Cm = -0.0474     CD =  0.01354   =>   CDf =  0.00786    CDp =  0.00568

 Side 1  free  transition at x/c =  0.4500   57
 Side 2  free  transition at x/c =  0.6990   59

  78   rms: 0.1027E+02   max: -.1746E+03   C at   59  2   RLX: 0.003
       a =  4.000      CL =  0.7628
      Cm = -0.0478     CD =  0.01339   =>   CDf =  0.00792    CDp =  0.00547

 Side 1  free  transition at x/c =  0.4498   57
 Side 2  free  transition at x/c =  0.7102   59

  79   rms: 0.4650E+01   max: -.7470E+02   C at   59  2   RLX: 0.007
       a =  4.000      CL =  0.7668
      Cm = -0.0488     CD =  0.01340   =>   CDf =  0.00788    CDp =  0.00552

 Side 1  free  transition at x/c =  0.4495   57
 Side 2  free  transition at x/c =  0.7714   62

  80   rms: 0.1388E+01   max: 0.1865E+02   C at   62  2   RLX: 0.080
       a =  4.000      CL =  0.7639
      Cm = -0.0479     CD =  0.01340   =>   CDf =  0.00768    CDp =  0.00572

 Side 1  free  transition at x/c =  0.4496   57
 Side 2  free  transition at x/c =  0.7278   60

  81   rms: 0.1045E+02   max: 0.1643E+03   C at   60  2   RLX: 0.009
       a =  4.000      CL =  0.7580
      Cm = -0.0467     CD =  0.01348   =>   CDf =  0.00783    CDp =  0.00564

 Side 1  free  transition at x/c =  0.4500   57
 Side 2  free  transition at x/c =  0.6987   59

  82   rms: 0.5758E+01   max: -.9810E+02   C at   59  2   RLX: 0.005
       a =  4.000      CL =  0.7616
      Cm = -0.0473     CD =  0.01337   =>   CDf =  0.00793    CDp =  0.00543

 Side 1  free  transition at x/c =  0.4497   57
 Side 2  free  transition at x/c =  0.7131   59

  83   rms: 0.5322E+01   max: -.8412E+02   C at   59  2   RLX: 0.006
       a =  4.000      CL =  0.7653
      Cm = -0.0482     CD =  0.01337   =>   CDf =  0.00788    CDp =  0.00549

 Side 1  free  transition at x/c =  0.4495   57
 Side 2  free  transition at x/c =  0.7814   63

  84   rms: 0.1090E+01   max: 0.1485E+02   C at   63  2   RLX: 0.101
       a =  4.000      CL =  0.7626
      Cm = -0.0473     CD =  0.01337   =>   CDf =  0.00767    CDp =  0.00569

 Side 1  free  transition at x/c =  0.4496   57
 Side 2  free  transition at x/c =  0.7161   59

  85   rms: 0.4520E+01   max: -.7092E+02   C at   59  2   RLX: 0.007
       a =  4.000      CL =  0.7664
      Cm = -0.0482     CD =  0.01338   =>   CDf =  0.00788    CDp =  0.00550

 Side 1  free  transition at x/c =  0.4493   57
 Side 2  free  transition at x/c =  0.8005   64

  86   rms: 0.9463E+00   max: 0.1270E+02   C at   64  2   RLX: 0.118
       a =  4.000      CL =  0.7644
      Cm = -0.0475     CD =  0.01334   =>   CDf =  0.00765    CDp =  0.00569

 Side 1  free  transition at x/c =  0.4494   57
 Side 2  free  transition at x/c =  0.7279   60

  87   rms: 0.1323E+02   max: 0.2097E+03   C at   60  2   RLX: 0.007
       a =  4.000      CL =  0.7593
      Cm = -0.0466     CD =  0.01349   =>   CDf =  0.00784    CDp =  0.00564

 Side 1  free  transition at x/c =  0.4497   57
 Side 2  free  transition at x/c =  0.7054   59

  88   rms: 0.3781E+01   max: -.6246E+02   C at   59  2   RLX: 0.008
       a =  4.000      CL =  0.7629
      Cm = -0.0472     CD =  0.01337   =>   CDf =  0.00792    CDp =  0.00546

 Side 1  free  transition at x/c =  0.4495   57
 Side 2  free  transition at x/c =  0.7444   61

  89   rms: 0.2803E+01   max: 0.4184E+02   C at   61  2   RLX: 0.036
       a =  4.000      CL =  0.7595
      Cm = -0.0466     CD =  0.01344   =>   CDf =  0.00778    CDp =  0.00566

 Side 1  free  transition at x/c =  0.4497   57
 Side 2  free  transition at x/c =  0.7139   59

  90   rms: 0.4516E+01   max: -.7167E+02   C at   59  2   RLX: 0.007
       a =  4.000      CL =  0.7631
      Cm = -0.0472     CD =  0.01336   =>   CDf =  0.00790    CDp =  0.00546

 Side 1  free  transition at x/c =  0.4494   57
 Side 2  free  transition at x/c =  0.7870   63

  91   rms: 0.1114E+01   max: 0.1479E+02   C at   63  2   RLX: 0.101
       a =  4.000      CL =  0.7608
      Cm = -0.0464     CD =  0.01333   =>   CDf =  0.00767    CDp =  0.00565

 Side 1  free  transition at x/c =  0.4495   57
 Side 2  free  transition at x/c =  0.7248   60

  92   rms: 0.3433E+02   max: 0.5547E+03   C at   60  2   RLX: 0.003
       a =  4.000      CL =  0.7545
      Cm = -0.0452     CD =  0.01345   =>   CDf =  0.00786    CDp =  0.00559

 Side 1  free  transition at x/c =  0.4499   57
 Side 2  free  transition at x/c =  0.6918   58

  93   rms: 0.2745E+01   max: -.4493E+02   C at   58  2   RLX: 0.011
       a =  4.000      CL =  0.7589
      Cm = -0.0461     CD =  0.01336   =>   CDf =  0.00796    CDp =  0.00539

 Side 1  free  transition at x/c =  0.4496   57
 Side 2  free  transition at x/c =  0.7122   59

  94   rms: 0.4546E+01   max: -.7244E+02   C at   59  2   RLX: 0.007
       a =  4.000      CL =  0.7627
      Cm = -0.0470     CD =  0.01335   =>   CDf =  0.00790    CDp =  0.00544

 Side 1  free  transition at x/c =  0.4494   57
 Side 2  free  transition at x/c =  0.7820   63

  95   rms: 0.1162E+01   max: 0.1580E+02   C at   63  2   RLX: 0.095
       a =  4.000      CL =  0.7605
      Cm = -0.0463     CD =  0.01333   =>   CDf =  0.00769    CDp =  0.00565

 Side 1  free  transition at x/c =  0.4495   57
 Side 2  free  transition at x/c =  0.7178   60

  96   rms: 0.4347E+02   max: 0.7304E+03   C at   60  2   RLX: 0.002
       a =  4.000      CL =  0.7537
      Cm = -0.0449     CD =  0.01347   =>   CDf =  0.00789    CDp =  0.00558

 Side 1  free  transition at x/c =  0.4499   57
 Side 2  free  transition at x/c =  0.6976   58

  97   rms: 0.3312E+01   max: -.5276E+02   C at   58  2   RLX: 0.009
       a =  4.000      CL =  0.7574
      Cm = -0.0456     CD =  0.01333   =>   CDf =  0.00795    CDp =  0.00538

 Side 1  free  transition at x/c =  0.4496   57
 Side 2  free  transition at x/c =  0.7169   59

  98   rms: 0.8633E+01   max: -.1332E+03   C at   59  2   RLX: 0.004
       a =  4.000      CL =  0.7607
      Cm = -0.0463     CD =  0.01331   =>   CDf =  0.00789    CDp =  0.00542

 Side 1  free  transition at x/c =  0.4494   57
 Side 2  free  transition at x/c =  0.7866   63

  99   rms: 0.1141E+01   max: 0.1533E+02   C at   63  2   RLX: 0.098
       a =  4.000      CL =  0.7588
      Cm = -0.0457     CD =  0.01331   =>   CDf =  0.00769    CDp =  0.00562

 Side 1  free  transition at x/c =  0.4495   57
 Side 2  free  transition at x/c =  0.7249   60

 100   rms: 0.1425E+02   max: 0.2290E+03   C at   60  2   RLX: 0.007
       a =  4.000      CL =  0.7532
      Cm = -0.0446     CD =  0.01343   =>   CDf =  0.00787    CDp =  0.00556

 Side 1  free  transition at x/c =  0.4499   57
 Side 2  free  transition at x/c =  0.7017   59

 101   rms: 0.4039E+01   max: -.6781E+02   C at   59  2   RLX: 0.007
       a =  4.000      CL =  0.7568
      Cm = -0.0453     CD =  0.01330   =>   CDf =  0.00795    CDp =  0.00536

 Side 1  free  transition at x/c =  0.4496   57
 Side 2  free  transition at x/c =  0.7246   60

 102   rms: 0.8706E+01   max: 0.1393E+03   C at   60  2   RLX: 0.011
       a =  4.000      CL =  0.7511
      Cm = -0.0441     CD =  0.01341   =>   CDf =  0.00787    CDp =  0.00554

 Side 1  free  transition at x/c =  0.4500   57
 Side 2  free  transition at x/c =  0.7026   59

 103   rms: 0.5573E+01   max: -.9300E+02   C at   59  2   RLX: 0.005
       a =  4.000      CL =  0.7544
      Cm = -0.0446     CD =  0.01328   =>   CDf =  0.00795    CDp =  0.00533

 Side 1  free  transition at x/c =  0.4497   57
 Side 2  free  transition at x/c =  0.7194   60

 104   rms: 0.1382E+02   max: 0.2281E+03   C at   60  2   RLX: 0.007
       a =  4.000      CL =  0.7474
      Cm = -0.0432     CD =  0.01339   =>   CDf =  0.00790    CDp =  0.00550

 Side 1  free  transition at x/c =  0.4502   57
 Side 2  free  transition at x/c =  0.6912   58

 105   rms: 0.2811E+01   max: -.4602E+02   C at   58  2   RLX: 0.011
       a =  4.000      CL =  0.7518
      Cm = -0.0440     CD =  0.01328   =>   CDf =  0.00800    CDp =  0.00528

 Side 1  free  transition at x/c =  0.4499   57
 Side 2  free  transition at x/c =  0.7154   59

 106   rms: 0.7836E+01   max: -.1212E+03   C at   59  2   RLX: 0.004
       a =  4.000      CL =  0.7552
      Cm = -0.0447     CD =  0.01325   =>   CDf =  0.00792    CDp =  0.00534

 Side 1  free  transition at x/c =  0.4497   57
 Side 2  free  transition at x/c =  0.7746   62

 107   rms: 0.1689E+01   max: 0.2272E+02   C at   62  2   RLX: 0.066
       a =  4.000      CL =  0.7526
      Cm = -0.0438     CD =  0.01326   =>   CDf =  0.00776    CDp =  0.00549

 Side 1  free  transition at x/c =  0.4498   57
 Side 2  free  transition at x/c =  0.7262   60

 108   rms: 0.4390E+02   max: 0.6917E+03   C at   60  2   RLX: 0.002
       a =  4.000      CL =  0.7462
      Cm = -0.0424     CD =  0.01334   =>   CDf =  0.00789    CDp =  0.00544

 Side 1  free  transition at x/c =  0.4502   57
 Side 2  free  transition at x/c =  0.6948   58

 109   rms: 0.2627E+01   max: -.4237E+02   C at   58  2   RLX: 0.012
       a =  4.000      CL =  0.7505
      Cm = -0.0432     CD =  0.01326   =>   CDf =  0.00802    CDp =  0.00524

 Side 1  free  transition at x/c =  0.4499   57
 Side 2  free  transition at x/c =  0.7157   59

 110   rms: 0.4633E+01   max: -.7177E+02   C at   59  2   RLX: 0.007
       a =  4.000      CL =  0.7541
      Cm = -0.0441     CD =  0.01325   =>   CDf =  0.00796    CDp =  0.00529

 Side 1  free  transition at x/c =  0.4496   57
 Side 2  free  transition at x/c =  0.7852   63

 111   rms: 0.1449E+01   max: 0.1978E+02   C at   63  2   RLX: 0.076
       a =  4.000      CL =  0.7514
      Cm = -0.0430     CD =  0.01324   =>   CDf =  0.00779    CDp =  0.00545

 Side 1  free  transition at x/c =  0.4497   57
 Side 2  free  transition at x/c =  0.7145   59

 112   rms: 0.3751E+01   max: -.5926E+02   C at   59  2   RLX: 0.008
       a =  4.000      CL =  0.7555
      Cm = -0.0441     CD =  0.01326   =>   CDf =  0.00795    CDp =  0.00532

 Side 1  free  transition at x/c =  0.4495   57
 Side 2  free  transition at x/c =  0.7918   63

 113   rms: 0.1323E+01   max: 0.1733E+02   C at   63  2   RLX: 0.087
       a =  4.000      CL =  0.7538
      Cm = -0.0434     CD =  0.01324   =>   CDf =  0.00776    CDp =  0.00547

 Side 1  free  transition at x/c =  0.4496   57
 Side 2  free  transition at x/c =  0.7245   60

 114   rms: 0.4082E+02   max: 0.6593E+03   C at   60  2   RLX: 0.002
       a =  4.000      CL =  0.7482
      Cm = -0.0423     CD =  0.01338   =>   CDf =  0.00790    CDp =  0.00548

 Side 1  free  transition at x/c =  0.4499   57
 Side 2  free  transition at x/c =  0.7042   59

 115   rms: 0.3222E+01   max: -.5347E+02   C at   59  2   RLX: 0.009
       a =  4.000      CL =  0.7519
      Cm = -0.0429     CD =  0.01325   =>   CDf =  0.00797    CDp =  0.00528

 Side 1  free  transition at x/c =  0.4497   57
 Side 2  free  transition at x/c =  0.7367   61

 116   rms: 0.6131E+01   max: 0.9667E+02   C at   61  2   RLX: 0.016
       a =  4.000      CL =  0.7476
      Cm = -0.0420     CD =  0.01334   =>   CDf =  0.00787    CDp =  0.00546

 Side 1  free  transition at x/c =  0.4499   57
 Side 2  free  transition at x/c =  0.7083   59

 117   rms: 0.2974E+01   max: -.4842E+02   C at   59  2   RLX: 0.010
       a =  4.000      CL =  0.7514
      Cm = -0.0427     CD =  0.01325   =>   CDf =  0.00800    CDp =  0.00526

 Side 1  free  transition at x/c =  0.4497   57
 Side 2  free  transition at x/c =  0.7620   62

 118   rms: 0.2658E+01   max: 0.3788E+02   C at   62  2   RLX: 0.040
       a =  4.000      CL =  0.7479
      Cm = -0.0416     CD =  0.01327   =>   CDf =  0.00785    CDp =  0.00542

 Side 1  free  transition at x/c =  0.4498   57
 Side 2  free  transition at x/c =  0.7159   59

 119   rms: 0.2921E+01   max: -.4597E+02   C at   59  2   RLX: 0.011
       a =  4.000      CL =  0.7519
      Cm = -0.0425     CD =  0.01326   =>   CDf =  0.00801    CDp =  0.00525

 Side 1  free  transition at x/c =  0.4496   57
 Side 2  free  transition at x/c =  0.8063   64

 120   rms: 0.1224E+01   max: 0.1618E+02   C at   64  2   RLX: 0.093
       a =  4.000      CL =  0.7498
      Cm = -0.0415     CD =  0.01320   =>   CDf =  0.00782    CDp =  0.00538

 Side 1  free  transition at x/c =  0.4496   57
 Side 2  free  transition at x/c =  0.7163   59

 121   rms: 0.3024E+01   max: -.4785E+02   C at   59  2   RLX: 0.010
       a =  4.000      CL =  0.7545
      Cm = -0.0428     CD =  0.01327   =>   CDf =  0.00795    CDp =  0.00531

 Side 1  free  transition at x/c =  0.4494   57
 Side 2  free  transition at x/c =  0.7987   64

 122   rms: 0.1288E+01   max: 0.1738E+02   C at   64  2   RLX: 0.086
       a =  4.000      CL =  0.7527
      Cm = -0.0423     CD =  0.01323   =>   CDf =  0.00777    CDp =  0.00546

 Side 1  free  transition at x/c =  0.4495   57
 Side 2  free  transition at x/c =  0.7162   59

 123   rms: 0.2793E+01   max: -.4444E+02   C at   59  2   RLX: 0.011
       a =  4.000      CL =  0.7573
      Cm = -0.0436     CD =  0.01329   =>   CDf =  0.00794    CDp =  0.00535

 Side 1  free  transition at x/c =  0.4492   57
 Side 2  free  transition at x/c =  0.7743   62

 124   rms: 0.2279E+01   max: 0.3024E+02   C at   62  2   RLX: 0.050
       a =  4.000      CL =  0.7548
      Cm = -0.0429     CD =  0.01329   =>   CDf =  0.00776    CDp =  0.00552

 Side 1  free  transition at x/c =  0.4494   57
 Side 2  free  transition at x/c =  0.7322   60

 125   rms: 0.1300E+02   max: -.2035E+03   C at   60  2   RLX: 0.002
       a =  4.000      CL =  0.7571
      Cm = -0.0435     CD =  0.01326   =>   CDf =  0.00790    CDp =  0.00536

 Side 1  free  transition at x/c =  0.4492   57
 Side 2  free  transition at x/c =  0.7552   61

 126   rms: 0.4528E+01   max: 0.6337E+02   C at   61  2   RLX: 0.024
       a =  4.000      CL =  0.7541
      Cm = -0.0429     CD =  0.01334   =>   CDf =  0.00782    CDp =  0.00552

 Side 1  free  transition at x/c =  0.4494   57
 Side 2  free  transition at x/c =  0.7209   60

 127   rms: 0.6370E+01   max: -.1066E+03   C at   60  2   RLX: 0.005
       a =  4.000      CL =  0.7568
      Cm = -0.0435     CD =  0.01329   =>   CDf =  0.00796    CDp =  0.00533

 Side 1  free  transition at x/c =  0.4492   57
 Side 2  free  transition at x/c =  0.7324   60

 128   rms: 0.4825E+01   max: -.7597E+02   C at   60  2   RLX: 0.007
       a =  4.000      CL =  0.7601
      Cm = -0.0443     CD =  0.01329   =>   CDf =  0.00792    CDp =  0.00538

 Side 1  free  transition at x/c =  0.4490   57
 Side 2  free  transition at x/c =  0.7789   63

 129   rms: 0.1686E+01   max: 0.2288E+02   C at   63  2   RLX: 0.066
       a =  4.000      CL =  0.7577
      Cm = -0.0437     CD =  0.01332   =>   CDf =  0.00779    CDp =  0.00553

 Side 1  free  transition at x/c =  0.4492   57
 Side 2  free  transition at x/c =  0.7317   60

 130   rms: 0.4593E+01   max: -.7303E+02   C at   60  2   RLX: 0.007
       a =  4.000      CL =  0.7610
      Cm = -0.0445     CD =  0.01331   =>   CDf =  0.00792    CDp =  0.00539

 Side 1  free  transition at x/c =  0.4490   57
 Side 2  free  transition at x/c =  0.7779   63

 131   rms: 0.1694E+01   max: 0.2315E+02   C at   63  2   RLX: 0.065
       a =  4.000      CL =  0.7586
      Cm = -0.0439     CD =  0.01334   =>   CDf =  0.00779    CDp =  0.00555

 Side 1  free  transition at x/c =  0.4491   57
 Side 2  free  transition at x/c =  0.7320   60

 132   rms: 0.4567E+01   max: -.7273E+02   C at   60  2   RLX: 0.007
       a =  4.000      CL =  0.7619
      Cm = -0.0447     CD =  0.01333   =>   CDf =  0.00792    CDp =  0.00541

 Side 1  free  transition at x/c =  0.4489   57
 Side 2  free  transition at x/c =  0.7790   63

 133   rms: 0.1682E+01   max: 0.2294E+02   C at   63  2   RLX: 0.065
       a =  4.000      CL =  0.7594
      Cm = -0.0441     CD =  0.01335   =>   CDf =  0.00779    CDp =  0.00556

 Side 1  free  transition at x/c =  0.4491   57
 Side 2  free  transition at x/c =  0.7337   60

 134   rms: 0.4847E+01   max: -.7674E+02   C at   60  2   RLX: 0.007
       a =  4.000      CL =  0.7626
      Cm = -0.0449     CD =  0.01334   =>   CDf =  0.00792    CDp =  0.00542

 Side 1  free  transition at x/c =  0.4489   57
 Side 2  free  transition at x/c =  0.7823   63

 135   rms: 0.1496E+01   max: 0.1987E+02   C at   63  2   RLX: 0.076
       a =  4.000      CL =  0.7607
      Cm = -0.0444     CD =  0.01335   =>   CDf =  0.00778    CDp =  0.00557

 Side 1  free  transition at x/c =  0.4490   57
 Side 2  free  transition at x/c =  0.7370   61

 136   rms: 0.2701E+02   max: -.4533E+03   C at   61  2   RLX: 0.001
       a =  4.000      CL =  0.7632
      Cm = -0.0451     CD =  0.01333   =>   CDf =  0.00789    CDp =  0.00544

 Side 1  free  transition at x/c =  0.4489   57
 Side 2  free  transition at x/c =  0.7551   61

 137   rms: 0.6922E+01   max: 0.1013E+03   C at   61  2   RLX: 0.015
       a =  4.000      CL =  0.7595
      Cm = -0.0444     CD =  0.01344   =>   CDf =  0.00783    CDp =  0.00562

 Side 1  free  transition at x/c =  0.4491   57
 Side 2  free  transition at x/c =  0.7204   60

 138   rms: 0.4169E+01   max: -.7023E+02   C at   60  2   RLX: 0.007
       a =  4.000      CL =  0.7626
      Cm = -0.0450     CD =  0.01337   =>   CDf =  0.00796    CDp =  0.00541

 Side 1  free  transition at x/c =  0.4489   57
 Side 2  free  transition at x/c =  0.7353   60

 139   rms: 0.3724E+01   max: -.5852E+02   C at   60  2   RLX: 0.009
       a =  4.000      CL =  0.7662
      Cm = -0.0459     CD =  0.01338   =>   CDf =  0.00791    CDp =  0.00546

 Side 1  free  transition at x/c =  0.4487   57
 Side 2  free  transition at x/c =  0.8150   64

 140   rms: 0.1340E+01   max: 0.1605E+02   C at   64  2   RLX: 0.093
       a =  4.000      CL =  0.7642
      Cm = -0.0453     CD =  0.01328   =>   CDf =  0.00774    CDp =  0.00554

 Side 1  free  transition at x/c =  0.4488   57
 Side 2  free  transition at x/c =  0.7587   62

 141   rms: 0.4849E+01   max: 0.7344E+02   C at   62  2   RLX: 0.020
       a =  4.000      CL =  0.7616
      Cm = -0.0450     CD =  0.01343   =>   CDf =  0.00780    CDp =  0.00564

 Side 1  free  transition at x/c =  0.4490   57
 Side 2  free  transition at x/c =  0.7267   60

 142   rms: 0.3794E+01   max: -.6205E+02   C at   60  2   RLX: 0.008
       a =  4.000      CL =  0.7647
      Cm = -0.0456     CD =  0.01335   =>   CDf =  0.00792    CDp =  0.00544

 Side 1  free  transition at x/c =  0.4488   57
 Side 2  free  transition at x/c =  0.7589   62

 143   rms: 0.4653E+01   max: 0.7046E+02   C at   62  2   RLX: 0.021
       a =  4.000      CL =  0.7614
      Cm = -0.0450     CD =  0.01344   =>   CDf =  0.00782    CDp =  0.00562

 Side 1  free  transition at x/c =  0.4490   57
 Side 2  free  transition at x/c =  0.7296   60

 144   rms: 0.3444E+01   max: -.5555E+02   C at   60  2   RLX: 0.009
       a =  4.000      CL =  0.7644
      Cm = -0.0455     CD =  0.01336   =>   CDf =  0.00794    CDp =  0.00542

 Side 1  free  transition at x/c =  0.4488   57
 Side 2  free  transition at x/c =  0.7732   62

 145   rms: 0.2140E+01   max: 0.2823E+02   C at   62  2   RLX: 0.053
       a =  4.000      CL =  0.7617
      Cm = -0.0447     CD =  0.01339   =>   CDf =  0.00782    CDp =  0.00557

 Side 1  free  transition at x/c =  0.4489   57
 Side 2  free  transition at x/c =  0.7477   61

 146   rms: 0.2819E+02   max: -.4409E+03   C at   61  2   RLX: 0.001
       a =  4.000      CL =  0.7633
      Cm = -0.0450     CD =  0.01332   =>   CDf =  0.00790    CDp =  0.00542

 Side 1  free  transition at x/c =  0.4488   57
 Side 2  free  transition at x/c =  0.7664   62

 147   rms: 0.3095E+01   max: 0.4391E+02   C at   62  2   RLX: 0.034
       a =  4.000      CL =  0.7607
      Cm = -0.0445     CD =  0.01343   =>   CDf =  0.00785    CDp =  0.00558

 Side 1  free  transition at x/c =  0.4490   57
 Side 2  free  transition at x/c =  0.7352   60

 148   rms: 0.4326E+01   max: -.6778E+02   C at   60  2   RLX: 0.007
       a =  4.000      CL =  0.7631
      Cm = -0.0450     CD =  0.01338   =>   CDf =  0.00797    CDp =  0.00541

 Side 1  free  transition at x/c =  0.4488   57
 Side 2  free  transition at x/c =  0.7763   63

 149   rms: 0.1800E+01   max: 0.2479E+02   C at   63  2   RLX: 0.061
       a =  4.000      CL =  0.7603
      Cm = -0.0441     CD =  0.01340   =>   CDf =  0.00785    CDp =  0.00555

 Side 1  free  transition at x/c =  0.4490   57
 Side 2  free  transition at x/c =  0.7336   60

 150   rms: 0.4818E+01   max: -.7628E+02   C at   60  2   RLX: 0.007
       a =  4.000      CL =  0.7632
      Cm = -0.0448     CD =  0.01338   =>   CDf =  0.00796    CDp =  0.00542

 Side 1  free  transition at x/c =  0.4488   57
 Side 2  free  transition at x/c =  0.7701   62

 151   rms: 0.2827E+01   max: 0.3903E+02   C at   62  2   RLX: 0.038
       a =  4.000      CL =  0.7599
      Cm = -0.0439     CD =  0.01343   =>   CDf =  0.00786    CDp =  0.00557

 Side 1  free  transition at x/c =  0.4490   57
 Side 2  free  transition at x/c =  0.7375   61

 152   rms: 0.6076E+01   max: -.1016E+03   C at   61  2   RLX: 0.005
       a =  4.000      CL =  0.7620
      Cm = -0.0443     CD =  0.01338   =>   CDf =  0.00798    CDp =  0.00540

 Side 1  free  transition at x/c =  0.4488   57
 Side 2  free  transition at x/c =  0.7569   62

 153   rms: 0.2796E+02   max: 0.4411E+03   C at   62  2   RLX: 0.003
       a =  4.000      CL =  0.7579
      Cm = -0.0434     CD =  0.01349   =>   CDf =  0.00793    CDp =  0.00557

 Side 1  free  transition at x/c =  0.4491   57
 Side 2  free  transition at x/c =  0.7212   60

 154   rms: 0.2594E+01   max: -.4336E+02   C at   60  2   RLX: 0.012
       a =  4.000      CL =  0.7605
      Cm = -0.0438     CD =  0.01342   =>   CDf =  0.00808    CDp =  0.00534

 Side 1  free  transition at x/c =  0.4489   57
 Side 2  free  transition at x/c =  0.7354   60

 155   rms: 0.2445E+01   max: -.3836E+02   C at   60  2   RLX: 0.013
       a =  4.000      CL =  0.7642
      Cm = -0.0448     CD =  0.01343   =>   CDf =  0.00804    CDp =  0.00539
 VISCAL:  Convergence failed
 Calculating wake trajectory ...
 Calculating source influence matrix ...

 Solving BL system ...

 Side 1  free  transition at x/c =  0.4487   57
 Side 2  free  transition at x/c =  0.8023   64

   1   rms: 0.3899E+01   max: 0.4696E+02   C at   64  2   RLX: 0.032
       a =  4.500      CL =  0.7550
      Cm = -0.0415     CD =  0.01324   =>   CDf =  0.00787    CDp =  0.00537

 Side 1  free  transition at x/c =  0.4488   57
 Side 2  free  transition at x/c =  0.7360   60

   2   rms: 0.7772E+01   max: -.1225E+03   C at   60  2   RLX: 0.004
       a =  4.500      CL =  0.7583
      Cm = -0.0425     CD =  0.01331   =>   CDf =  0.00794    CDp =  0.00538

 Side 1  free  transition at x/c =  0.4486   57
 Side 2  free  transition at x/c =  0.8088   64

   3   rms: 0.3378E+01   max: 0.4030E+02   C at   64  2   RLX: 0.037
       a =  4.500      CL =  0.7493
      Cm = -0.0396     CD =  0.01316   =>   CDf =  0.00777    CDp =  0.00539

 Side 1  free  transition at x/c =  0.4487   57
 Side 2  free  transition at x/c =  0.7424   61

   4   rms: 0.2576E+02   max: -.4228E+03   C at   61  2   RLX: 0.001
       a =  4.500      CL =  0.7517
      Cm = -0.0404     CD =  0.01321   =>   CDf =  0.00791    CDp =  0.00530

 Side 1  free  transition at x/c =  0.4486   57
 Side 2  free  transition at x/c =  0.7657   62

   5   rms: 0.8645E+01   max: 0.1253E+03   C at   62  2   RLX: 0.012
       a =  4.500      CL =  0.7474
      Cm = -0.0394     CD =  0.01329   =>   CDf =  0.00783    CDp =  0.00546

 Side 1  free  transition at x/c =  0.4487   57
 Side 2  free  transition at x/c =  0.7354   60

   6   rms: 0.7671E+01   max: -.1216E+03   C at   60  2   RLX: 0.004
       a =  4.500      CL =  0.7499
      Cm = -0.0398     CD =  0.01322   =>   CDf =  0.00795    CDp =  0.00527

 Side 1  free  transition at x/c =  0.4485   57
 Side 2  free  transition at x/c =  0.8041   64

   7   rms: 0.3612E+01   max: 0.4367E+02   C at   64  2   RLX: 0.034
       a =  4.500      CL =  0.7417
      Cm = -0.0372     CD =  0.01308   =>   CDf =  0.00778    CDp =  0.00530

 Side 1  free  transition at x/c =  0.4486   57
 Side 2  free  transition at x/c =  0.7412   61

   8   rms: 0.2234E+02   max: -.3702E+03   C at   61  2   RLX: 0.001
       a =  4.500      CL =  0.7442
      Cm = -0.0380     CD =  0.01313   =>   CDf =  0.00793    CDp =  0.00520

 Side 1  free  transition at x/c =  0.4485   57
 Side 2  free  transition at x/c =  0.7627   62

   9   rms: 0.1371E+02   max: 0.2074E+03   C at   62  2   RLX: 0.007
       a =  4.500      CL =  0.7401
      Cm = -0.0371     CD =  0.01321   =>   CDf =  0.00786    CDp =  0.00536

 Side 1  free  transition at x/c =  0.4487   57
 Side 2  free  transition at x/c =  0.7321   60

  10   rms: 0.6992E+01   max: -.1126E+03   C at   60  2   RLX: 0.004
       a =  4.500      CL =  0.7427
      Cm = -0.0376     CD =  0.01314   =>   CDf =  0.00797    CDp =  0.00517

 Side 1  free  transition at x/c =  0.4484   57
 Side 2  free  transition at x/c =  0.7962   64

  11   rms: 0.3768E+01   max: 0.4681E+02   C at   64  2   RLX: 0.032
       a =  4.500      CL =  0.7351
      Cm = -0.0352     CD =  0.01302   =>   CDf =  0.00780    CDp =  0.00522

 Side 1  free  transition at x/c =  0.4486   57
 Side 2  free  transition at x/c =  0.7353   60

  12   rms: 0.7120E+01   max: -.1131E+03   C at   60  2   RLX: 0.004
       a =  4.500      CL =  0.7384
      Cm = -0.0361     CD =  0.01308   =>   CDf =  0.00796    CDp =  0.00512

 Side 1  free  transition at x/c =  0.4484   57
 Side 2  free  transition at x/c =  0.8086   64

  13   rms: 0.4608E+01   max: 0.5450E+02   C at   64  2   RLX: 0.028
       a =  4.500      CL =  0.7318
      Cm = -0.0340     CD =  0.01294   =>   CDf =  0.00778    CDp =  0.00516

 Side 1  free  transition at x/c =  0.4485   57
 Side 2  free  transition at x/c =  0.7508   61

  14   rms: 0.2976E+02   max: -.4699E+03   C at   61  2   RLX: 0.001
       a =  4.500      CL =  0.7338
      Cm = -0.0346     CD =  0.01298   =>   CDf =  0.00792    CDp =  0.00506

 Side 1  free  transition at x/c =  0.4484   57
 Side 2  free  transition at x/c =  0.7721   62

  15   rms: 0.1211E+02   max: 0.1688E+03   C at   62  2   RLX: 0.009
       a =  4.500      CL =  0.7300
      Cm = -0.0337     CD =  0.01304   =>   CDf =  0.00784    CDp =  0.00520

 Side 1  free  transition at x/c =  0.4485   57
 Side 2  free  transition at x/c =  0.7403   61

  16   rms: 0.1862E+02   max: -.3111E+03   C at   61  2   RLX: 0.002
       a =  4.500      CL =  0.7320
      Cm = -0.0341     CD =  0.01299   =>   CDf =  0.00796    CDp =  0.00502

 Side 1  free  transition at x/c =  0.4484   57
 Side 2  free  transition at x/c =  0.7609   62

[...]
      Cm = -0.0572     CD =  0.03442   =>   CDf =  0.00718    CDp =  0.02724
 plradd ia,ip,cpol           28           0  3.28868814E-02

 Point added to stored polar  1
 Point written to save file  goe628_Re200k.base.pol                          
 Dump file unspecified or not available
 Calculating wake trajectory ...
 Calculating source influence matrix ...

 Solving BL system ...

 Side 1  free  transition at x/c =  0.2815   60
 Side 2 forced transition at x/c =  1.0000   62

   1   rms: 0.2851E-01   max: 0.1101E+00   T at   60  1   RLX: 0.782
       a = 13.250      CL =  1.6623
      Cm = -0.0551     CD =  0.03534   =>   CDf =  0.00719    CDp =  0.02815

 Side 1  free  transition at x/c =  0.2787   60
 Side 2 forced transition at x/c =  1.0000   62

   2   rms: 0.6782E-02   max: -.2614E-01   D at   61  1
       a = 13.250      CL =  1.6658
      Cm = -0.0549     CD =  0.03541   =>   CDf =  0.00710    CDp =  0.02830

 Side 1  free  transition at x/c =  0.2780   60
 Side 2 forced transition at x/c =  1.0000   62

   3   rms: 0.6224E-03   max: -.2700E-02   D at   92  1
       a = 13.250      CL =  1.6663
      Cm = -0.0549     CD =  0.03538   =>   CDf =  0.00709    CDp =  0.02830

 Side 1  free  transition at x/c =  0.2780   60
 Side 2 forced transition at x/c =  1.0000   62

   4   rms: 0.2939E-04   max: -.8323E-04   D at   88  1
       a = 13.250      CL =  1.6663
      Cm = -0.0549     CD =  0.03539   =>   CDf =  0.00709    CDp =  0.02830
 plradd ia,ip,cpol           29           0  3.28868814E-02

 Point added to stored polar  1
 Point written to save file  goe628_Re200k.base.pol                          
 Dump file unspecified or not available
 Calculating wake trajectory ...
 Calculating source influence matrix ...

 Solving BL system ...

 Side 1  free  transition at x/c =  0.2780   60
 Side 2 forced transition at x/c =  1.0000   62

   1   rms: 0.2965E-01   max: 0.1167E+00   T at   60  1   RLX: 0.762
       a = 13.500      CL =  1.6734
      Cm = -0.0537     CD =  0.03606   =>   CDf =  0.00710    CDp =  0.02896

 Side 1  free  transition at x/c =  0.2754   60
 Side 2 forced transition at x/c =  1.0000   62

   2   rms: 0.9589E-02   max: -.3196E-01   D at   60  1
       a = 13.500      CL =  1.6801
      Cm = -0.0537     CD =  0.03603   =>   CDf =  0.00707    CDp =  0.02896

 Side 1  free  transition at x/c =  0.2747   60
 Side 2 forced transition at x/c =  1.0000   62

   3   rms: 0.1043E-02   max: -.4501E-02   D at   91  1
       a = 13.500      CL =  1.6810
      Cm = -0.0538     CD =  0.03601   =>   CDf =  0.00708    CDp =  0.02893

 Side 1  free  transition at x/c =  0.2747   60
 Side 2 forced transition at x/c =  1.0000   62

   4   rms: 0.4529E-04   max: -.1450E-03   D at   72  2
       a = 13.500      CL =  1.6810
      Cm = -0.0538     CD =  0.03602   =>   CDf =  0.00708    CDp =  0.02893
 plradd ia,ip,cpol           30           0  2.88322046E-02

 Point added to stored polar  1
 Point written to save file  goe628_Re200k.base.pol                          
 Dump file unspecified or not available
 Calculating wake trajectory ...
 Calculating source influence matrix ...

 Solving BL system ...

 Side 1  free  transition at x/c =  0.2747   60
 Side 2 forced transition at x/c =  1.0000   62

   1   rms: 0.3328E-01   max: 0.1382E+00   T at   60  1   RLX: 0.759
       a = 13.750      CL =  1.6970
      Cm = -0.0535     CD =  0.03636   =>   CDf =  0.00709    CDp =  0.02927

 Side 1  free  transition at x/c =  0.2723   60
 Side 2 forced transition at x/c =  1.0000   62

   2   rms: 0.1545E-01   max: 0.5153E-01   T at   60  1
       a = 13.750      CL =  1.7108
      Cm = -0.0543     CD =  0.03630   =>   CDf =  0.00712    CDp =  0.02918

 Side 1  free  transition at x/c =  0.2712   60
 Side 2 forced transition at x/c =  1.0000   62

   3   rms: 0.3307E-02   max: -.1117E-01   D at   92  1
       a = 13.750      CL =  1.7139
      Cm = -0.0546     CD =  0.03632   =>   CDf =  0.00717    CDp =  0.02915

 Side 1  free  transition at x/c =  0.2710   60
 Side 2 forced transition at x/c =  1.0000   62

   4   rms: 0.1586E-03   max: 0.5253E-03   T at   60  1
       a = 13.750      CL =  1.7141
      Cm = -0.0546     CD =  0.03633   =>   CDf =  0.00719    CDp =  0.02914

 Side 1  free  transition at x/c =  0.2710   60
 Side 2 forced transition at x/c =  1.0000   62

   5   rms: 0.3016E-05   max: 0.3670E-04   C at   62  2
       a = 13.750      CL =  1.7141
      Cm = -0.0546     CD =  0.03633   =>   CDf =  0.00719    CDp =  0.02914
 plradd ia,ip,cpol           31           0  2.88322046E-02

 Point added to stored polar  1
 Point written to save file  goe628_Re200k.base.pol                          
 Dump file unspecified or not available
 Calculating wake trajectory ...
 Calculating source influence matrix ...

 Solving BL system ...

 Side 1  free  transition at x/c =  0.2710   60
 Side 2 forced transition at x/c =  1.0000   62

   1   rms: 0.6470E-01   max: 0.2423E+00   T at   60  1   RLX: 0.811
       a = 14.000      CL =  1.7630
      Cm = -0.0579     CD =  0.03649   =>   CDf =  0.00681    CDp =  0.02968

 Side 1  free  transition at x/c =  0.2676   60
 Side 2 forced transition at x/c =  1.0000   61

   2   rms: 0.6392E-01   max: 0.2862E+00   D at   95  1
       a = 14.000      CL =  1.7061
      Cm = -0.0512     CD =  0.03790   =>   CDf =  0.00707    CDp =  0.03084

 Side 1  free  transition at x/c =  0.2682   60
 Side 2 forced transition at x/c =  1.0000   61

   3   rms: 0.7460E-02   max: 0.7392E-01   D at   93  1
       a = 14.000      CL =  1.7029
      Cm = -0.0512     CD =  0.03806   =>   CDf =  0.00699    CDp =  0.03107

 Side 1  free  transition at x/c =  0.2682   60
 Side 2 forced transition at x/c =  1.0000   61

   4   rms: 0.3795E-03   max: 0.5804E-02   D at   91  1
       a = 14.000      CL =  1.7027
      Cm = -0.0512     CD =  0.03803   =>   CDf =  0.00696    CDp =  0.03107

 Side 1  free  transition at x/c =  0.2682   60
 Side 2 forced transition at x/c =  1.0000   61

   5   rms: 0.8507E-05   max: 0.5257E-04   D at   71  2
       a = 14.000      CL =  1.7027
      Cm = -0.0512     CD =  0.03803   =>   CDf =  0.00696    CDp =  0.03107
 plradd ia,ip,cpol           32           0  2.88322046E-02

 Point added to stored polar  1
 Point written to save file  goe628_Re200k.base.pol                          
 Dump file unspecified or not available
 Calculating wake trajectory ...
 Calculating source influence matrix ...

 Solving BL system ...

 Side 1  free  transition at x/c =  0.2682   60
 Side 2 forced transition at x/c =  1.0000   61

   1   rms: 0.3623E-01   max: 0.1383E+00   D at   87  1   RLX: 0.683
       a = 14.250      CL =  1.6923
      Cm = -0.0487     CD =  0.03945   =>   CDf =  0.00697    CDp =  0.03248

 Side 1  free  transition at x/c =  0.2660   60
 Side 2 forced transition at x/c =  1.0000   61

   2   rms: 0.9430E-02   max: -.3990E-01   D at    3  1
       a = 14.250      CL =  1.6905
      Cm = -0.0480     CD =  0.03995   =>   CDf =  0.00682    CDp =  0.03312

 Side 1  free  transition at x/c =  0.2649   60
 Side 2 forced transition at x/c =  1.0000   61

   3   rms: 0.8293E-03   max: -.3692E-02   D at   91  1
       a = 14.250      CL =  1.6910
      Cm = -0.0481     CD =  0.03988   =>   CDf =  0.00677    CDp =  0.03311

 Side 1  free  transition at x/c =  0.2649   60
 Side 2 forced transition at x/c =  1.0000   61

   4   rms: 0.6648E-04   max: -.2542E-03   D at   90  1
       a = 14.250      CL =  1.6911
      Cm = -0.0481     CD =  0.03988   =>   CDf =  0.00677    CDp =  0.03311
 plradd ia,ip,cpol           33           0  2.88322046E-02

 Point added to stored polar  1
 Point written to save file  goe628_Re200k.base.pol                          
 Dump file unspecified or not available
 Calculating wake trajectory ...
 Calculating source influence matrix ...

 Solving BL system ...

 Side 1  free  transition at x/c =  0.2649   60
 Side 2 forced transition at x/c =  1.0000   61

   1   rms: 0.3066E-01   max: 0.1159E+00   T at   60  1   RLX: 0.654
       a = 14.500      CL =  1.6872
      Cm = -0.0465     CD =  0.04111   =>   CDf =  0.00678    CDp =  0.03433

 Side 1  free  transition at x/c =  0.2624   60
 Side 2 forced transition at x/c =  1.0000   61

   2   rms: 0.9410E-02   max: 0.3702E-01   T at   60  1
       a = 14.500      CL =  1.6893
      Cm = -0.0460     CD =  0.04141   =>   CDf =  0.00669    CDp =  0.03472

 Side 1  free  transition at x/c =  0.2612   60
 Side 2 forced transition at x/c =  1.0000   61

   3   rms: 0.1362E-02   max: -.6138E-02   D at   89  1
       a = 14.500      CL =  1.6902
      Cm = -0.0461     CD =  0.04132   =>   CDf =  0.00666    CDp =  0.03466

 Side 1  free  transition at x/c =  0.2612   60
 Side 2 forced transition at x/c =  1.0000   61

   4   rms: 0.1185E-03   max: -.4091E-03   D at   72  2
       a = 14.500      CL =  1.6903
      Cm = -0.0461     CD =  0.04133   =>   CDf =  0.00666    CDp =  0.03466

 Side 1  free  transition at x/c =  0.2612   60
 Side 2 forced transition at x/c =  1.0000   61

   5   rms: 0.3325E-05   max: 0.4440E-04   C at   61  2
       a = 14.500      CL =  1.6903
      Cm = -0.0461     CD =  0.04133   =>   CDf =  0.00666    CDp =  0.03466
 plradd ia,ip,cpol           34           0  2.88322046E-02

 Point added to stored polar  1
 Point written to save file  goe628_Re200k.base.pol                          
 Dump file unspecified or not available
 Calculating wake trajectory ...
 Calculating source influence matrix ...

 Solving BL system ...

 Side 1  free  transition at x/c =  0.2612   60
 Side 2 forced transition at x/c =  1.0000   61

   1   rms: 0.2761E-01   max: 0.1245E+00   T at   60  1   RLX: 0.639
       a = 14.750      CL =  1.6939
      Cm = -0.0452     CD =  0.04212   =>   CDf =  0.00667    CDp =  0.03544

 Side 1  free  transition at x/c =  0.2587   60
 Side 2 forced transition at x/c =  1.0000   61

   2   rms: 0.1282E-01   max: -.4726E-01   D at   60  1
       a = 14.750      CL =  1.7019
      Cm = -0.0451     CD =  0.04208   =>   CDf =  0.00665    CDp =  0.03542

 Side 1  free  transition at x/c =  0.2575   60
 Side 2 forced transition at x/c =  1.0000   61

   3   rms: 0.2691E-02   max: -.1172E-01   D at   88  1
       a = 14.750      CL =  1.7037
      Cm = -0.0452     CD =  0.04198   =>   CDf =  0.00667    CDp =  0.03531

 Side 1  free  transition at x/c =  0.2575   60
 Side 2 forced transition at x/c =  1.0000   61

   4   rms: 0.2423E-03   max: -.8229E-03   D at   72  2
       a = 14.750      CL =  1.7039
      Cm = -0.0452     CD =  0.04198   =>   CDf =  0.00667    CDp =  0.03531

 Side 1  free  transition at x/c =  0.2575   60
 Side 2 forced transition at x/c =  1.0000   61

   5   rms: 0.1255E-04   max: 0.8868E-04   C at   61  2
       a = 14.750      CL =  1.7039
      Cm = -0.0452     CD =  0.04198   =>   CDf =  0.00668    CDp =  0.03531
 plradd ia,ip,cpol           35           0  4.16142168E-04

 Point added to stored polar  1
 Point written to save file  goe628_Re200k.base.pol                          
 Dump file unspecified or not available
 Calculating wake trajectory ...
 Calculating source influence matrix ...

 Solving BL system ...

 Side 1  free  transition at x/c =  0.2575   60
 Side 2 forced transition at x/c =  1.0000   61

   1   rms: 0.3432E-01   max: 0.1581E+00   T at   60  1   RLX: 0.639
       a = 15.000      CL =  1.7179
      Cm = -0.0450     CD =  0.04213   =>   CDf =  0.00668    CDp =  0.03545

 Side 1  free  transition at x/c =  0.2550   60
 Side 2 forced transition at x/c =  1.0000   61

   2   rms: 0.2565E-01   max: 0.8605E-01   T at   60  1
       a = 15.000      CL =  1.7397
      Cm = -0.0458     CD =  0.04163   =>   CDf =  0.00675    CDp =  0.03489

 Side 1  free  transition at x/c =  0.2535   59
 Side 2 forced transition at x/c =  1.0000   61

   3   rms: 0.1503E-01   max: 0.6465E-01   D at   60  1
       a = 15.000      CL =  1.7277
      Cm = -0.0450     CD =  0.04243   =>   CDf =  0.00679    CDp =  0.03565

 Side 1  free  transition at x/c =  0.2534   59
 Side 2 forced transition at x/c =  1.0000   61

   4   rms: 0.1344E-02   max: 0.1181E-01   D at   88  1
       a = 15.000      CL =  1.7269
      Cm = -0.0450     CD =  0.04240   =>   CDf =  0.00675    CDp =  0.03565

 Side 1  free  transition at x/c =  0.2534   59
 Side 2 forced transition at x/c =  1.0000   61

   5   rms: 0.6068E-04   max: 0.2494E-03   D at   88  1
       a = 15.000      CL =  1.7269
      Cm = -0.0450     CD =  0.04240   =>   CDf =  0.00675    CDp =  0.03565
 plradd ia,ip,cpol           36           0  4.16142168E-04

 Point added to stored polar  1
 Point written to save file  goe628_Re200k.base.pol                          
 Dump file unspecified or not available
 Calculating wake trajectory ...
 Calculating source influence matrix ...

 Solving BL system ...

 Side 1  free  transition at x/c =  0.2534   59
 Side 2 forced transition at x/c =  1.0000   61

   1   rms: 0.4736E-01   max: 0.1916E+00   D at   84  1   RLX: 0.595
       a = 15.250      CL =  1.7088
      Cm = -0.0429     CD =  0.04443   =>   CDf =  0.00675    CDp =  0.03767

 Side 1  free  transition at x/c =  0.2516   59
 Side 2 forced transition at x/c =  1.0000   61

   2   rms: 0.1641E-01   max: 0.7897E-01   D at   87  1
       a = 15.250      CL =  1.6998
      Cm = -0.0419     CD =  0.04565   =>   CDf =  0.00658    CDp =  0.03908

 Side 1  free  transition at x/c =  0.2501   59
 Side 2 forced transition at x/c =  1.0000   61

   3   rms: 0.1198E-02   max: 0.7805E-02   D at   73  2
       a = 15.250      CL =  1.7003
      Cm = -0.0419     CD =  0.04549   =>   CDf =  0.00647    CDp =  0.03902

 Side 1  free  transition at x/c =  0.2501   59
 Side 2 forced transition at x/c =  1.0000   61

   4   rms: 0.1039E-03   max: -.4133E-03   D at   74  2
       a = 15.250      CL =  1.7004
      Cm = -0.0419     CD =  0.04550   =>   CDf =  0.00648    CDp =  0.03902

 Side 1  free  transition at x/c =  0.2501   59
 Side 2 forced transition at x/c =  1.0000   61

   5   rms: 0.3706E-05   max: 0.3907E-04   C at   61  2
       a = 15.250      CL =  1.7004
      Cm = -0.0419     CD =  0.04550   =>   CDf =  0.00648    CDp =  0.03902
 plradd ia,ip,cpol           37           0  4.16142168E-04

 Point added to stored polar  1
 Point written to save file  goe628_Re200k.base.pol                          
 Dump file unspecified or not available
 Calculating wake trajectory ...
 Calculating source influence matrix ...

 Solving BL system ...

 Side 1  free  transition at x/c =  0.2501   59
 Side 2 forced transition at x/c =  1.0000   61

   1   rms: 0.3895E-01   max: 0.1591E+00   D at   82  1   RLX: 0.565
       a = 15.500      CL =  1.6896
      Cm = -0.0407     CD =  0.04733   =>   CDf =  0.00648    CDp =  0.04085

 Side 1  free  transition at x/c =  0.2478   59
 Side 2 forced transition at x/c =  1.0000   61

   2   rms: 0.1287E-01   max: 0.5394E-01   T at   59  1
       a = 15.500      CL =  1.6868
      Cm = -0.0401     CD =  0.04822   =>   CDf =  0.00637    CDp =  0.04184

 Side 1  free  transition at x/c =  0.2460   59
 Side 2 forced transition at x/c =  1.0000   61

   3   rms: 0.2420E-02   max: -.1098E-01   D at   85  1
       a = 15.500      CL =  1.6884
      Cm = -0.0402     CD =  0.04797   =>   CDf =  0.00592    CDp =  0.04205

 Side 1  free  transition at x/c =  0.2461   60
 Side 2 forced transition at x/c =  1.0000   60

   4   rms: 0.3359E-02   max: -.5902E-01   T at    2  1
       a = 15.500      CL =  1.6886
      Cm = -0.0402     CD =  0.04798   =>   CDf =  0.00632    CDp =  0.04166

 Side 1  free  transition at x/c =  0.2460   60
 Side 2 forced transition at x/c =  1.0000   60

   5   rms: 0.1008E-02   max: -.1397E-01   D at    4  1
       a = 15.500      CL =  1.6886
      Cm = -0.0402     CD =  0.04798   =>   CDf =  0.00632    CDp =  0.04166

 Side 1  free  transition at x/c =  0.2460   60
 Side 2 forced transition at x/c =  1.0000   60

   6   rms: 0.1442E-04   max: -.1564E-03   D at    5  1
       a = 15.500      CL =  1.6886
      Cm = -0.0402     CD =  0.04798   =>   CDf =  0.00632    CDp =  0.04166
 plradd ia,ip,cpol           38           0 -1.53017027E-04

 Point added to stored polar  1
 Point written to save file  goe628_Re200k.base.pol                          
 Dump file unspecified or not available
 Calculating wake trajectory ...
 Calculating source influence matrix ...

 Solving BL system ...

 Side 1  free  transition at x/c =  0.2460   60
 Side 2 forced transition at x/c =  1.0000   60

   1   rms: 0.2876E-01   max: 0.1305E+00   T at   60  1   RLX: 0.550
       a = 15.750      CL =  1.6873
      Cm = -0.0396     CD =  0.04916   =>   CDf =  0.00632    CDp =  0.04283

 Side 1  free  transition at x/c =  0.2438   60
 Side 2 forced transition at x/c =  1.0000   60

   2   rms: 0.1340E-01   max: 0.5844E-01   T at   60  1
       a = 15.750      CL =  1.6932
      Cm = -0.0392     CD =  0.04936   =>   CDf =  0.00629    CDp =  0.04307

 Side 1  free  transition at x/c =  0.2421   60
 Side 2 forced transition at x/c =  1.0000   60

   3   rms: 0.3110E-02   max: -.1395E-01   D at   85  1
       a = 15.750      CL =  1.6954
      Cm = -0.0393     CD =  0.04914   =>   CDf =  0.00630    CDp =  0.04285

 Side 1  free  transition at x/c =  0.2421   60
 Side 2 forced transition at x/c =  1.0000   60

   4   rms: 0.3124E-03   max: -.1296E-02   D at   73  2
       a = 15.750      CL =  1.6957
      Cm = -0.0393     CD =  0.04915   =>   CDf =  0.00630    CDp =  0.04285

 Side 1  free  transition at x/c =  0.2421   60
 Side 2 forced transition at x/c =  1.0000   60

   5   rms: 0.1795E-04   max: -.7832E-04   D at   73  2
       a = 15.750      CL =  1.6957
      Cm = -0.0393     CD =  0.04915   =>   CDf =  0.00630    CDp =  0.04285
 plradd ia,ip,cpol           39           0  4.16142168E-04

 Point added to stored polar  1
 Point written to save file  goe628_Re200k.base.pol                          
 Dump file unspecified or not available
 Calculating wake trajectory ...
 Calculating source influence matrix ...

 Solving BL system ...

 Side 1  free  transition at x/c =  0.2421   60
 Side 2 forced transition at x/c =  1.0000   60

   1   rms: 0.3100E-01   max: 0.1542E+00   T at   60  1   RLX: 0.547
       a = 16.000      CL =  1.7041
      Cm = -0.0390     CD =  0.04949   =>   CDf =  0.00631    CDp =  0.04318

 Side 1  free  transition at x/c =  0.2400   60
 Side 2 forced transition at x/c =  1.0000   60

   2   rms: 0.2062E-01   max: 0.8397E-01   T at   60  1
       a = 16.000      CL =  1.7196
      Cm = -0.0390     CD =  0.04908   =>   CDf =  0.00634    CDp =  0.04274

 Side 1  free  transition at x/c =  0.2383   60
 Side 2 forced transition at x/c =  1.0000   60

   3   rms: 0.1222E-01   max: -.4164E-01   D at   85  1
       a = 16.000      CL =  1.7306
      Cm = -0.0394     CD =  0.04842   =>   CDf =  0.00642    CDp =  0.04201

 Side 1  free  transition at x/c =  0.2379   59
 Side 2 forced transition at x/c =  1.0000   60

   4   rms: 0.6099E-02   max: 0.2924E-01   D at   85  1
       a = 16.000      CL =  1.7256
      Cm = -0.0393     CD =  0.04894   =>   CDf =  0.00645    CDp =  0.04249

 Side 1  free  transition at x/c =  0.2379   59
 Side 2 forced transition at x/c =  1.0000   60

   5   rms: 0.3265E-03   max: 0.2744E-02   D at   85  1
       a = 16.000      CL =  1.7253
      Cm = -0.0393     CD =  0.04889   =>   CDf =  0.00644    CDp =  0.04246

 Side 1  free  transition at x/c =  0.2379   59
 Side 2 forced transition at x/c =  1.0000   60

   6   rms: 0.1009E-04   max: 0.6914E-04   D at   73  2
       a = 16.000      CL =  1.7253
      Cm = -0.0393     CD =  0.04889   =>   CDf =  0.00644    CDp =  0.04246
 plradd ia,ip,cpol           40           0  4.16142168E-04

 Point added to stored polar  1
 Point written to save file  goe628_Re200k.base.pol                          
 Dump file unspecified or not available

.OPERva   c>  
 Polar accumulation disabled

.OPERv   c>  
 XFOIL   c>  
 XFOIL   c>  