  
       XFOIL         Version 6.99
  
 Calculated polar for: GOE 654 AIRFOIL                                 
  
 1 1 Reynolds number fixed          Mach number fixed         
  
 xtrf =   1.000 (top)        1.000 (bottom)  
 Mach =   0.000     Re =     0.600 e 6     Ncrit =   9.000
  
   alpha    CL        CD       CDp       CM     Top_Xtr  Bot_Xtr
  ------ -------- --------- --------- -------- -------- --------
  -3.500   0.1637   0.01366   0.00645  -0.0968   0.5616   0.0378
  -3.000   0.2161   0.01293   0.00558  -0.0958   0.5518   0.0383
  -2.500   0.2680   0.01227   0.00482  -0.0947   0.5417   0.0386
  -2.000   0.3203   0.01171   0.00421  -0.0938   0.5324   0.0392
  -1.500   0.3712   0.01114   0.00356  -0.0926   0.5235   0.0404
  -1.000   0.4244   0.01080   0.00322  -0.0919   0.5151   0.0420
  -0.500   0.4774   0.01068   0.00301  -0.0910   0.5052   0.0447
   0.000   0.5313   0.01047   0.00281  -0.0904   0.4957   0.0501
   0.500   0.5810   0.00990   0.00274  -0.0893   0.4859   0.2307
   1.000   0.6256   0.00895   0.00287  -0.0874   0.4751   0.5973
   1.500   0.7445   0.00832   0.00309  -0.1005   0.4578   1.0000
   2.000   0.7915   0.00849   0.00314  -0.0986   0.4420   1.0000
   2.500   0.8377   0.00872   0.00323  -0.0965   0.4227   1.0000
   3.000   0.8837   0.00901   0.00337  -0.0945   0.3991   1.0000
   3.500   0.9278   0.00941   0.00360  -0.0922   0.3772   1.0000
   4.000   0.9722   0.00984   0.00389  -0.0900   0.3610   1.0000
   4.500   1.0176   0.01025   0.00422  -0.0881   0.3484   1.0000
   5.000   1.0631   0.01067   0.00458  -0.0862   0.3384   1.0000
   5.500   1.1069   0.01117   0.00499  -0.0841   0.3289   1.0000
   6.000   1.1531   0.01154   0.00537  -0.0824   0.3205   1.0000
   6.500   1.1950   0.01209   0.00585  -0.0801   0.3108   1.0000
   7.000   1.2405   0.01245   0.00627  -0.0784   0.3046   1.0000
   7.500   1.2802   0.01301   0.00679  -0.0757   0.2969   1.0000
   8.000   1.3206   0.01339   0.00724  -0.0732   0.2893   1.0000
   8.500   1.3547   0.01398   0.00781  -0.0696   0.2806   1.0000
   9.000   1.3940   0.01442   0.00832  -0.0671   0.2723   1.0000
   9.500   1.4269   0.01513   0.00902  -0.0637   0.2627   1.0000
  10.000   1.4632   0.01574   0.00970  -0.0611   0.2524   1.0000
  10.000   1.4632   0.01574   0.00970  -0.0611   0.2524   1.0000
  10.250   1.4783   0.01619   0.01016  -0.0594   0.2471   1.0000
  10.500   1.4959   0.01656   0.01056  -0.0582   0.2405   1.0000
  10.750   1.5084   0.01716   0.01112  -0.0563   0.2326   1.0000
  11.000   1.5232   0.01769   0.01167  -0.0549   0.2237   1.0000
  11.250   1.5343   0.01843   0.01239  -0.0530   0.2129   1.0000
  11.500   1.5427   0.01936   0.01328  -0.0510   0.2007   1.0000
  11.750   1.5466   0.02061   0.01445  -0.0488   0.1844   1.0000
  12.000   1.5456   0.02228   0.01603  -0.0463   0.1666   1.0000
  12.250   1.5399   0.02442   0.01805  -0.0438   0.1472   1.0000
  12.500   1.5353   0.02665   0.02022  -0.0418   0.1311   1.0000
  12.750   1.5243   0.02958   0.02305  -0.0398   0.1133   1.0000
  13.000   1.5146   0.03260   0.02601  -0.0382   0.0969   1.0000
  13.250   1.4887   0.03730   0.03058  -0.0366   0.0699   1.0000
  13.500   1.4643   0.04224   0.03547  -0.0357   0.0496   1.0000
  13.750   1.4390   0.04761   0.04084  -0.0352   0.0297   1.0000
  14.000   1.4227   0.05226   0.04553  -0.0352   0.0226   1.0000
  14.250   1.4156   0.05597   0.04931  -0.0352   0.0204   1.0000
  14.500   1.4105   0.05950   0.05294  -0.0354   0.0195   1.0000
  14.750   1.4028   0.06343   0.05696  -0.0357   0.0185   1.0000
  15.000   1.3956   0.06735   0.06098  -0.0360   0.0180   1.0000
  15.250   1.3874   0.07145   0.06519  -0.0365   0.0174   1.0000
  15.500   1.3811   0.07540   0.06924  -0.0370   0.0170   1.0000
  15.750   1.3735   0.07961   0.07355  -0.0377   0.0167   1.0000
  16.000   1.3654   0.08395   0.07800  -0.0385   0.0165   1.0000
