
 ===================================================
  XFOIL Version 6.99
  Copyright (C) 2000   Mark Drela, Harold Youngren

  This software comes with ABSOLUTELY NO WARRANTY,
    subject to the GNU General Public License.

  Caveat computor
 ===================================================

 File  xfoil.def  not found

   QUIT    Exit program

  .OPER    Direct operating point(s)
  .MDES    Complex mapping design routine
  .QDES    Surface speed design routine
  .GDES    Geometry design routine

   SAVE f  Write airfoil to labeled coordinate file
   PSAV f  Write airfoil to plain coordinate file
   ISAV f  Write airfoil to ISES coordinate file
   MSAV f  Write airfoil to MSES coordinate file
   REVE    Reverse written-airfoil node ordering

   LOAD f  Read buffer airfoil from coordinate file
   NACA i  Set NACA 4,5-digit airfoil and buffer airfoil
   INTE    Set buffer airfoil by interpolating two airfoils
   NORM    Buffer airfoil normalization toggle
   XYCM rr Change CM reference location, currently  0.25000 0.00000

   BEND    Display structural properties of current airfoil

   PCOP    Set current-airfoil panel nodes directly from buffer airfoil points
   PANE    Set current-airfoil panel nodes ( 160 ) based on curvature
  .PPAR    Show/change paneling

  .PLOP    Plotting options

   WDEF f  Write  current-settings file
   RDEF f  Reread current-settings file
   NAME s  Specify new airfoil name
   NINC    Increment name version number

   Z       Zoom    | (available in all menus)
   U       Unzoom  | 

 XFOIL   c>  
 Labeled airfoil file.  Name:  GOE 613 AIRFOIL                                 

 Number of input coordinate points:  33
 Counterclockwise ordering
 Max thickness =     0.103002  at x =   0.300
 Max camber    =     0.040243  at x =   0.400

  LE  x,y  =  -0.00010   0.00118  |   Chord =   1.00010
  TE  x,y  =   1.00000   0.00000  |

 Current airfoil nodes set from buffer airfoil nodes (  33 )

 WARNING: Poor input coordinate distribution
          Excessive panel angle   81.1  at i =  17
          Repaneling with PANE and/or PPAR suggested
           (doing GDES,CADD before repaneling _may_
            improve excessively coarse LE spacing

 XFOIL   c>  
 XFOIL   c>  
 Sharp trailing edge

 Paneling parameters used...
   Number of panel nodes       160
   Panel bunching parameter    1.000
   TE/LE panel density ratio   0.150
   Refined-area/LE panel density ratio    0.200
   Top    side refined area x/c limits  1.000 1.000
   Bottom side refined area x/c limits  1.000 1.000

 XFOIL   c>  
.OPERi   c>  
 Xtr/c     =  1.0000    top    side
 Xtr/c     =  1.0000    bottom side
 Ncrit     =    9.00   ( 0.070 % turb. level )
 Vacc      =  0.0100

 Klag  =  5.6000     Uxwt  =    1.00
 A     =  6.7000     B     =  0.7500       KCt = 0.01485
 CtiniK=  1.8000     CtiniX=  3.3000

..VPAR   c>  
..VPAR   c>  
.OPERi   c>  
 M  =    0.0000
 Re =    400000

.OPERv   c>  
.OPERv   c>  
.OPERv   c>  
 Polar  1 newly created for accumulation
 Airfoil archived with polar: GOE 613 AIRFOIL                                 

Enter  polar save filename  OR  <return> for no file   s>  
 New polar save file available

Enter  polar dump filename  OR  <return> for no file   s>  
 Polar dump file will NOT be written

 Polar accumulation enabled

.OPERva   c>   Calculating unit vorticity distributions ...
 Calculating wake trajectory ...
 Calculating source influence matrix ...

 Solving BL system ...

 Initializing BL ...
    side            1  ...
 MRCHUE: Inverse mode at  53     Hk =   3.958
 MRCHUE: Inverse mode at  54     Hk =   4.489
 MRCHUE: Inverse mode at  55     Hk =   5.011
 MRCHUE: Inverse mode at  56     Hk =   5.525
 MRCHUE: Inverse mode at  57     Hk =   6.031
 MRCHUE: Inverse mode at  58     Hk =   6.528
 MRCHUE: Inverse mode at  59     Hk =   7.018
 MRCHUE: Inverse mode at  60     Hk =   7.502
 MRCHUE: Inverse mode at  61     Hk =   7.979
 MRCHUE: Inverse mode at  62     Hk =   8.453
 MRCHUE: Inverse mode at  63     Hk =   8.923
 MRCHUE: Inverse mode at  64     Hk =   8.162
 MRCHUE: Inverse mode at  65     Hk =   6.250
 MRCHUE: Inverse mode at  66     Hk =   4.961
 MRCHUE: Inverse mode at  67     Hk =   3.982
 MRCHUE: Inverse mode at  68     Hk =   3.194
 MRCHUE: Inverse mode at  76     Hk =   2.500
    side            2  ...
 MRCHUE: Inverse mode at  19     Hk =   4.087
 MRCHUE: Convergence failed at  20  side 2    Res =  0.1731E+01
 MRCHUE: Convergence failed at  21  side 2    Res =  0.1222E+01
 MRCHUE: Inverse mode at  22     Hk =   6.117
 MRCHUE: Inverse mode at  23     Hk =   8.031
 MRCHUE: Inverse mode at  24     Hk =   2.500
 MRCHUE: Inverse mode at  86     Hk =   2.500

 MRCHDU: Convergence failed at  20  side 2    Res =  0.2804E+01
 MRCHDU: Convergence failed at  21  side 2    Res =  0.2751E+01
 MRCHDU: Convergence failed at  22  side 2    Res =  0.4158E+01
 MRCHDU: Convergence failed at  23  side 2    Res =  0.7494E+01
 MRCHDU: Convergence failed at  24  side 2    Res =  0.7705E+01
 MRCHDU: Convergence failed at  25  side 2    Res =  0.5678E+01
 MRCHDU: Convergence failed at  26  side 2    Res =  0.3777E+01
 MRCHDU: Convergence failed at  27  side 2    Res =  0.4018E+01
 MRCHDU: Convergence failed at  28  side 2    Res =  0.4646E+01
 MRCHDU: Convergence failed at  29  side 2    Res =  0.5696E+01
 MRCHDU: Convergence failed at  30  side 2    Res =  0.8419E+01
 MRCHDU: Convergence failed at  31  side 2    Res =  0.1366E+02
 MRCHDU: Convergence failed at  32  side 2    Res =  0.3077E+02
 MRCHDU: Convergence failed at  33  side 2    Res =  0.1326E+02
 MRCHDU: Convergence failed at  34  side 2    Res =  0.1028E+02
 MRCHDU: Convergence failed at  35  side 2    Res =  0.1121E+02
 MRCHDU: Convergence failed at  36  side 2    Res =  0.1381E+02
 MRCHDU: Convergence failed at  37  side 2    Res =  0.1049E+02
 MRCHDU: Convergence failed at  38  side 2    Res =  0.1108E+02
 MRCHDU: Convergence failed at  39  side 2    Res =  0.1161E+02
 MRCHDU: Convergence failed at  40  side 2    Res =  0.1220E+02
 MRCHDU: Convergence failed at  41  side 2    Res =  0.1281E+02
 MRCHDU: Convergence failed at  42  side 2    Res =  0.1338E+02
 MRCHDU: Convergence failed at  43  side 2    Res =  0.1393E+02
 MRCHDU: Convergence failed at  44  side 2    Res =  0.1089E+02
 MRCHDU: Convergence failed at  45  side 2    Res =  0.1126E+02
 MRCHDU: Convergence failed at  46  side 2    Res =  0.1165E+02
 MRCHDU: Convergence failed at  47  side 2    Res =  0.1204E+02
 MRCHDU: Convergence failed at  48  side 2    Res =  0.1243E+02
 MRCHDU: Convergence failed at  49  side 2    Res =  0.1285E+02
 MRCHDU: Convergence failed at  50  side 2    Res =  0.1325E+02
 MRCHDU: Convergence failed at  51  side 2    Res =  0.1365E+02
 MRCHDU: Convergence failed at  52  side 2    Res =  0.1410E+02
 MRCHDU: Convergence failed at  53  side 2    Res =  0.1255E+02
 MRCHDU: Convergence failed at  54  side 2    Res =  0.1293E+02
 MRCHDU: Convergence failed at  55  side 2    Res =  0.1331E+02
 MRCHDU: Convergence failed at  56  side 2    Res =  0.1369E+02
 MRCHDU: Convergence failed at  57  side 2    Res =  0.1410E+02
 MRCHDU: Convergence failed at  58  side 2    Res =  0.1449E+02
 MRCHDU: Convergence failed at  59  side 2    Res =  0.1490E+02
 MRCHDU: Convergence failed at  60  side 2    Res =  0.1540E+02
 MRCHDU: Convergence failed at  61  side 2    Res =  0.1583E+02
 MRCHDU: Convergence failed at  62  side 2    Res =  0.1634E+02
 MRCHDU: Convergence failed at  63  side 2    Res =  0.1686E+02
 MRCHDU: Convergence failed at  64  side 2    Res =  0.1736E+02
 MRCHDU: Convergence failed at  65  side 2    Res =  0.1792E+02
 MRCHDU: Convergence failed at  66  side 2    Res =  0.1857E+02
 MRCHDU: Convergence failed at  67  side 2    Res =  0.1925E+02
 MRCHDU: Convergence failed at  68  side 2    Res =  0.1924E+02
 MRCHDU: Convergence failed at  69  side 2    Res =  0.1997E+02
 MRCHDU: Convergence failed at  70  side 2    Res =  0.2074E+02
 MRCHDU: Convergence failed at  71  side 2    Res =  0.2157E+02
 MRCHDU: Convergence failed at  72  side 2    Res =  0.2247E+02
 MRCHDU: Convergence failed at  73  side 2    Res =  0.2383E+02
 MRCHDU: Convergence failed at  74  side 2    Res =  0.2584E+02
 MRCHDU: Convergence failed at  75  side 2    Res =  0.2854E+02
 MRCHDU: Convergence failed at  76  side 2    Res =  0.2443E+02
 MRCHDU: Convergence failed at  77  side 2    Res =  0.4790E+03
 MRCHDU: Convergence failed at  78  side 2    Res =  0.2335E+03
 MRCHDU: Convergence failed at  79  side 2    Res =  0.1386E+03
 MRCHDU: Convergence failed at  80  side 2    Res =  0.3208E+02
 MRCHDU: Convergence failed at  81  side 2    Res =  0.3583E+02
 MRCHDU: Convergence failed at  82  side 2    Res =  0.4494E+02
 MRCHDU: Convergence failed at  83  side 2    Res =  0.6993E+02
 MRCHDU: Convergence failed at  84  side 2    Res =  0.6044E+02
 MRCHDU: Convergence failed at  85  side 2    Res =  0.4384E+02
 MRCHDU: Convergence failed at  86  side 2    Res =  0.2436E+02
 Side 1  free  transition at x/c =  0.8412   64
 Side 2  free  transition at x/c =  0.0690   24

   1   rms: 0.1131E+01   max: -.1074E+01   U at   86  2   RLX: 0.196
       a = -4.000      CL = -1.7228
      Cm =  0.4062     CD =  0.00588   =>   CDf =  0.00283    CDp =  0.00306

 Side 1  free  transition at x/c =  0.8532   65
 Side 2  free  transition at x/c =  0.0682   24

   2   rms: 0.1250E+01   max: 0.8987E+01   T at   24  2   RLX: 0.095
       a = -4.000      CL = -1.4856
      Cm =  0.3417     CD =  0.00659   =>   CDf =  0.01437    CDp = -0.00777

 MRCHDU: Convergence failed at  24  side 2    Res =  0.6627E+01
 Side 1  free  transition at x/c =  0.8569   65
 Side 2  free  transition at x/c =  0.0532   23

   3   rms: 0.8063E+00   max: -.7768E+00   U at   86  2   RLX: 0.321
       a = -4.000      CL = -0.9103
      Cm =  0.1716     CD =  0.00706   =>   CDf =  0.01365    CDp = -0.00659

 Side 1  free  transition at x/c =  0.8748   66
 Side 2  free  transition at x/c =  0.0468   23

   4   rms: 0.6165E+00   max: 0.5666E+00   D at   97  2   RLX: 0.491
       a = -4.000      CL = -0.3650
      Cm =  0.0178     CD =  0.00822   =>   CDf =  0.01089    CDp = -0.00267

 MRCHDU: Convergence failed at  76  side 1    Res =  0.3793E+01
 Side 1  free  transition at x/c =  0.8993   68
 Side 2  free  transition at x/c =  0.0475   23

   5   rms: 0.4174E+00   max: 0.1262E+01   D at   25  2
       a = -4.000      CL =  0.0624
      Cm = -0.1035     CD =  0.01303   =>   CDf =  0.00834    CDp =  0.00469

 MRCHDU: Convergence failed at  24  side 2    Res =  0.6400E+02
 MRCHDU: Convergence failed at  25  side 2    Res =  0.6035E+02
 MRCHDU: Convergence failed at  26  side 2    Res =  0.2625E+02
 MRCHDU: Convergence failed at  27  side 2    Res =  0.1007E+03
 MRCHDU: Convergence failed at  28  side 2    Res =  0.2475E+03
 MRCHDU: Convergence failed at  29  side 2    Res =  0.1736E+03
 MRCHDU: Convergence failed at  30  side 2    Res =  0.8753E+03
 MRCHDU: Convergence failed at  31  side 2    Res =  0.1108E+03
 MRCHDU: Convergence failed at  32  side 2    Res =  0.8586E+02
 MRCHDU: Convergence failed at  33  side 2    Res =  0.8628E+02
 MRCHDU: Convergence failed at  34  side 2    Res =  0.8628E+02
 MRCHDU: Convergence failed at  35  side 2    Res =  0.8575E+02
 MRCHDU: Convergence failed at  36  side 2    Res =  0.7309E+02
 MRCHDU: Convergence failed at  37  side 2    Res =  0.8918E+02
 MRCHDU: Convergence failed at  38  side 2    Res =  0.8903E+02
 MRCHDU: Convergence failed at  39  side 2    Res =  0.7704E+02
 MRCHDU: Convergence failed at  40  side 2    Res =  0.9292E+02
 MRCHDU: Convergence failed at  41  side 2    Res =  0.9241E+02
 MRCHDU: Convergence failed at  42  side 2    Res =  0.8146E+02
 MRCHDU: Convergence failed at  43  side 2    Res =  0.9483E+02
 MRCHDU: Convergence failed at  44  side 2    Res =  0.9376E+02
 MRCHDU: Convergence failed at  45  side 2    Res =  0.9583E+02
 MRCHDU: Convergence failed at  46  side 2    Res =  0.9417E+02
 MRCHDU: Convergence failed at  47  side 2    Res =  0.8546E+02
 MRCHDU: Convergence failed at  48  side 2    Res =  0.8699E+02
 MRCHDU: Convergence failed at  49  side 2    Res =  0.8863E+02
 MRCHDU: Convergence failed at  50  side 2    Res =  0.9016E+02
 MRCHDU: Convergence failed at  51  side 2    Res =  0.9158E+02
 MRCHDU: Convergence failed at  52  side 2    Res =  0.9324E+02
 MRCHDU: Convergence failed at  53  side 2    Res =  0.9470E+02
 MRCHDU: Convergence failed at  54  side 2    Res =  0.9617E+02
 MRCHDU: Convergence failed at  55  side 2    Res =  0.9851E+02
 MRCHDU: Convergence failed at  56  side 2    Res =  0.1009E+03
 MRCHDU: Convergence failed at  57  side 2    Res =  0.1034E+03
 MRCHDU: Convergence failed at  58  side 2    Res =  0.1060E+03
 MRCHDU: Convergence failed at  59  side 2    Res =  0.1153E+03
 MRCHDU: Convergence failed at  60  side 2    Res =  0.1173E+03
 MRCHDU: Convergence failed at  61  side 2    Res =  0.1210E+03
 MRCHDU: Convergence failed at  62  side 2    Res =  0.1232E+03
 MRCHDU: Convergence failed at  63  side 2    Res =  0.1321E+03
 MRCHDU: Convergence failed at  64  side 2    Res =  0.1345E+03
 MRCHDU: Convergence failed at  65  side 2    Res =  0.1373E+03
 MRCHDU: Convergence failed at  66  side 2    Res =  0.1400E+03
 MRCHDU: Convergence failed at  67  side 2    Res =  0.1431E+03
 MRCHDU: Convergence failed at  68  side 2    Res =  0.1463E+03
 MRCHDU: Convergence failed at  69  side 2    Res =  0.1497E+03
 MRCHDU: Convergence failed at  70  side 2    Res =  0.1533E+03
 MRCHDU: Convergence failed at  71  side 2    Res =  0.1581E+03
 MRCHDU: Convergence failed at  72  side 2    Res =  0.1643E+03
 MRCHDU: Convergence failed at  73  side 2    Res =  0.1696E+03
 MRCHDU: Convergence failed at  74  side 2    Res =  0.1792E+03
 MRCHDU: Convergence failed at  75  side 2    Res =  0.1860E+03
 MRCHDU: Convergence failed at  76  side 2    Res =  0.5135E+03
 MRCHDU: Convergence failed at  77  side 2    Res =  0.5685E+03
 MRCHDU: Convergence failed at  78  side 2    Res =  0.6407E+03
 MRCHDU: Convergence failed at  79  side 2    Res =  0.7565E+03
 MRCHDU: Convergence failed at  80  side 2    Res =  0.9583E+03
 MRCHDU: Convergence failed at  81  side 2    Res =  0.1301E+04
 MRCHDU: Convergence failed at  82  side 2    Res =  0.1310E+03
 MRCHDU: Convergence failed at  83  side 2    Res =  0.2220E+04
 MRCHDU: Convergence failed at  84  side 2    Res =  0.1070E+04
 MRCHDU: Convergence failed at  85  side 2    Res =  0.8708E+03
 MRCHDU: Convergence failed at  86  side 2    Res =  0.4347E+03
 Side 1  free  transition at x/c =  0.9107   69
 Side 2  free  transition at x/c =  0.0578   24

   6   rms: 0.1337E+01   max: -.6996E+01   T at   24  2   RLX: 0.071
       a = -4.000      CL = -1.2663
      Cm =  0.3093     CD =  0.00531   =>   CDf =  0.00213    CDp =  0.00317

 Side 1  free  transition at x/c =  0.9144   69
 Side 2  free  transition at x/c =  0.0620   24

   7   rms: 0.2156E+01   max: 0.2755E+02   T at    2  2   RLX: 0.030
       a = -4.000      CL = -0.9207
      Cm =  0.1912     CD =  0.05460   =>   CDf =  0.00258    CDp =  0.05202

 Side 1  free  transition at x/c =  0.9265   70
 Side 2  free  transition at x/c =  0.0610   24

   8   rms: 0.1140E+01   max: -.7045E+01   T at   70  1   RLX: 0.071
       a = -4.000      CL = -0.9487
      Cm =  0.1940     CD =  0.06191   =>   CDf =  0.00257    CDp =  0.05934

 Side 1  free  transition at x/c =  0.9472   71
 Side 2  free  transition at x/c =  0.0612   24

   9   rms: 0.6873E+00   max: -.5151E+01   T at   71  1   RLX: 0.097
       a = -4.000      CL = -0.9025
      Cm =  0.1796     CD =  0.06886   =>   CDf =  0.00254    CDp =  0.06633

 Side 1  free  transition at x/c =  0.9750   73
 Side 2  free  transition at x/c =  0.0607   24

  10   rms: 0.8064E+00   max: -.6448E+01   T at   73  1   RLX: 0.078
       a = -4.000      CL = -0.8089
      Cm =  0.1541     CD =  0.07633   =>   CDf =  0.00256    CDp =  0.07377

 MRCHDU: Convergence failed at  76  side 1    Res =  0.4316E+01
 Side 1 forced transition at x/c =  1.0000   76
 Side 2  free  transition at x/c =  0.0608   24

  11   rms: 0.6352E+00   max: -.2289E+01   D at   72  1   RLX: 0.218
       a = -4.000      CL = -0.6053
      Cm =  0.1015     CD =  0.06254   =>   CDf =  0.00265    CDp =  0.05989

 Side 1 forced transition at x/c =  1.0000   77
 Side 2  free  transition at x/c =  0.0601   23

  12   rms: 0.4679E+00   max: 0.2470E+01   C at   77  1   RLX: 0.471
       a = -4.000      CL = -0.2997
      Cm =  0.0217     CD =  0.05763   =>   CDf =  0.00286    CDp =  0.05477

 MRCHDU: Convergence failed at 101  side 2    Res =  0.2176E+01
 Side 1 forced transition at x/c =  1.0000   77
 Side 2  free  transition at x/c =  0.0566   22

  13   rms: 0.3714E+00   max: -.1218E+01   D at  105  2   RLX: 0.411
       a = -4.000      CL = -0.1953
      Cm = -0.0075     CD =  0.07547   =>   CDf =  0.00286    CDp =  0.07261

 Side 1 forced transition at x/c =  1.0000   77
 Side 2  free  transition at x/c =  0.0556   22

  14   rms: 0.3655E+00   max: -.1460E+01   D at  105  2   RLX: 0.342
       a = -4.000      CL = -0.1460
      Cm = -0.0324     CD =  0.07793   =>   CDf =  0.00276    CDp =  0.07517

 Side 1 forced transition at x/c =  1.0000   77
 Side 2  free  transition at x/c =  0.0515   22
 idif Ue xi dudx           1  0.15246546      2.88462639E-03   52.854492    
 Uenew xinew           2  1.68544967E-02  3.18884850E-04

  15   rms: 0.3807E+00   max: -.1596E+01   D at  105  2   RLX: 0.313
       a = -4.000      CL = -0.1863
      Cm = -0.0319     CD =  0.08264   =>   CDf =  0.00265    CDp =  0.07999

 Side 1  free  transition at x/c =  0.9951   76
 Side 2  free  transition at x/c =  0.0482   23

  16   rms: 0.3685E+00   max: -.1632E+01   D at  106  2   RLX: 0.306
       a = -4.000      CL = -0.1456
      Cm = -0.0508     CD =  0.07755   =>   CDf =  0.00256    CDp =  0.07499

 Side 1  free  transition at x/c =  0.9874   75
 Side 2  free  transition at x/c =  0.0486   23

  17   rms: 0.3864E+00   max: -.1647E+01   D at  105  2   RLX: 0.304
       a = -4.000      CL = -0.1004
      Cm = -0.0721     CD =  0.06581   =>   CDf =  0.00254    CDp =  0.06328

 Side 1  free  transition at x/c =  0.9779   74
 Side 2  free  transition at x/c =  0.0494   23

  18   rms: 0.4335E+00   max: -.1682E+01   D at  105  2   RLX: 0.297
       a = -4.000      CL = -0.0531
      Cm = -0.0947     CD =  0.05405   =>   CDf =  0.00251    CDp =  0.05154

 Side 1  free  transition at x/c =  0.9620   72
 Side 2  free  transition at x/c =  0.0508   23

  19   rms: 0.7677E+00   max: 0.5088E+01   T at   72  1   RLX: 0.117
       a = -4.000      CL = -0.0720
      Cm = -0.1003     CD =  0.05524   =>   CDf =  0.00249    CDp =  0.05275

 Side 1  free  transition at x/c =  0.9373   71
 Side 2  free  transition at x/c =  0.0489   23

  20   rms: 0.8252E+00   max: -.2414E+01   D at   58  2   RLX: 0.207
       a = -4.000      CL = -0.0723
      Cm = -0.1193     CD =  0.04089   =>   CDf =  0.00247    CDp =  0.03841

 Side 1  free  transition at x/c =  0.9281   70
 Side 2  free  transition at x/c =  0.0490   23
 idif Ue xi dudx           1  0.15022708      3.51321697E-03   42.760548    
 Uenew xinew           2  1.55574307E-02  3.63826752E-04

  21   rms: 0.5955E+00   max: 0.2192E+01   T at   70  1   RLX: 0.272
       a = -4.000      CL = -0.1258
      Cm = -0.1124     CD =  0.03794   =>   CDf =  0.00263    CDp =  0.03531

 Side 1  free  transition at x/c =  0.9045   67
 Side 2  free  transition at x/c =  0.0482   24

  22   rms: 0.5862E+00   max: -.3062E+01   D at    2  2   RLX: 0.163
       a = -4.000      CL = -0.0773
      Cm = -0.1156     CD =  0.03743   =>   CDf =  0.00298    CDp =  0.03445

 Side 1  free  transition at x/c =  0.9210   69
 Side 2  free  transition at x/c =  0.0502   23

  23   rms: 0.8951E+00   max: -.5429E+01   T at   23  2   RLX: 0.092
       a = -4.000      CL = -0.0141
      Cm = -0.1290     CD =  0.03267   =>   CDf =  0.00302    CDp =  0.02965

 MRCHDU: Convergence failed at  71  side 1    Res =  0.7756E+01
 MRCHDU: Convergence failed at  72  side 1    Res =  0.3846E+01
 MRCHDU: Convergence failed at  73  side 1    Res =  0.9215E+01
 MRCHDU: Convergence failed at  74  side 1    Res =  0.1064E+02
 MRCHDU: Convergence failed at  75  side 1    Res =  0.1839E+02
 MRCHDU: Convergence failed at  76  side 1    Res =  0.4252E+02
 Side 1  free  transition at x/c =  0.9436   71
 Side 2  free  transition at x/c =  0.0541   23

  24   rms: 0.4591E+00   max: 0.2220E+01   T at   73  1   RLX: 0.362
       a = -4.000      CL = -0.0317
      Cm = -0.1269     CD =  0.02751   =>   CDf =  0.00294    CDp =  0.02457

 Side 1  free  transition at x/c =  0.9023   68
 Side 2  free  transition at x/c =  0.0538   23

  25   rms: 0.2843E+00   max: -.1490E+01   T at   23  2   RLX: 0.336
       a = -4.000      CL = -0.0275
      Cm = -0.1154     CD =  0.02824   =>   CDf =  0.00332    CDp =  0.02491

 Side 1  free  transition at x/c =  0.8931   68
 Side 2  free  transition at x/c =  0.0553   23

  26   rms: 0.2214E+00   max: -.9574E+00   D at   79  2   RLX: 0.522
       a = -4.000      CL = -0.0357
      Cm = -0.1017     CD =  0.02938   =>   CDf =  0.00348    CDp =  0.02591

 Side 1  free  transition at x/c =  0.8904   67
 Side 2  free  transition at x/c =  0.0563   23

  27   rms: 0.1880E+00   max: -.7622E+00   D at   81  2   RLX: 0.656
       a = -4.000      CL = -0.0000
      Cm = -0.0968     CD =  0.02925   =>   CDf =  0.00389    CDp =  0.02536

 MRCHDU: Convergence failed at  69  side 1    Res =  0.5140E+01
 MRCHDU: Convergence failed at  70  side 1    Res =  0.5613E+01
 MRCHDU: Convergence failed at  71  side 1    Res =  0.4784E+01
 MRCHDU: Convergence failed at  72  side 1    Res =  0.6063E+01
 MRCHDU: Convergence failed at  73  side 1    Res =  0.4967E+01
 MRCHDU: Convergence failed at  74  side 1    Res =  0.6335E+01
 MRCHDU: Convergence failed at  75  side 1    Res =  0.1205E+02
 MRCHDU: Convergence failed at  76  side 1    Res =  0.1679E+02
 Side 1  free  transition at x/c =  0.9080   69
 Side 2  free  transition at x/c =  0.0554   23

  28   rms: 0.3962E+00   max: 0.1567E+01   D at   88  2   RLX: 0.957
       a = -4.000      CL = -0.0139
      Cm = -0.0857     CD =  0.02727   =>   CDf =  0.00492    CDp =  0.02235

 Side 1  free  transition at x/c =  0.8855   67
 Side 2  free  transition at x/c =  0.0570   23

  29   rms: 0.1704E+00   max: -.7068E+00   T at   67  1   RLX: 0.707
       a = -4.000      CL =  0.0630
      Cm = -0.0985     CD =  0.03268   =>   CDf =  0.00436    CDp =  0.02832

 MRCHDU: Convergence failed at  70  side 1    Res =  0.2515E+01
 MRCHDU: Convergence failed at  71  side 1    Res =  0.1704E+02
 MRCHDU: Convergence failed at  72  side 1    Res =  0.3874E+01
 MRCHDU: Convergence failed at  73  side 1    Res =  0.3435E+01
 MRCHDU: Convergence failed at  74  side 1    Res =  0.3611E+01
 MRCHDU: Convergence failed at  75  side 1    Res =  0.4065E+01
 MRCHDU: Convergence failed at  76  side 1    Res =  0.4846E+01
 MRCHDU: Convergence failed at  77  side 1    Res =  0.7744E+01
 Side 1  free  transition at x/c =  0.9131   70
 Side 2  free  transition at x/c =  0.0543   22
 idif Ue xi dudx           1  0.15545215      3.00991535E-03   51.646683    
 Uenew xinew           2  2.29401048E-02  4.44173813E-04

  30   rms: 0.4984E+00   max: 0.2232E+01   D at   23  2   RLX: 0.672
       a = -4.000      CL =  0.0138
      Cm = -0.0946     CD =  0.02142   =>   CDf =  0.00545    CDp =  0.01597

 Side 1  free  transition at x/c =  0.8894   67
 Side 2  free  transition at x/c =  0.0639   24

  31   rms: 0.2709E+00   max: 0.1544E+01   D at   28  2   RLX: 0.702
       a = -4.000      CL =  0.0592
      Cm = -0.1025     CD =  0.01980   =>   CDf =  0.00603    CDp =  0.01377

 MRCHDU: Convergence failed at  71  side 1    Res =  0.3575E+01
 MRCHDU: Convergence failed at  72  side 1    Res =  0.2073E+01
 MRCHDU: Convergence failed at  73  side 1    Res =  0.2877E+01
 MRCHDU: Convergence failed at  74  side 1    Res =  0.4084E+01
 MRCHDU: Convergence failed at  75  side 1    Res =  0.5620E+01
 MRCHDU: Convergence failed at  76  side 1    Res =  0.7372E+01
 MRCHDU: Convergence failed at  77  side 1    Res =  0.6651E+01
 MRCHDU: Convergence failed at  27  side 2    Res =  0.1783E+01
 MRCHDU: Convergence failed at  28  side 2    Res =  0.9621E+00
 MRCHDU: Convergence failed at  29  side 2    Res =  0.9302E+00
 MRCHDU: Convergence failed at  30  side 2    Res =  0.1893E+01
 MRCHDU: Convergence failed at  31  side 2    Res =  0.3647E+01
 MRCHDU: Convergence failed at  32  side 2    Res =  0.1712E+02
 MRCHDU: Convergence failed at  33  side 2    Res =  0.1015E+02
 MRCHDU: Convergence failed at  34  side 2    Res =  0.4672E+01
 MRCHDU: Convergence failed at  35  side 2    Res =  0.3315E+01
 MRCHDU: Convergence failed at  36  side 2    Res =  0.2748E+01
 MRCHDU: Convergence failed at  37  side 2    Res =  0.2474E+01
 MRCHDU: Convergence failed at  38  side 2    Res =  0.2337E+01
 MRCHDU: Convergence failed at  39  side 2    Res =  0.2283E+01
 MRCHDU: Convergence failed at  40  side 2    Res =  0.2273E+01
 MRCHDU: Convergence failed at  41  side 2    Res =  0.2295E+01
 MRCHDU: Convergence failed at  42  side 2    Res =  0.2286E+01
 MRCHDU: Convergence failed at  43  side 2    Res =  0.2313E+01
 MRCHDU: Convergence failed at  44  side 2    Res =  0.2371E+01
 MRCHDU: Convergence failed at  45  side 2    Res =  0.2433E+01
 MRCHDU: Convergence failed at  46  side 2    Res =  0.2281E+01
 MRCHDU: Convergence failed at  47  side 2    Res =  0.2403E+01
 MRCHDU: Convergence failed at  48  side 2    Res =  0.2524E+01
 MRCHDU: Convergence failed at  49  side 2    Res =  0.2645E+01
 MRCHDU: Convergence failed at  50  side 2    Res =  0.2766E+01
 MRCHDU: Convergence failed at  51  side 2    Res =  0.2882E+01
 MRCHDU: Convergence failed at  52  side 2    Res =  0.2997E+01
 MRCHDU: Convergence failed at  53  side 2    Res =  0.3109E+01
 MRCHDU: Convergence failed at  54  side 2    Res =  0.3215E+01
 MRCHDU: Convergence failed at  55  side 2    Res =  0.3318E+01
 MRCHDU: Convergence failed at  56  side 2    Res =  0.3416E+01
 MRCHDU: Convergence failed at  57  side 2    Res =  0.3508E+01
 MRCHDU: Convergence failed at  58  side 2    Res =  0.3596E+01
 MRCHDU: Convergence failed at  59  side 2    Res =  0.3675E+01
 MRCHDU: Convergence failed at  60  side 2    Res =  0.3752E+01
 MRCHDU: Convergence failed at  61  side 2    Res =  0.3823E+01
 MRCHDU: Convergence failed at  62  side 2    Res =  0.3885E+01
 MRCHDU: Convergence failed at  63  side 2    Res =  0.3942E+01
 MRCHDU: Convergence failed at  64  side 2    Res =  0.3989E+01
 MRCHDU: Convergence failed at  65  side 2    Res =  0.4029E+01
 MRCHDU: Convergence failed at  66  side 2    Res =  0.4060E+01
 MRCHDU: Convergence failed at  67  side 2    Res =  0.3846E+01
 MRCHDU: Convergence failed at  68  side 2    Res =  0.3861E+01
 MRCHDU: Convergence failed at  69  side 2    Res =  0.3872E+01
 MRCHDU: Convergence failed at  70  side 2    Res =  0.3876E+01
 MRCHDU: Convergence failed at  71  side 2    Res =  0.3874E+01
 MRCHDU: Convergence failed at  72  side 2    Res =  0.3857E+01
 MRCHDU: Convergence failed at  73  side 2    Res =  0.3593E+01
 MRCHDU: Convergence failed at  74  side 2    Res =  0.3568E+01
 MRCHDU: Convergence failed at  75  side 2    Res =  0.5199E+01
 MRCHDU: Convergence failed at  76  side 2    Res =  0.5413E+01
 MRCHDU: Convergence failed at  77  side 2    Res =  0.5837E+01
 MRCHDU: Convergence failed at  78  side 2    Res =  0.6163E+01
 MRCHDU: Convergence failed at  79  side 2    Res =  0.6566E+01
 MRCHDU: Convergence failed at  80  side 2    Res =  0.7385E+01
 MRCHDU: Convergence failed at  81  side 2    Res =  0.9320E+01
 MRCHDU: Convergence failed at  82  side 2    Res =  0.1117E+02
 MRCHDU: Convergence failed at  83  side 2    Res =  0.1406E+02
 MRCHDU: Convergence failed at  84  side 2    Res =  0.2295E+02
 MRCHDU: Convergence failed at  85  side 2    Res =  0.6822E+02
 Side 1  free  transition at x/c =  0.9177   70
 Side 2  free  transition at x/c =  0.0644   23
 idif Ue xi dudx           1  0.14368054      2.67636776E-03   53.684902    
 Uenew xinew           2  5.93895791E-03  1.10626221E-04

  32   rms: 0.4008E+00   max: 0.1573E+01   D at   89  2   RLX: 0.954
       a = -4.000      CL = -0.0274
      Cm = -0.0714     CD =  0.01837   =>   CDf =  0.00260    CDp =  0.01578

 MRCHDU: Convergence failed at  89  side 2    Res =  0.3972E+01
 MRCHDU: Convergence failed at  90  side 2    Res =  0.7976E+01
 MRCHDU: Convergence failed at  91  side 2    Res =  0.2445E+01
 MRCHDU: Convergence failed at  92  side 2    Res =  0.1656E+01
 MRCHDU: Convergence failed at  93  side 2    Res =  0.1386E+01
 MRCHDU: Convergence failed at  94  side 2    Res =  0.1730E+01
 Side 1  free  transition at x/c =  0.8927   68
 Side 2  free  transition at x/c =  0.0586   24

  33   rms: 0.2386E+00   max: -.1791E+01   T at    2  2   RLX: 0.279
       a = -4.000      CL =  0.0017
      Cm = -0.0812     CD =  0.02713   =>   CDf =  0.00484    CDp =  0.02229

 Side 1  free  transition at x/c =  0.9029   69
 Side 2  free  transition at x/c =  0.0591   23

  34   rms: 0.2915E+00   max: -.3224E+01   D at    2  1   RLX: 0.155
       a = -4.000      CL =  0.0215
      Cm = -0.0872     CD =  0.02752   =>   CDf =  0.00475    CDp =  0.02276

 Side 1  free  transition at x/c =  0.9116   70
 Side 2  free  transition at x/c =  0.0596   23

  35   rms: 0.1533E+00   max: -.6904E+00   T at   23  2   RLX: 0.724
       a = -4.000      CL =  0.0934
      Cm = -0.1098     CD =  0.02186   =>   CDf =  0.00470    CDp =  0.01716

 Side 1  free  transition at x/c =  0.9212   70
 Side 2  free  transition at x/c =  0.0619   23

  36   rms: 0.1418E+00   max: 0.1055E+01   D at   76  1   RLX: 0.654
       a = -4.000      CL =  0.0301
      Cm = -0.0962     CD =  0.02441   =>   CDf =  0.00449    CDp =  0.01992

 Side 1  free  transition at x/c =  0.9018   69
 Side 2  free  transition at x/c =  0.0602   23

  37   rms: 0.8854E-01   max: -.4817E+00   D at   71  1
       a = -4.000      CL =  0.0727
      Cm = -0.1061     CD =  0.02185   =>   CDf =  0.00459    CDp =  0.01727

 MRCHDU: Convergence failed at  71  side 1    Res =  0.2820E+01
 MRCHDU: Convergence failed at  72  side 1    Res =  0.7982E+01
 MRCHDU: Convergence failed at  73  side 1    Res =  0.2664E+01
 MRCHDU: Convergence failed at  74  side 1    Res =  0.2567E+01
 MRCHDU: Convergence failed at  75  side 1    Res =  0.3272E+01
 MRCHDU: Convergence failed at  76  side 1    Res =  0.4778E+01
 MRCHDU: Convergence failed at  77  side 1    Res =  0.2621E+02
 Side 1  free  transition at x/c =  0.9179   70
 Side 2  free  transition at x/c =  0.0621   23
 idif Ue xi dudx           1  0.19712356      3.89063358E-03   50.666183    
 Uenew xinew           2  6.71272203E-02  1.32489204E-03

  38   rms: 0.1735E+00   max: 0.1186E+01   C at   70  1
       a = -4.000      CL = -0.0409
      Cm = -0.0800     CD =  0.02325   =>   CDf =  0.00456    CDp =  0.01869

 MRCHDU: Convergence failed at  70  side 1    Res =  0.1039E+01
 MRCHDU: Convergence failed at  71  side 1    Res =  0.3286E+01
 MRCHDU: Convergence failed at  72  side 1    Res =  0.1466E+01
 MRCHDU: Convergence failed at  73  side 1    Res =  0.2150E+01
 MRCHDU: Convergence failed at  74  side 1    Res =  0.1257E+01
 Side 1  free  transition at x/c =  0.8916   68
 Side 2  free  transition at x/c =  0.0579   24

  39   rms: 0.2186E+00   max: -.6342E+00   T at   24  2   RLX: 0.788
       a = -4.000      CL = -0.0142
      Cm = -0.0889     CD =  0.02435   =>   CDf =  0.00405    CDp =  0.02030

 Side 1  free  transition at x/c =  0.8943   68
 Side 2  free  transition at x/c =  0.0587   24

  40   rms: 0.2081E+00   max: -.7580E+00   T at   24  2   RLX: 0.660
       a = -4.000      CL =  0.0472
      Cm = -0.1031     CD =  0.02373   =>   CDf =  0.00417    CDp =  0.01956

 Side 1  free  transition at x/c =  0.9047   69
 Side 2  free  transition at x/c =  0.0602   23

  41   rms: 0.1700E+00   max: -.5114E+00   D at    2  1   RLX: 0.978
       a = -4.000      CL =  0.0784
      Cm = -0.1082     CD =  0.02140   =>   CDf =  0.00411    CDp =  0.01729

 Side 1  free  transition at x/c =  0.9218   71
 Side 2  free  transition at x/c =  0.0620   23

  42   rms: 0.5851E-01   max: -.2148E+00   D at   35  2
       a = -4.000      CL =  0.0850
      Cm = -0.1089     CD =  0.02168   =>   CDf =  0.00458    CDp =  0.01710

 Side 1  free  transition at x/c =  0.9168   70
 Side 2  free  transition at x/c =  0.0632   23

  43   rms: 0.3071E-01   max: 0.2023E+00   T at   70  1
       a = -4.000      CL =  0.0535
      Cm = -0.1019     CD =  0.02243   =>   CDf =  0.00479    CDp =  0.01764

 Side 1  free  transition at x/c =  0.9049   69
 Side 2  free  transition at x/c =  0.0618   23

  44   rms: 0.3264E-01   max: -.2090E+00   T at   69  1
       a = -4.000      CL =  0.0767
      Cm = -0.1068     CD =  0.02184   =>   CDf =  0.00479    CDp =  0.01705

 MRCHDU: Convergence failed at  77  side 1    Res =  0.2030E+01
 Side 1  free  transition at x/c =  0.9188   70
 Side 2  free  transition at x/c =  0.0629   23

  45   rms: 0.3839E-01   max: 0.4499E+00   C at   70  1
       a = -4.000      CL =  0.0694
      Cm = -0.1052     CD =  0.02183   =>   CDf =  0.00477    CDp =  0.01706

 Side 1  free  transition at x/c =  0.9145   70
 Side 2  free  transition at x/c =  0.0627   23

  46   rms: 0.1524E-01   max: -.1652E+00   D at   76  1
       a = -4.000      CL =  0.0635
      Cm = -0.1040     CD =  0.02216   =>   CDf =  0.00479    CDp =  0.01737

 Side 1  free  transition at x/c =  0.9092   70
 Side 2  free  transition at x/c =  0.0624   23

  47   rms: 0.2575E-02   max: -.3170E-01   D at   70  1
       a = -4.000      CL =  0.0625
      Cm = -0.1037     CD =  0.02220   =>   CDf =  0.00481    CDp =  0.01739

 Side 1  free  transition at x/c =  0.9093   70
 Side 2  free  transition at x/c =  0.0624   23

  48   rms: 0.4572E-04   max: -.7331E-03   D at   76  1
       a = -4.000      CL =  0.0624
      Cm = -0.1037     CD =  0.02220   =>   CDf =  0.00481    CDp =  0.01739
 plradd ia,ip,cpol            1           0  4.63385694E-03

 Point added to stored polar  1
 Point written to save file  goe613_Re400k.base.pol                          
 Dump file unspecified or not available
 Calculating wake trajectory ...
 Calculating source influence matrix ...

 Solving BL system ...

 Side 1  free  transition at x/c =  0.9092   70
 Side 2  free  transition at x/c =  0.0624   23

   1   rms: 0.1081E+00   max: -.7650E+00   T at   23  2   RLX: 0.654
       a = -3.500      CL =  0.1032
      Cm = -0.1050     CD =  0.02048   =>   CDf =  0.00481    CDp =  0.01566

 Side 1  free  transition at x/c =  0.9004   69
 Side 2  free  transition at x/c =  0.0668   23

   2   rms: 0.8485E-01   max: -.1020E+01   T at   23  2   RLX: 0.490
       a = -3.500      CL =  0.1069
      Cm = -0.1034     CD =  0.02222   =>   CDf =  0.00476    CDp =  0.01746

 Side 1  free  transition at x/c =  0.8942   69
 Side 2  free  transition at x/c =  0.0696   23

   3   rms: 0.1210E+00   max: -.4840E+00   D at   32  2
       a = -3.500      CL =  0.1219
      Cm = -0.1025     CD =  0.02345   =>   CDf =  0.00463    CDp =  0.01881

 Side 1  free  transition at x/c =  0.8919   69
 Side 2  free  transition at x/c =  0.0691   23

   4   rms: 0.4008E+00   max: 0.1754E+01   D at   24  2   RLX: 0.855
       a = -3.500      CL =  0.1214
      Cm = -0.1030     CD =  0.02224   =>   CDf =  0.00574    CDp =  0.01649

 Side 1  free  transition at x/c =  0.8920   69
 Side 2  free  transition at x/c =  0.0696   23

   5   rms: 0.5166E-01   max: -.2737E+00   T at   23  2
       a = -3.500      CL =  0.1219
      Cm = -0.1030     CD =  0.02272   =>   CDf =  0.00533    CDp =  0.01739

 Side 1  free  transition at x/c =  0.8924   69
 Side 2  free  transition at x/c =  0.0700   23

   6   rms: 0.6977E-01   max: 0.2236E+00   T at   24  2
       a = -3.500      CL =  0.1214
      Cm = -0.1029     CD =  0.02273   =>   CDf =  0.00537    CDp =  0.01736

 Side 1  free  transition at x/c =  0.8924   69
 Side 2  free  transition at x/c =  0.0725   24

   7   rms: 0.8034E-01   max: 0.6721E+00   D at   26  2   RLX: 0.871
       a = -3.500      CL =  0.1088
      Cm = -0.1024     CD =  0.01653   =>   CDf =  0.00600    CDp =  0.01053

 MRCHDU: Convergence failed at  26  side 2    Res =  0.5389E+01
 MRCHDU: Convergence failed at  27  side 2    Res =  0.1941E+02
 MRCHDU: Convergence failed at  28  side 2    Res =  0.1342E+02
 MRCHDU: Convergence failed at  29  side 2    Res =  0.9655E+01
 MRCHDU: Convergence failed at  30  side 2    Res =  0.2032E+02
 MRCHDU: Convergence failed at  31  side 2    Res =  0.3078E+02
 MRCHDU: Convergence failed at  32  side 2    Res =  0.3462E+02
 MRCHDU: Convergence failed at  33  side 2    Res =  0.3577E+02
 MRCHDU: Convergence failed at  34  side 2    Res =  0.4235E+02
 MRCHDU: Convergence failed at  35  side 2    Res =  0.5180E+02
 MRCHDU: Convergence failed at  36  side 2    Res =  0.6917E+02
 MRCHDU: Convergence failed at  37  side 2    Res =  0.1306E+03
 MRCHDU: Convergence failed at  38  side 2    Res =  0.3164E+03
 MRCHDU: Convergence failed at  39  side 2    Res =  0.3690E+03
 MRCHDU: Convergence failed at  40  side 2    Res =  0.1258E+03
 MRCHDU: Convergence failed at  41  side 2    Res =  0.8025E+02
 MRCHDU: Convergence failed at  42  side 2    Res =  0.6218E+02
 MRCHDU: Convergence failed at  43  side 2    Res =  0.5184E+02
 MRCHDU: Convergence failed at  44  side 2    Res =  0.4597E+02
 MRCHDU: Convergence failed at  45  side 2    Res =  0.4207E+02
 MRCHDU: Convergence failed at  46  side 2    Res =  0.3922E+02
 MRCHDU: Convergence failed at  47  side 2    Res =  0.3724E+02
 MRCHDU: Convergence failed at  48  side 2    Res =  0.3583E+02
 MRCHDU: Convergence failed at  49  side 2    Res =  0.3496E+02
 MRCHDU: Convergence failed at  50  side 2    Res =  0.3418E+02
 MRCHDU: Convergence failed at  51  side 2    Res =  0.3391E+02
 MRCHDU: Convergence failed at  52  side 2    Res =  0.3354E+02
 MRCHDU: Convergence failed at  53  side 2    Res =  0.3348E+02
 MRCHDU: Convergence failed at  54  side 2    Res =  0.3358E+02
 MRCHDU: Convergence failed at  55  side 2    Res =  0.3376E+02
 MRCHDU: Convergence failed at  56  side 2    Res =  0.3414E+02
 MRCHDU: Convergence failed at  57  side 2    Res =  0.3454E+02
 MRCHDU: Convergence failed at  58  side 2    Res =  0.3510E+02
 MRCHDU: Convergence failed at  59  side 2    Res =  0.3583E+02
 MRCHDU: Convergence failed at  60  side 2    Res =  0.3664E+02
 MRCHDU: Convergence failed at  61  side 2    Res =  0.3758E+02
 MRCHDU: Convergence failed at  62  side 2    Res =  0.3883E+02
 MRCHDU: Convergence failed at  63  side 2    Res =  0.4004E+02
 MRCHDU: Convergence failed at  64  side 2    Res =  0.4170E+02
 MRCHDU: Convergence failed at  65  side 2    Res =  0.4350E+02
 MRCHDU: Convergence failed at  66  side 2    Res =  0.4563E+02
 MRCHDU: Convergence failed at  67  side 2    Res =  0.4826E+02
 MRCHDU: Convergence failed at  68  side 2    Res =  0.5127E+02
 MRCHDU: Convergence failed at  69  side 2    Res =  0.5516E+02
 MRCHDU: Convergence failed at  70  side 2    Res =  0.4917E+02
 MRCHDU: Convergence failed at  71  side 2    Res =  0.5342E+02
 MRCHDU: Convergence failed at  72  side 2    Res =  0.5897E+02
 MRCHDU: Convergence failed at  73  side 2    Res =  0.7044E+02
 MRCHDU: Convergence failed at  74  side 2    Res =  0.8338E+02
 MRCHDU: Convergence failed at  75  side 2    Res =  0.1815E+02
 MRCHDU: Convergence failed at  76  side 2    Res =  0.1976E+02
 MRCHDU: Convergence failed at  77  side 2    Res =  0.2218E+02
 MRCHDU: Convergence failed at  78  side 2    Res =  0.2582E+02
 MRCHDU: Convergence failed at  79  side 2    Res =  0.3229E+02
 MRCHDU: Convergence failed at  80  side 2    Res =  0.3534E+02
 MRCHDU: Convergence failed at  81  side 2    Res =  0.5337E+02
 MRCHDU: Convergence failed at  82  side 2    Res =  0.2539E+03
 MRCHDU: Convergence failed at  83  side 2    Res =  0.1672E+03
 MRCHDU: Convergence failed at  84  side 2    Res =  0.1525E+03
 MRCHDU: Convergence failed at  85  side 2    Res =  0.2665E+03
 Side 1  free  transition at x/c =  0.8925   69
 Side 2  free  transition at x/c =  0.0809   24

   8   rms: 0.5755E+00   max: 0.3053E+01   D at   87  2   RLX: 0.491
       a = -3.500      CL = -0.1673
      Cm =  0.0108     CD =  0.01260   =>   CDf =  0.00258    CDp =  0.01002

 MRCHDU: Convergence failed at  39  side 2    Res =  0.4322E-01
 MRCHDU: Convergence failed at  86  side 2    Res =  0.5533E+01
 MRCHDU: Convergence failed at  87  side 2    Res =  0.3711E+01
 MRCHDU: Convergence failed at  88  side 2    Res =  0.2624E+01
 MRCHDU: Convergence failed at  89  side 2    Res =  0.1338E+02
 MRCHDU: Convergence failed at  90  side 2    Res =  0.2216E+02
 Side 1  free  transition at x/c =  0.9070   71
 Side 2  free  transition at x/c =  0.0773   23

   9   rms: 0.3198E+00   max: -.1043E+01   T at   23  2   RLX: 0.479
       a = -3.500      CL =  0.1462
      Cm = -0.0896     CD =  0.02862   =>   CDf =  0.00305    CDp =  0.02557

 Side 1  free  transition at x/c =  0.9137   71
 Side 2  free  transition at x/c =  0.0829   23

  10   rms: 0.3663E+00   max: -.1155E+01   D at   66  2   RLX: 0.433
       a = -3.500      CL =  0.2102
      Cm = -0.1169     CD =  0.02668   =>   CDf =  0.00300    CDp =  0.02368

 Side 1  free  transition at x/c =  0.9152   71
 Side 2  free  transition at x/c =  0.0820   23

  11   rms: 0.4556E+00   max: -.1649E+01   T at   24  2   RLX: 0.303
       a = -3.500      CL =  0.2439
      Cm = -0.1311     CD =  0.02502   =>   CDf =  0.00314    CDp =  0.02189

 Side 1  free  transition at x/c =  0.9158   71
 Side 2  free  transition at x/c =  0.0790   23

  12   rms: 0.4016E+00   max: -.1412E+01   D at   60  2   RLX: 0.354
       a = -3.500      CL =  0.2072
      Cm = -0.1291     CD =  0.02615   =>   CDf =  0.00337    CDp =  0.02278

 Side 1  free  transition at x/c =  0.9052   70
 Side 2  free  transition at x/c =  0.0764   23
 idif Ue xi dudx           1  0.25279230      4.06861305E-03   62.132301    
 Uenew xinew           2  0.11824132      1.90305710E-03

  13   rms: 0.8060E+00   max: 0.5267E+01   T at   23  2   RLX: 0.244
       a = -3.500      CL =  0.0454
      Cm = -0.1038     CD =  0.02707   =>   CDf =  0.00375    CDp =  0.02332

 MRCHDU: Convergence failed at  68  side 2    Res =  0.1801E-02
 Side 1  free  transition at x/c =  0.8793   68
 Side 2  free  transition at x/c =  0.0634   23
 idif Ue xi dudx           1  0.20726885      3.69429588E-03   56.105103    
 Uenew xinew           2  6.33176565E-02  1.12855434E-03

  14   rms: 0.6426E+00   max: 0.4177E+01   T at   23  2   RLX: 0.220
       a = -3.500      CL = -0.1064
      Cm = -0.0831     CD =  0.03161   =>   CDf =  0.00363    CDp =  0.02798

 MRCHDU: Convergence failed at  40  side 2    Res =  0.1875E+01
 MRCHDU: Convergence failed at  44  side 2    Res =  0.2324E+01
 MRCHDU: Convergence failed at  45  side 2    Res =  0.2900E+01
 MRCHDU: Convergence failed at  46  side 2    Res =  0.3676E+01
 MRCHDU: Convergence failed at  47  side 2    Res =  0.4631E+01
 MRCHDU: Convergence failed at  48  side 2    Res =  0.6348E+01
 MRCHDU: Convergence failed at  49  side 2    Res =  0.8256E+01
 MRCHDU: Convergence failed at  50  side 2    Res =  0.1100E+02
 MRCHDU: Convergence failed at  51  side 2    Res =  0.1529E+02
 MRCHDU: Convergence failed at  52  side 2    Res =  0.2168E+02
 MRCHDU: Convergence failed at  53  side 2    Res =  0.3427E+02
 MRCHDU: Convergence failed at  54  side 2    Res =  0.6653E+02
 MRCHDU: Convergence failed at  55  side 2    Res =  0.4093E+03
 MRCHDU: Convergence failed at  56  side 2    Res =  0.1186E+02
 MRCHDU: Convergence failed at  57  side 2    Res =  0.1086E+02
 MRCHDU: Convergence failed at  58  side 2    Res =  0.1010E+02
 MRCHDU: Convergence failed at  59  side 2    Res =  0.9584E+01
 MRCHDU: Convergence failed at  60  side 2    Res =  0.9044E+01
 MRCHDU: Convergence failed at  61  side 2    Res =  0.8793E+01
 MRCHDU: Convergence failed at  62  side 2    Res =  0.8798E+01
 MRCHDU: Convergence failed at  63  side 2    Res =  0.9082E+01
 MRCHDU: Convergence failed at  64  side 2    Res =  0.1033E+02
 MRCHDU: Convergence failed at  65  side 2    Res =  0.1698E+02
 MRCHDU: Convergence failed at  66  side 2    Res =  0.3743E+02
 MRCHDU: Convergence failed at  67  side 2    Res =  0.9936E+02
 MRCHDU: Convergence failed at  70  side 2    Res =  0.1329E+01
 MRCHDU: Convergence failed at  71  side 2    Res =  0.1832E+01
 MRCHDU: Convergence failed at  72  side 2    Res =  0.5419E+01
 MRCHDU: Convergence failed at  73  side 2    Res =  0.1242E+01
 MRCHDU: Convergence failed at  74  side 2    Res =  0.1420E+01
 MRCHDU: Convergence failed at  75  side 2    Res =  0.2548E+01
 MRCHDU: Convergence failed at  76  side 2    Res =  0.3110E+01
 MRCHDU: Convergence failed at  77  side 2    Res =  0.3737E+01
 MRCHDU: Convergence failed at  78  side 2    Res =  0.1311E+01
 MRCHDU: Convergence failed at  79  side 2    Res =  0.1365E+01
 MRCHDU: Convergence failed at  80  side 2    Res =  0.1369E+01
 MRCHDU: Convergence failed at  81  side 2    Res =  0.1348E+01
 MRCHDU: Convergence failed at  82  side 2    Res =  0.1369E+01
 MRCHDU: Convergence failed at  83  side 2    Res =  0.1420E+01
 MRCHDU: Convergence failed at  84  side 2    Res =  0.1443E+01
 MRCHDU: Convergence failed at  85  side 2    Res =  0.1465E+01
 MRCHDU: Convergence failed at  86  side 2    Res =  0.1474E+01
 Side 1  free  transition at x/c =  0.8670   66
 Side 2  free  transition at x/c =  0.0568   23

  15   rms: 0.7203E+00   max: -.3898E+01   T at   24  2   RLX: 0.128
       a = -3.500      CL = -0.5160
      Cm =  0.1298     CD =  0.01724   =>   CDf =  0.00454    CDp =  0.01270

 Side 1  free  transition at x/c =  0.8705   66
 Side 2  free  transition at x/c =  0.0558   23

  16   rms: 0.2996E+01   max: -.3478E+02   T at   24  2   RLX: 0.014
       a = -3.500      CL = -0.4911
      Cm =  0.1161     CD =  0.01447   =>   CDf =  0.00447    CDp =  0.01000

 Side 1  free  transition at x/c =  0.8704   66
 Side 2  free  transition at x/c =  0.0538   23

  17   rms: 0.4610E+00   max: -.2336E+01   T at   23  2   RLX: 0.214
       a = -3.500      CL = -0.3495
      Cm =  0.0636     CD =  0.01629   =>   CDf =  0.00428    CDp =  0.01201

 Side 1  free  transition at x/c =  0.8789   67
 Side 2  free  transition at x/c =  0.0530   23

  18   rms: 0.3781E+00   max: 0.5766E+00   D at   93  2   RLX: 0.544
       a = -3.500      CL = -0.0630
      Cm = -0.0372     CD =  0.01891   =>   CDf =  0.00403    CDp =  0.01488

 Side 1  free  transition at x/c =  0.8845   68
 Side 2  free  transition at x/c =  0.0545   22

  19   rms: 0.2596E+00   max: -.8612E+00   D at   54  2   RLX: 0.581
       a = -3.500      CL =  0.0649
      Cm = -0.0797     CD =  0.02112   =>   CDf =  0.00430    CDp =  0.01682

 Side 1  free  transition at x/c =  0.8904   68
 Side 2  free  transition at x/c =  0.0565   22

  20   rms: 0.2490E+00   max: -.9017E+00   D at   36  2   RLX: 0.555
       a = -3.500      CL =  0.1204
      Cm = -0.0953     CD =  0.02926   =>   CDf =  0.00421    CDp =  0.02505

 Side 1  free  transition at x/c =  0.8930   69
 Side 2  free  transition at x/c =  0.0571   22

  21   rms: 0.2033E+00   max: 0.8873E+00   D at   25  2
       a = -3.500      CL =  0.1175
      Cm = -0.1015     CD =  0.02101   =>   CDf =  0.00586    CDp =  0.01516

 MRCHDU: Convergence failed at  28  side 2    Res =  0.9922E+02
 MRCHDU: Convergence failed at  29  side 2    Res =  0.3288E+02
 MRCHDU: Convergence failed at  30  side 2    Res =  0.4980E+02
 MRCHDU: Convergence failed at  31  side 2    Res =  0.6977E+02
 MRCHDU: Convergence failed at  32  side 2    Res =  0.4792E+02
 MRCHDU: Convergence failed at  33  side 2    Res =  0.5784E+02
 MRCHDU: Convergence failed at  34  side 2    Res =  0.9151E+02
 MRCHDU: Convergence failed at  35  side 2    Res =  0.1536E+03
 MRCHDU: Convergence failed at  36  side 2    Res =  0.8141E+02
 MRCHDU: Convergence failed at  37  side 2    Res =  0.8010E+02
 MRCHDU: Convergence failed at  38  side 2    Res =  0.7887E+02
 MRCHDU: Convergence failed at  39  side 2    Res =  0.7679E+02
 MRCHDU: Convergence failed at  40  side 2    Res =  0.8180E+02
 MRCHDU: Convergence failed at  41  side 2    Res =  0.8339E+02
 MRCHDU: Convergence failed at  42  side 2    Res =  0.7899E+02
 MRCHDU: Convergence failed at  43  side 2    Res =  0.8157E+02
 MRCHDU: Convergence failed at  44  side 2    Res =  0.8335E+02
 MRCHDU: Convergence failed at  45  side 2    Res =  0.8079E+02
 MRCHDU: Convergence failed at  46  side 2    Res =  0.8075E+02
 MRCHDU: Convergence failed at  47  side 2    Res =  0.8079E+02
 MRCHDU: Convergence failed at  48  side 2    Res =  0.8082E+02
 MRCHDU: Convergence failed at  49  side 2    Res =  0.8097E+02
 MRCHDU: Convergence failed at  50  side 2    Res =  0.8111E+02
 MRCHDU: Convergence failed at  51  side 2    Res =  0.8136E+02
 MRCHDU: Convergence failed at  52  side 2    Res =  0.8151E+02
 MRCHDU: Convergence failed at  53  side 2    Res =  0.8176E+02
 MRCHDU: Convergence failed at  54  side 2    Res =  0.8245E+02
 MRCHDU: Convergence failed at  55  side 2    Res =  0.8305E+02
 MRCHDU: Convergence failed at  56  side 2    Res =  0.8410E+02
 MRCHDU: Convergence failed at  57  side 2    Res =  0.8456E+02
 MRCHDU: Convergence failed at  58  side 2    Res =  0.9163E+02
 MRCHDU: Convergence failed at  59  side 2    Res =  0.9311E+02
 MRCHDU: Convergence failed at  60  side 2    Res =  0.9534E+02
 MRCHDU: Convergence failed at  61  side 2    Res =  0.9858E+02
 MRCHDU: Convergence failed at  62  side 2    Res =  0.1038E+03
 MRCHDU: Convergence failed at  63  side 2    Res =  0.8893E+02
 MRCHDU: Convergence failed at  64  side 2    Res =  0.9104E+02
 MRCHDU: Convergence failed at  65  side 2    Res =  0.8992E+02
 MRCHDU: Convergence failed at  66  side 2    Res =  0.9652E+02
 MRCHDU: Convergence failed at  67  side 2    Res =  0.9284E+02
 MRCHDU: Convergence failed at  68  side 2    Res =  0.9721E+02
 MRCHDU: Convergence failed at  69  side 2    Res =  0.9685E+02
 MRCHDU: Convergence failed at  70  side 2    Res =  0.9764E+02
 MRCHDU: Convergence failed at  71  side 2    Res =  0.9895E+02
 MRCHDU: Convergence failed at  72  side 2    Res =  0.1006E+03
 MRCHDU: Convergence failed at  73  side 2    Res =  0.1026E+03
 MRCHDU: Convergence failed at  74  side 2    Res =  0.1048E+03
 MRCHDU: Convergence failed at  75  side 2    Res =  0.1074E+03
 MRCHDU: Convergence failed at  76  side 2    Res =  0.1105E+03
 MRCHDU: Convergence failed at  77  side 2    Res =  0.1141E+03
 MRCHDU: Convergence failed at  78  side 2    Res =  0.1187E+03
 MRCHDU: Convergence failed at  79  side 2    Res =  0.1245E+03
 MRCHDU: Convergence failed at  80  side 2    Res =  0.1315E+03
 MRCHDU: Convergence failed at  81  side 2    Res =  0.1417E+03
 MRCHDU: Convergence failed at  82  side 2    Res =  0.1876E+03
 MRCHDU: Convergence failed at  83  side 2    Res =  0.2067E+03
 MRCHDU: Convergence failed at  84  side 2    Res =  0.2311E+03
 MRCHDU: Convergence failed at  85  side 2    Res =  0.2882E+03
 Side 1  free  transition at x/c =  0.8924   69
 Side 2  free  transition at x/c =  0.1398   28

  22   rms: 0.1809E+01   max: 0.1769E+02   C at   28  2   RLX: 0.085
       a = -3.500      CL = -0.7817
      Cm =  0.1952     CD =  0.00550   =>   CDf =  0.00222    CDp =  0.00328

 Side 1  free  transition at x/c =  0.8963   69
 Side 2  free  transition at x/c =  0.1570   29

  23   rms: 0.3336E+01   max: -.5398E+02   T at   29  2   RLX: 0.009
       a = -3.500      CL = -0.4992
      Cm =  0.0868     CD =  0.04873   =>   CDf =  0.00255    CDp =  0.04618

 Side 1  free  transition at x/c =  0.8977   69
 Side 2  free  transition at x/c =  0.1932   32

  24   rms: 0.2045E+01   max: 0.2485E+02   T at   32  2   RLX: 0.060
       a = -3.500      CL = -0.5487
      Cm =  0.0785     CD =  0.04184   =>   CDf =  0.00252    CDp =  0.03932

 Side 1  free  transition at x/c =  0.9042   69
 Side 2  free  transition at x/c =  0.1442   28

  25   rms: 0.2171E+01   max: -.1388E+02   T at   29  2   RLX: 0.036
       a = -3.500      CL = -0.6205
      Cm =  0.1160     CD =  0.05056   =>   CDf =  0.00253    CDp =  0.04804

 MRCHDU: Convergence failed at  72  side 1    Res =  0.1486E+01
 MRCHDU: Convergence failed at  73  side 1    Res =  0.3226E+01
 MRCHDU: Convergence failed at  74  side 1    Res =  0.2219E+02
 MRCHDU: Convergence failed at  75  side 1    Res =  0.2409E+02
 MRCHDU: Convergence failed at  76  side 1    Res =  0.2338E+02
 MRCHDU: Convergence failed at  77  side 1    Res =  0.6026E+01
 Side 1  free  transition at x/c =  0.9353   71
 Side 2  free  transition at x/c =  0.1363   28

  26   rms: 0.1270E+01   max: 0.1489E+02   T at   28  2   RLX: 0.046
       a = -3.500      CL = -0.5592
      Cm =  0.0881     CD =  0.04826   =>   CDf =  0.00246    CDp =  0.04580

 Side 1  free  transition at x/c =  0.9785   75
 Side 2  free  transition at x/c =  0.1337   28

  27   rms: 0.2241E+01   max: 0.2932E+02   T at   28  2   RLX: 0.051
       a = -3.500      CL = -0.5753
      Cm =  0.0747     CD =  0.04719   =>   CDf =  0.00253    CDp =  0.04466

 Side 1  free  transition at x/c =  0.9782   75
 Side 2  free  transition at x/c =  0.1137   26
 idif Ue xi dudx           1  0.22716044      4.54688072E-03   49.959621    
 Uenew xinew           2  9.89769623E-02  1.98113918E-03

  28   rms: 0.3305E+01   max: 0.2352E+02   T at   27  2   RLX: 0.064
       a = -3.500      CL = -0.7422
      Cm =  0.1046     CD =  0.05584   =>   CDf =  0.00249    CDp =  0.05334

 Side 1  free  transition at x/c =  0.9762   74
 Side 2  free  transition at x/c =  0.0977   26
 idif Ue xi dudx           1  0.16415568      3.47363949E-03   47.257545    
 Uenew xinew           2  1.53232245E-02  3.24249268E-04

  29   rms: 0.2156E+01   max: 0.2134E+02   T at   27  2   RLX: 0.070
       a = -3.500      CL = -0.8746
      Cm =  0.1177     CD =  0.04468   =>   CDf =  0.00245    CDp =  0.04224

 MRCHDU: Convergence failed at  30  side 2    Res =  0.2570E+01
 Side 1  free  transition at x/c =  0.9764   73
 Side 2  free  transition at x/c =  0.0880   27

  30   rms: 0.9993E+00   max: 0.1412E+02   T at   27  2   RLX: 0.106
       a = -3.500      CL = -0.9013
      Cm =  0.1041     CD =  0.04492   =>   CDf =  0.00247    CDp =  0.04245

 Side 1  free  transition at x/c =  0.9798   73
 Side 2  free  transition at x/c =  0.0770   26

  31   rms: 0.1560E+01   max: 0.1852E+02   T at   26  2   RLX: 0.070
       a = -3.500      CL = -0.7766
      Cm =  0.0456     CD =  0.04014   =>   CDf =  0.00252    CDp =  0.03761

 Side 1  free  transition at x/c =  0.9764   73
 Side 2  free  transition at x/c =  0.0765   26

  32   rms: 0.4554E+00   max: 0.2129E+01   T at   26  2   RLX: 0.428
       a = -3.500      CL = -0.4375
      Cm = -0.0432     CD =  0.04018   =>   CDf =  0.00279    CDp =  0.03739

 MRCHDU: Convergence failed at  30  side 2    Res =  0.1316E+01
 MRCHDU: Convergence failed at  31  side 2    Res =  0.1572E+01
 MRCHDU: Convergence failed at  32  side 2    Res =  0.2366E+01
 MRCHDU: Convergence failed at  33  side 2    Res =  0.9033E+01
 MRCHDU: Convergence failed at  34  side 2    Res =  0.1313E+01
 MRCHDU: Convergence failed at  35  side 2    Res =  0.1899E+01
 MRCHDU: Convergence failed at  36  side 2    Res =  0.2413E+01
 MRCHDU: Convergence failed at  37  side 2    Res =  0.4601E+01
 MRCHDU: Convergence failed at  38  side 2    Res =  0.2784E+02
 MRCHDU: Convergence failed at  39  side 2    Res =  0.2927E+02
 MRCHDU: Convergence failed at  40  side 2    Res =  0.4188E+02
 MRCHDU: Convergence failed at  41  side 2    Res =  0.5381E+01
 MRCHDU: Convergence failed at  42  side 2    Res =  0.3109E+01
 MRCHDU: Convergence failed at  43  side 2    Res =  0.4309E+01
 MRCHDU: Convergence failed at  44  side 2    Res =  0.5316E+01
 MRCHDU: Convergence failed at  45  side 2    Res =  0.6736E+01
 MRCHDU: Convergence failed at  46  side 2    Res =  0.1224E+02
 MRCHDU: Convergence failed at  47  side 2    Res =  0.1042E+03
 MRCHDU: Convergence failed at  48  side 2    Res =  0.1242E+02
 MRCHDU: Convergence failed at  49  side 2    Res =  0.6411E+01
 MRCHDU: Convergence failed at  50  side 2    Res =  0.4131E+01
 MRCHDU: Convergence failed at  51  side 2    Res =  0.4250E+01
 MRCHDU: Convergence failed at  52  side 2    Res =  0.4747E+01
 MRCHDU: Convergence failed at  53  side 2    Res =  0.5074E+01
 MRCHDU: Convergence failed at  54  side 2    Res =  0.6133E+01
 MRCHDU: Convergence failed at  55  side 2    Res =  0.7326E+01
 MRCHDU: Convergence failed at  56  side 2    Res =  0.1185E+02
 MRCHDU: Convergence failed at  57  side 2    Res =  0.2196E+02
 MRCHDU: Convergence failed at  58  side 2    Res =  0.2659E+03
 MRCHDU: Convergence failed at  59  side 2    Res =  0.1494E+02
 MRCHDU: Convergence failed at  60  side 2    Res =  0.8835E+01
 MRCHDU: Convergence failed at  61  side 2    Res =  0.6669E+01
 MRCHDU: Convergence failed at  62  side 2    Res =  0.4462E+01
 MRCHDU: Convergence failed at  63  side 2    Res =  0.3644E+01
 MRCHDU: Convergence failed at  64  side 2    Res =  0.4527E+01
 MRCHDU: Convergence failed at  65  side 2    Res =  0.4853E+01
 MRCHDU: Convergence failed at  66  side 2    Res =  0.5333E+01
 MRCHDU: Convergence failed at  67  side 2    Res =  0.6305E+01
 MRCHDU: Convergence failed at  68  side 2    Res =  0.7269E+01
 MRCHDU: Convergence failed at  69  side 2    Res =  0.8635E+01
 MRCHDU: Convergence failed at  70  side 2    Res =  0.1337E+02
 MRCHDU: Convergence failed at  71  side 2    Res =  0.2568E+02
 MRCHDU: Convergence failed at  72  side 2    Res =  0.3390E+03
 MRCHDU: Convergence failed at  73  side 2    Res =  0.1634E+02
 MRCHDU: Convergence failed at  74  side 2    Res =  0.9224E+01
 MRCHDU: Convergence failed at  75  side 2    Res =  0.6178E+01
 MRCHDU: Convergence failed at  76  side 2    Res =  0.4475E+01
 MRCHDU: Convergence failed at  77  side 2    Res =  0.3741E+01
 MRCHDU: Convergence failed at  78  side 2    Res =  0.3263E+01
 MRCHDU: Convergence failed at  79  side 2    Res =  0.3842E+01
 MRCHDU: Convergence failed at  80  side 2    Res =  0.4098E+01
 MRCHDU: Convergence failed at  81  side 2    Res =  0.4416E+01
 MRCHDU: Convergence failed at  82  side 2    Res =  0.5035E+01
 MRCHDU: Convergence failed at  83  side 2    Res =  0.5837E+01
 MRCHDU: Convergence failed at  84  side 2    Res =  0.7320E+01
 MRCHDU: Convergence failed at  85  side 2    Res =  0.1122E+02
 MRCHDU: Convergence failed at  86  side 2    Res =  0.1752E+02
 MRCHDU: Convergence failed at  87  side 2    Res =  0.1364E+03
 Side 1  free  transition at x/c =  0.9758   73
 Side 2  free  transition at x/c =  0.0626   25

  33   rms: 0.8681E+00   max: -.2956E+01   T at   25  2   RLX: 0.169
       a = -3.500      CL = -1.0701
      Cm =  0.2029     CD =  0.01928   =>   CDf =  0.00284    CDp =  0.01643

 Side 1  free  transition at x/c =  0.9699   72
 Side 2  free  transition at x/c =  0.0613   25

  34   rms: 0.6436E+00   max: -.6979E+00   D at   97  2   RLX: 0.425
       a = -3.500      CL = -0.5175
      Cm =  0.0549     CD =  0.01536   =>   CDf =  0.00932    CDp =  0.00604

 Side 1  free  transition at x/c =  0.9344   70
 Side 2  free  transition at x/c =  0.0629   24

  35   rms: 0.3857E+00   max: 0.2412E+01   T at   70  1   RLX: 0.289
       a = -3.500      CL = -0.3820
      Cm =  0.0183     CD =  0.01886   =>   CDf =  0.00721    CDp =  0.01164

 Side 1  free  transition at x/c =  0.9022   68
 Side 2  free  transition at x/c =  0.0602   24

  36   rms: 0.3587E+00   max: -.1195E+01   T at   24  2   RLX: 0.418
       a = -3.500      CL = -0.1439
      Cm = -0.0395     CD =  0.02057   =>   CDf =  0.00606    CDp =  0.01451

 Side 1  free  transition at x/c =  0.9160   70
 Side 2  free  transition at x/c =  0.0616   23

  37   rms: 0.1740E+00   max: -.7239E+00   D at   23  2   RLX: 0.691
       a = -3.500      CL =  0.0315
      Cm = -0.0833     CD =  0.02257   =>   CDf =  0.00515    CDp =  0.01741

 Side 1  free  transition at x/c =  0.8944   69
 Side 2  free  transition at x/c =  0.0639   23

  38   rms: 0.8349E-01   max: -.5786E+00   D at   23  2   RLX: 0.864
       a = -3.500      CL =  0.1092
      Cm = -0.1010     CD =  0.02153   =>   CDf =  0.00494    CDp =  0.01658

 Side 1  free  transition at x/c =  0.8932   69
 Side 2  free  transition at x/c =  0.0689   23

  39   rms: 0.2899E+00   max: 0.1605E+01   T at   23  2   RLX: 0.326
       a = -3.500      CL =  0.1082
      Cm = -0.1024     CD =  0.02106   =>   CDf =  0.00479    CDp =  0.01627

 Side 1  free  transition at x/c =  0.8932   69
 Side 2  free  transition at x/c =  0.0666   23

  40   rms: 0.1807E+00   max: -.1267E+01   T at   23  2   RLX: 0.395
       a = -3.500      CL =  0.1077
      Cm = -0.1030     CD =  0.02434   =>   CDf =  0.00433    CDp =  0.02001

 Side 1  free  transition at x/c =  0.8928   69
 Side 2  free  transition at x/c =  0.0697   23

  41   rms: 0.3812E+00   max: 0.2662E+01   T at   28  2   RLX: 0.310
       a = -3.500      CL =  0.1016
      Cm = -0.0997     CD =  0.03951   =>   CDf =  0.00408    CDp =  0.03543

 Side 1  free  transition at x/c =  0.8904   68
 Side 2  free  transition at x/c =  0.0663   23

  42   rms: 0.2327E+00   max: 0.1340E+01   D at   24  2   RLX: 0.799
       a = -3.500      CL =  0.1242
      Cm = -0.1043     CD =  0.02202   =>   CDf =  0.00511    CDp =  0.01690

 Side 1  free  transition at x/c =  0.8944   69
 Side 2  free  transition at x/c =  0.0703   23

  43   rms: 0.1765E+00   max: -.7150E+00   D at   24  2   RLX: 0.699
       a = -3.500      CL =  0.1293
      Cm = -0.1026     CD =  0.03290   =>   CDf =  0.00483    CDp =  0.02807

 Side 1  free  transition at x/c =  0.8924   69
 Side 2  free  transition at x/c =  0.0700   23

  44   rms: 0.3968E+00   max: 0.1588E+01   D at   26  2   RLX: 0.945
       a = -3.500      CL =  0.1203
      Cm = -0.1026     CD =  0.02264   =>   CDf =  0.00588    CDp =  0.01675

 Side 1  free  transition at x/c =  0.8920   69
 Side 2  free  transition at x/c =  0.0720   24

  45   rms: 0.3606E+00   max: -.2258E+01   T at   24  2   RLX: 0.221
       a = -3.500      CL =  0.1163
      Cm = -0.1023     CD =  0.01458   =>   CDf =  0.00599    CDp =  0.00860

 Side 1  free  transition at x/c =  0.8923   69
 Side 2  free  transition at x/c =  0.0777   24

  46   rms: 0.1560E+00   max: 0.8764E+00   D at   27  2
       a = -3.500      CL =  0.1135
      Cm = -0.1030     CD =  0.01987   =>   CDf =  0.00561    CDp =  0.01426

 Side 1  free  transition at x/c =  0.8923   69
 Side 2  free  transition at x/c =  0.0712   24

  47   rms: 0.1723E+00   max: -.5143E+00   T at   24  2   RLX: 0.972
       a = -3.500      CL =  0.1169
      Cm = -0.1038     CD =  0.01935   =>   CDf =  0.00482    CDp =  0.01453

 Side 1  free  transition at x/c =  0.8927   69
 Side 2  free  transition at x/c =  0.0721   24

  48   rms: 0.9329E-01   max: -.3156E+00   D at   24  2
       a = -3.500      CL =  0.1160
      Cm = -0.1034     CD =  0.01963   =>   CDf =  0.00498    CDp =  0.01466

 Side 1  free  transition at x/c =  0.8926   69
 Side 2  free  transition at x/c =  0.0729   24

  49   rms: 0.2096E-01   max: -.7320E-01   D at   24  2
       a = -3.500      CL =  0.1151
      Cm = -0.1032     CD =  0.01967   =>   CDf =  0.00524    CDp =  0.01444

 Side 1  free  transition at x/c =  0.8925   69
 Side 2  free  transition at x/c =  0.0733   24

  50   rms: 0.1534E-02   max: -.6151E-02   D at   24  2
       a = -3.500      CL =  0.1149
      Cm = -0.1031     CD =  0.01968   =>   CDf =  0.00529    CDp =  0.01440

 Side 1  free  transition at x/c =  0.8925   69
 Side 2  free  transition at x/c =  0.0733   24

  51   rms: 0.2217E-04   max: 0.1396E-03   T at   24  2
       a = -3.500      CL =  0.1148
      Cm = -0.1031     CD =  0.01969   =>   CDf =  0.00529    CDp =  0.01439
 plradd ia,ip,cpol            2           0  6.53770892E-03

 Point added to stored polar  1
 Point written to save file  goe613_Re400k.base.pol                          
 Dump file unspecified or not available
 Calculating wake trajectory ...
 Calculating source influence matrix ...

 Solving BL system ...

 Side 1  free  transition at x/c =  0.8925   69
 Side 2  free  transition at x/c =  0.0733   24

   1   rms: 0.1285E+00   max: -.9576E+00   T at   24  2   RLX: 0.522
       a = -3.000      CL =  0.1477
      Cm = -0.1044     CD =  0.01823   =>   CDf =  0.00530    CDp =  0.01293

 Side 1  free  transition at x/c =  0.8871   69
 Side 2  free  transition at x/c =  0.0758   23

   2   rms: 0.1003E+00   max: -.4841E+00   T at   23  2
       a = -3.000      CL =  0.1556
      Cm = -0.1003     CD =  0.01815   =>   CDf =  0.00500    CDp =  0.01316

 Side 1  free  transition at x/c =  0.8689   68
 Side 2  free  transition at x/c =  0.0799   23

   3   rms: 0.5272E-01   max: -.6135E+00   T at   23  2   RLX: 0.815
       a = -3.000      CL =  0.1673
      Cm = -0.1021     CD =  0.01903   =>   CDf =  0.00526    CDp =  0.01377

 Side 1  free  transition at x/c =  0.8744   68
 Side 2  free  transition at x/c =  0.0853   24

   4   rms: 0.1322E+00   max: -.7552E+00   T at   24  2   RLX: 0.662
       a = -3.000      CL =  0.1635
      Cm = -0.1022     CD =  0.01697   =>   CDf =  0.00562    CDp =  0.01135

 Side 1  free  transition at x/c =  0.8745   68
 Side 2  free  transition at x/c =  0.0878   24

   5   rms: 0.5825E-01   max: -.2910E+00   D at   30  2
       a = -3.000      CL =  0.1647
      Cm = -0.1021     CD =  0.01782   =>   CDf =  0.00527    CDp =  0.01255

 Side 1  free  transition at x/c =  0.8744   68
 Side 2  free  transition at x/c =  0.0870   24

   6   rms: 0.6350E-02   max: -.7173E-01   D at   30  2
       a = -3.000      CL =  0.1643
      Cm = -0.1020     CD =  0.01800   =>   CDf =  0.00555    CDp =  0.01245

 Side 1  free  transition at x/c =  0.8743   68
 Side 2  free  transition at x/c =  0.0869   24

   7   rms: 0.2851E-03   max: -.4261E-02   D at   30  2
       a = -3.000      CL =  0.1642
      Cm = -0.1019     CD =  0.01801   =>   CDf =  0.00559    CDp =  0.01242

 Side 1  free  transition at x/c =  0.8743   68
 Side 2  free  transition at x/c =  0.0868   24

   8   rms: 0.3506E-05   max: -.2770E-04   D at   30  2
       a = -3.000      CL =  0.1642
      Cm = -0.1019     CD =  0.01801   =>   CDf =  0.00559    CDp =  0.01242
 plradd ia,ip,cpol            3           0  8.91499873E-03

 Point added to stored polar  1
 Point written to save file  goe613_Re400k.base.pol                          
 Dump file unspecified or not available
 Calculating wake trajectory ...
 Calculating source influence matrix ...

 Solving BL system ...

 Side 1  free  transition at x/c =  0.8743   68
 Side 2  free  transition at x/c =  0.0868   24

   1   rms: 0.1192E+00   max: -.8898E+00   T at   24  2   RLX: 0.562
       a = -2.500      CL =  0.1862
      Cm = -0.1005     CD =  0.01650   =>   CDf =  0.00560    CDp =  0.01091

 Side 1  free  transition at x/c =  0.8606   67
 Side 2  free  transition at x/c =  0.0902   24

   2   rms: 0.8632E-01   max: -.6563E+00   T at   24  2   RLX: 0.762
       a = -2.500      CL =  0.2071
      Cm = -0.1008     CD =  0.01689   =>   CDf =  0.00541    CDp =  0.01149

 Side 1  free  transition at x/c =  0.8575   67
 Side 2  free  transition at x/c =  0.0959   24

   3   rms: 0.6273E+00   max: 0.6137E+01   T at   24  2   RLX: 0.164
       a = -2.500      CL =  0.2043
      Cm = -0.1013     CD =  0.01583   =>   CDf =  0.00544    CDp =  0.01038

 Side 1  free  transition at x/c =  0.8577   67
 Side 2  free  transition at x/c =  0.1042   25

   4   rms: 0.1370E+00   max: -.5677E+00   D at   33  2   RLX: 0.881
       a = -2.500      CL =  0.2109
      Cm = -0.1011     CD =  0.01634   =>   CDf =  0.00512    CDp =  0.01122

 Side 1  free  transition at x/c =  0.8564   67
 Side 2  free  transition at x/c =  0.1031   25

   5   rms: 0.4205E-01   max: -.2838E+00   D at   32  2
       a = -2.500      CL =  0.2133
      Cm = -0.1008     CD =  0.01628   =>   CDf =  0.00552    CDp =  0.01076

 Side 1  free  transition at x/c =  0.8562   68
 Side 2  free  transition at x/c =  0.1030   24

   6   rms: 0.7103E-02   max: -.1069E+00   D at    2  1
       a = -2.500      CL =  0.2129
      Cm = -0.1007     CD =  0.01636   =>   CDf =  0.00571    CDp =  0.01065

 Side 1  free  transition at x/c =  0.8562   68
 Side 2  free  transition at x/c =  0.1028   24

   7   rms: 0.5919E-03   max: 0.6908E-02   D at    4  1
       a = -2.500      CL =  0.2129
      Cm = -0.1007     CD =  0.01636   =>   CDf =  0.00573    CDp =  0.01064

 Side 1  free  transition at x/c =  0.8562   68
 Side 2  free  transition at x/c =  0.1028   24

   8   rms: 0.7466E-05   max: 0.8959E-04   D at    4  1
       a = -2.500      CL =  0.2129
      Cm = -0.1007     CD =  0.01636   =>   CDf =  0.00573    CDp =  0.01064
 plradd ia,ip,cpol            4           0  8.91499873E-03

 Point added to stored polar  1
 Point written to save file  goe613_Re400k.base.pol                          
 Dump file unspecified or not available
 Calculating wake trajectory ...
 Calculating source influence matrix ...

 Solving BL system ...

 Side 1  free  transition at x/c =  0.8562   68
 Side 2  free  transition at x/c =  0.1028   24

   1   rms: 0.1173E+00   max: -.1093E+01   T at   24  2   RLX: 0.457
       a = -2.000      CL =  0.2345
      Cm = -0.1001     CD =  0.01543   =>   CDf =  0.00573    CDp =  0.00970

 Side 1  free  transition at x/c =  0.8462   67
 Side 2  free  transition at x/c =  0.1072   24

   2   rms: 0.8127E-01   max: -.1085E+01   T at   24  2   RLX: 0.461
       a = -2.000      CL =  0.2462
      Cm = -0.0994     CD =  0.01636   =>   CDf =  0.00562    CDp =  0.01074

 TRCHEK2: N2 convergence failed.
 x:  0.14186  0.15733  0.15733  N:  8.783  9.000  9.020  Nx:  15.310   dN: 0.198E-01
 TRCHEK2: N2 convergence failed.
 x:  0.14186  0.15638  0.15733  N:  8.783  9.000  9.002  Nx:  17.538   dN:-0.512E-01
 Side 1  free  transition at x/c =  0.8411   67
 Side 2  free  transition at x/c =  0.1332   26

   3   rms: 0.2415E+00   max: 0.1717E+01   D at   26  2   RLX: 0.874
       a = -2.000      CL =  0.2588
      Cm = -0.0991     CD =  0.01601   =>   CDf =  0.00609    CDp =  0.00993

 Side 1  free  transition at x/c =  0.8365   67
 Side 2  free  transition at x/c =  0.1149   25

   4   rms: 0.2112E+00   max: -.8381E+00   D at   25  2   RLX: 0.597
       a = -2.000      CL =  0.2604
      Cm = -0.0998     CD =  0.01852   =>   CDf =  0.00504    CDp =  0.01348

 Side 1  free  transition at x/c =  0.8368   67
 Side 2  free  transition at x/c =  0.1148   25

   5   rms: 0.2157E+00   max: -.8037E+00   D at   25  2   RLX: 0.622
       a = -2.000      CL =  0.2642
      Cm = -0.1002     CD =  0.01781   =>   CDf =  0.00517    CDp =  0.01265

 Side 1  free  transition at x/c =  0.8370   67
 Side 2  free  transition at x/c =  0.1155   25

   6   rms: 0.1755E+00   max: -.7171E+00   D at   25  2   RLX: 0.697
       a = -2.000      CL =  0.2648
      Cm = -0.1002     CD =  0.01656   =>   CDf =  0.00531    CDp =  0.01125

 Side 1  free  transition at x/c =  0.8370   67
 Side 2  free  transition at x/c =  0.1169   25

   7   rms: 0.1261E+00   max: -.5828E+00   D at   25  2   RLX: 0.858
       a = -2.000      CL =  0.2642
      Cm = -0.1000     CD =  0.01549   =>   CDf =  0.00545    CDp =  0.01004

 Side 1  free  transition at x/c =  0.8370   67
 Side 2  free  transition at x/c =  0.1190   25

   8   rms: 0.7236E-01   max: -.3753E+00   D at   25  2
       a = -2.000      CL =  0.2635
      Cm = -0.0997     CD =  0.01505   =>   CDf =  0.00563    CDp =  0.00942

 Side 1  free  transition at x/c =  0.8370   67
 Side 2  free  transition at x/c =  0.1215   25

   9   rms: 0.2693E-01   max: -.1529E+00   D at   25  2
       a = -2.000      CL =  0.2630
      Cm = -0.0996     CD =  0.01500   =>   CDf =  0.00577    CDp =  0.00923

 Side 1  free  transition at x/c =  0.8370   67
 Side 2  free  transition at x/c =  0.1227   25

  10   rms: 0.4422E-02   max: -.3073E-01   D at   25  2
       a = -2.000      CL =  0.2628
      Cm = -0.0996     CD =  0.01498   =>   CDf =  0.00583    CDp =  0.00915

 Side 1  free  transition at x/c =  0.8370   67
 Side 2  free  transition at x/c =  0.1229   25

  11   rms: 0.1406E-03   max: -.1033E-02   D at   25  2
       a = -2.000      CL =  0.2628
      Cm = -0.0996     CD =  0.01498   =>   CDf =  0.00584    CDp =  0.00914

 Side 1  free  transition at x/c =  0.8370   67
 Side 2  free  transition at x/c =  0.1229   25

  12   rms: 0.2229E-05   max: 0.1638E-04   T at   25  2
       a = -2.000      CL =  0.2628
      Cm = -0.0996     CD =  0.01498   =>   CDf =  0.00584    CDp =  0.00914
 plradd ia,ip,cpol            5           0  1.19011700E-02

 Point added to stored polar  1
 Point written to save file  goe613_Re400k.base.pol                          
 Dump file unspecified or not available
 Calculating wake trajectory ...
 Calculating source influence matrix ...

 Solving BL system ...

 Side 1  free  transition at x/c =  0.8370   67
 Side 2  free  transition at x/c =  0.1229   25

   1   rms: 0.1059E+00   max: -.1616E+01   T at   25  2   RLX: 0.309
       a = -1.500      CL =  0.2796
      Cm = -0.0993     CD =  0.01476   =>   CDf =  0.00585    CDp =  0.00891

 Side 1  free  transition at x/c =  0.8312   66
 Side 2  free  transition at x/c =  0.1287   25

   2   rms: 0.1747E+00   max: -.4946E+00   D at   31  2
       a = -1.500      CL =  0.3103
      Cm = -0.0972     CD =  0.01322   =>   CDf =  0.00582    CDp =  0.00740

 Side 1  free  transition at x/c =  0.8115   66
 Side 2  free  transition at x/c =  0.0762   21

   3   rms: 0.1860E+00   max: -.1793E+01   T at   21  2   RLX: 0.279
       a = -1.500      CL =  0.3115
      Cm = -0.0970     CD =  0.02057   =>   CDf =  0.00526    CDp =  0.01532

 Side 1  free  transition at x/c =  0.8131   66
 Side 2  free  transition at x/c =  0.0747   21

   4   rms: 0.2515E+00   max: 0.1656E+01   T at   21  2   RLX: 0.587
       a = -1.500      CL =  0.3220
      Cm = -0.0977     CD =  0.01813   =>   CDf =  0.00519    CDp =  0.01294

 Side 1  free  transition at x/c =  0.8159   66
 Side 2  free  transition at x/c =  0.0620   20

   5   rms: 0.1875E+00   max: -.3893E+01   T at   20  2   RLX: 0.128
       a = -1.500      CL =  0.3236
      Cm = -0.0977     CD =  0.01883   =>   CDf =  0.00565    CDp =  0.01318

 Side 1  free  transition at x/c =  0.8159   66
 Side 2  free  transition at x/c =  0.0645   20

   6   rms: 0.1912E+00   max: -.7797E+00   D at   20  2   RLX: 0.641
       a = -1.500      CL =  0.3261
      Cm = -0.0978     CD =  0.01678   =>   CDf =  0.00552    CDp =  0.01126

 Side 1  free  transition at x/c =  0.8170   66
 Side 2  free  transition at x/c =  0.0588   20

   7   rms: 0.2320E+00   max: -.1763E+01   T at   20  2   RLX: 0.284
       a = -1.500      CL =  0.3282
      Cm = -0.0978     CD =  0.01707   =>   CDf =  0.00590    CDp =  0.01117

 Side 1  free  transition at x/c =  0.8172   66
 Side 2  free  transition at x/c =  0.0611   20

   8   rms: 0.2186E+00   max: -.3870E+01   T at   20  2   RLX: 0.129
       a = -1.500      CL =  0.3265
      Cm = -0.0981     CD =  0.01785   =>   CDf =  0.00578    CDp =  0.01207

 Side 1  free  transition at x/c =  0.8172   66
 Side 2  free  transition at x/c =  0.0620   20

   9   rms: 0.1995E+00   max: -.8636E+00   D at   20  2   RLX: 0.579
       a = -1.500      CL =  0.3266
      Cm = -0.0980     CD =  0.01666   =>   CDf =  0.00556    CDp =  0.01110

 Side 1  free  transition at x/c =  0.8174   66
 Side 2  free  transition at x/c =  0.0583   20

  10   rms: 0.2623E+00   max: -.1502E+01   T at   20  2   RLX: 0.333
       a = -1.500      CL =  0.3276
      Cm = -0.0980     CD =  0.01739   =>   CDf =  0.00577    CDp =  0.01161

 Side 1  free  transition at x/c =  0.8176   66
 Side 2  free  transition at x/c =  0.0599   20

  11   rms: 0.2465E+00   max: -.2798E+01   T at   20  2   RLX: 0.179
       a = -1.500      CL =  0.3256
      Cm = -0.0983     CD =  0.01792   =>   CDf =  0.00570    CDp =  0.01221

 Side 1  free  transition at x/c =  0.8176   66
 Side 2  free  transition at x/c =  0.0608   20

  12   rms: 0.2199E+00   max: -.8927E+00   D at   20  2   RLX: 0.560
       a = -1.500      CL =  0.3264
      Cm = -0.0981     CD =  0.01692   =>   CDf =  0.00549    CDp =  0.01143

 Side 1  free  transition at x/c =  0.8177   66
 Side 2  free  transition at x/c =  0.0572   19

  13   rms: 0.4203E+00   max: -.1534E+01   T at   20  2   RLX: 0.326
       a = -1.500      CL =  0.3308
      Cm = -0.0985     CD =  0.02296   =>   CDf =  0.00545    CDp =  0.01751

 Side 1  free  transition at x/c =  0.8180   67
 Side 2  free  transition at x/c =  0.0571   19

  14   rms: 0.3539E+00   max: -.1258E+01   T at   20  2   RLX: 0.398
       a = -1.500      CL =  0.3285
      Cm = -0.0991     CD =  0.02036   =>   CDf =  0.00527    CDp =  0.01508

 Side 1  free  transition at x/c =  0.8180   67
 Side 2  free  transition at x/c =  0.0568   19

  15   rms: 0.3075E+00   max: -.1058E+01   T at   20  2   RLX: 0.473
       a = -1.500      CL =  0.3265
      Cm = -0.0990     CD =  0.01818   =>   CDf =  0.00529    CDp =  0.01289

 Side 1  free  transition at x/c =  0.8180   67
 Side 2  free  transition at x/c =  0.0564   19

  16   rms: 0.2639E+00   max: -.9142E+00   D at   20  2   RLX: 0.547
       a = -1.500      CL =  0.3261
      Cm = -0.0985     CD =  0.01650   =>   CDf =  0.00547    CDp =  0.01103

 Side 1  free  transition at x/c =  0.8179   67
 Side 2  free  transition at x/c =  0.0555   19

  17   rms: 0.2136E+00   max: -.8738E+00   D at   20  2   RLX: 0.572
       a = -1.500      CL =  0.3264
      Cm = -0.0978     CD =  0.01493   =>   CDf =  0.00585    CDp =  0.00908

 Side 1  free  transition at x/c =  0.8180   67
 Side 2  free  transition at x/c =  0.0543   19

  18   rms: 0.1665E+00   max: -.8135E+00   D at   20  2   RLX: 0.615
       a = -1.500      CL =  0.3270
      Cm = -0.0973     CD =  0.01337   =>   CDf =  0.00623    CDp =  0.00714

 Side 1  free  transition at x/c =  0.8182   67
 Side 2  free  transition at x/c =  0.0532   19

  19   rms: 0.1161E+00   max: -.7244E+00   D at   20  2   RLX: 0.690
       a = -1.500      CL =  0.3266
      Cm = -0.0970     CD =  0.01217   =>   CDf =  0.00651    CDp =  0.00566

 Side 1  free  transition at x/c =  0.8185   67
 Side 2  free  transition at x/c =  0.0524   19

  20   rms: 0.5209E-01   max: -.4941E+00   D at   20  2
       a = -1.500      CL =  0.3244
      Cm = -0.0969     CD =  0.01138   =>   CDf =  0.00666    CDp =  0.00472

 Side 1  free  transition at x/c =  0.8186   67
 Side 2  free  transition at x/c =  0.0522   19

  21   rms: 0.1372E-01   max: 0.1448E+00   D at   20  2
       a = -1.500      CL =  0.3238
      Cm = -0.0968     CD =  0.01137   =>   CDf =  0.00666    CDp =  0.00471

 Side 1  free  transition at x/c =  0.8186   67
 Side 2  free  transition at x/c =  0.0523   19

  22   rms: 0.1055E-02   max: 0.7717E-02   D at   20  2
       a = -1.500      CL =  0.3238
      Cm = -0.0968     CD =  0.01137   =>   CDf =  0.00666    CDp =  0.00471

 Side 1  free  transition at x/c =  0.8186   67
 Side 2  free  transition at x/c =  0.0523   19

  23   rms: 0.3199E-05   max: 0.3549E-04   D at   20  2
       a = -1.500      CL =  0.3238
      Cm = -0.0968     CD =  0.01137   =>   CDf =  0.00666    CDp =  0.00471
 plradd ia,ip,cpol            6           0  1.19011700E-02

 Point added to stored polar  1
 Point written to save file  goe613_Re400k.base.pol                          
 Dump file unspecified or not available
 Calculating wake trajectory ...
 Calculating source influence matrix ...

 Solving BL system ...

 Side 1  free  transition at x/c =  0.8186   67
 Side 2  free  transition at x/c =  0.0523   19

   1   rms: 0.1135E+00   max: -.3383E+00   D at   22  2
       a = -1.000      CL =  0.3804
[...]

 MRCHDU: Convergence failed at  88  side 1    Res =  0.3248E-03
 MRCHDU: Convergence failed at  90  side 1    Res =  0.1197E+02
 Side 1  free  transition at x/c =  0.0154   21
 Side 2 forced transition at x/c =  1.0000   70

 108   rms: 0.6965E+07   max: -.1091E+09   C at   91  1   RLX: 0.000
       a = 16.000      CL =  2.3133
      Cm = -0.4502     CD =  0.49404   =>   CDf =  0.00365    CDp =  0.49040

 MRCHDU: Convergence failed at  88  side 1    Res =  0.2562E-03
 MRCHDU: Convergence failed at  90  side 1    Res =  0.1202E+02
 Side 1  free  transition at x/c =  0.0154   21
 Side 2 forced transition at x/c =  1.0000   70

 109   rms: 0.5312E+07   max: -.8316E+08   C at   92  1   RLX: 0.000
       a = 16.000      CL =  2.3133
      Cm = -0.4502     CD =  0.49405   =>   CDf =  0.00365    CDp =  0.49040

 MRCHDU: Convergence failed at  88  side 1    Res =  0.3602E-03
 MRCHDU: Convergence failed at  89  side 1    Res =  0.1543E-04
 MRCHDU: Convergence failed at  90  side 1    Res =  0.1207E+02
 Side 1  free  transition at x/c =  0.0154   21
 Side 2 forced transition at x/c =  1.0000   70

 110   rms: 0.5991E+07   max: -.9379E+08   C at   91  1   RLX: 0.000
       a = 16.000      CL =  2.3133
      Cm = -0.4502     CD =  0.49404   =>   CDf =  0.00365    CDp =  0.49040

 MRCHDU: Convergence failed at  88  side 1    Res =  0.3411E-03
 MRCHDU: Convergence failed at  90  side 1    Res =  0.1212E+02
 Side 1  free  transition at x/c =  0.0154   21
 Side 2 forced transition at x/c =  1.0000   70

 111   rms: 0.6345E+07   max: -.9934E+08   C at   92  1   RLX: 0.000
       a = 16.000      CL =  2.3133
      Cm = -0.4502     CD =  0.49404   =>   CDf =  0.00365    CDp =  0.49040

 MRCHDU: Convergence failed at  88  side 1    Res =  0.3116E-03
 MRCHDU: Convergence failed at  90  side 1    Res =  0.1217E+02
 Side 1  free  transition at x/c =  0.0154   21
 Side 2 forced transition at x/c =  1.0000   70

 112   rms: 0.5785E+07   max: -.9058E+08   C at   92  1   RLX: 0.000
       a = 16.000      CL =  2.3133
      Cm = -0.4502     CD =  0.49404   =>   CDf =  0.00365    CDp =  0.49040

 MRCHDU: Convergence failed at  88  side 1    Res =  0.2468E-03
 MRCHDU: Convergence failed at  90  side 1    Res =  0.1222E+02
 Side 1  free  transition at x/c =  0.0154   21
 Side 2 forced transition at x/c =  1.0000   70

 113   rms: 0.5814E+07   max: -.9103E+08   C at   92  1   RLX: 0.000
       a = 16.000      CL =  2.3133
      Cm = -0.4502     CD =  0.49405   =>   CDf =  0.00365    CDp =  0.49040

 MRCHDU: Convergence failed at  88  side 1    Res =  0.3643E-03
 MRCHDU: Convergence failed at  90  side 1    Res =  0.1227E+02
 Side 1  free  transition at x/c =  0.0154   21
 Side 2 forced transition at x/c =  1.0000   70

 114   rms: 0.6075E+07   max: -.9512E+08   C at   91  1   RLX: 0.000
       a = 16.000      CL =  2.3133
      Cm = -0.4502     CD =  0.49404   =>   CDf =  0.00365    CDp =  0.49040

 MRCHDU: Convergence failed at  88  side 1    Res =  0.3058E-03
 MRCHDU: Convergence failed at  90  side 1    Res =  0.1232E+02
 Side 1  free  transition at x/c =  0.0154   21
 Side 2 forced transition at x/c =  1.0000   70

 115   rms: 0.6779E+07   max: -.1061E+09   C at   90  1   RLX: 0.000
       a = 16.000      CL =  2.3133
      Cm = -0.4502     CD =  0.49405   =>   CDf =  0.00365    CDp =  0.49040

 MRCHDU: Convergence failed at  88  side 1    Res =  0.2614E-03
 MRCHDU: Convergence failed at  89  side 1    Res =  0.1550E-04
 MRCHDU: Convergence failed at  90  side 1    Res =  0.1237E+02
 Side 1  free  transition at x/c =  0.0154   21
 Side 2 forced transition at x/c =  1.0000   70

 116   rms: 0.7208E+07   max: -.1128E+09   C at   91  1   RLX: 0.000
       a = 16.000      CL =  2.3133
      Cm = -0.4502     CD =  0.49405   =>   CDf =  0.00365    CDp =  0.49040

 MRCHDU: Convergence failed at  88  side 1    Res =  0.3334E-03
 MRCHDU: Convergence failed at  90  side 1    Res =  0.1242E+02
 Side 1  free  transition at x/c =  0.0154   21
 Side 2 forced transition at x/c =  1.0000   70

 117   rms: 0.5115E+07   max: -.8009E+08   C at   91  1   RLX: 0.000
       a = 16.000      CL =  2.3133
      Cm = -0.4502     CD =  0.49404   =>   CDf =  0.00365    CDp =  0.49040

 MRCHDU: Convergence failed at  88  side 1    Res =  0.3262E-03
 MRCHDU: Convergence failed at  90  side 1    Res =  0.1247E+02
 Side 1  free  transition at x/c =  0.0154   21
 Side 2 forced transition at x/c =  1.0000   70

 118   rms: 0.7131E+07   max: -.1117E+09   C at   90  1   RLX: 0.000
       a = 16.000      CL =  2.3133
      Cm = -0.4502     CD =  0.49404   =>   CDf =  0.00365    CDp =  0.49040

 MRCHDU: Convergence failed at  88  side 1    Res =  0.2244E-03
 MRCHDU: Convergence failed at  90  side 1    Res =  0.1252E+02
 Side 1  free  transition at x/c =  0.0154   21
 Side 2 forced transition at x/c =  1.0000   70

 119   rms: 0.7097E+07   max: -.1111E+09   C at   91  1   RLX: 0.000
       a = 16.000      CL =  2.3133
      Cm = -0.4502     CD =  0.49405   =>   CDf =  0.00365    CDp =  0.49041

 MRCHDU: Convergence failed at  88  side 1    Res =  0.1732E-03
 MRCHDU: Convergence failed at  90  side 1    Res =  0.1257E+02
 Side 1  free  transition at x/c =  0.0154   21
 Side 2 forced transition at x/c =  1.0000   70

 120   rms: 0.6810E+07   max: -.1066E+09   C at   92  1   RLX: 0.000
       a = 16.000      CL =  2.3133
      Cm = -0.4502     CD =  0.49406   =>   CDf =  0.00365    CDp =  0.49041

 MRCHDU: Convergence failed at  88  side 1    Res =  0.2794E-03
 MRCHDU: Convergence failed at  90  side 1    Res =  0.1263E+02
 Side 1  free  transition at x/c =  0.0154   21
 Side 2 forced transition at x/c =  1.0000   70

 121   rms: 0.6552E+07   max: -.1026E+09   C at   92  1   RLX: 0.000
       a = 16.000      CL =  2.3133
      Cm = -0.4502     CD =  0.49405   =>   CDf =  0.00365    CDp =  0.49040

 MRCHDU: Convergence failed at  88  side 1    Res =  0.3171E-03
 MRCHDU: Convergence failed at  90  side 1    Res =  0.1268E+02
 Side 1  free  transition at x/c =  0.0154   21
 Side 2 forced transition at x/c =  1.0000   70

 122   rms: 0.5887E+07   max: -.9218E+08   C at   91  1   RLX: 0.000
       a = 16.000      CL =  2.3133
      Cm = -0.4502     CD =  0.49405   =>   CDf =  0.00365    CDp =  0.49040

 MRCHDU: Convergence failed at  88  side 1    Res =  0.3827E-03
 MRCHDU: Convergence failed at  90  side 1    Res =  0.1274E+02
 Side 1  free  transition at x/c =  0.0154   21
 Side 2 forced transition at x/c =  1.0000   70

 123   rms: 0.7361E+07   max: -.1153E+09   C at   92  1   RLX: 0.000
       a = 16.000      CL =  2.3133
      Cm = -0.4502     CD =  0.49404   =>   CDf =  0.00365    CDp =  0.49040

 MRCHDU: Convergence failed at  88  side 1    Res =  0.4056E-03
 MRCHDU: Convergence failed at  90  side 1    Res =  0.1279E+02
 Side 1  free  transition at x/c =  0.0154   21
 Side 2 forced transition at x/c =  1.0000   70

 124   rms: 0.7257E+07   max: -.1136E+09   C at   90  1   RLX: 0.000
       a = 16.000      CL =  2.3133
      Cm = -0.4502     CD =  0.49404   =>   CDf =  0.00365    CDp =  0.49039

 MRCHDU: Convergence failed at  88  side 1    Res =  0.2695E-03
 MRCHDU: Convergence failed at  90  side 1    Res =  0.1284E+02
 Side 1  free  transition at x/c =  0.0154   21
 Side 2 forced transition at x/c =  1.0000   70

 125   rms: 0.6556E+07   max: -.1027E+09   C at   90  1   RLX: 0.000
       a = 16.000      CL =  2.3133
      Cm = -0.4502     CD =  0.49405   =>   CDf =  0.00365    CDp =  0.49040

 MRCHDU: Convergence failed at  88  side 1    Res =  0.3745E-03
 MRCHDU: Convergence failed at  90  side 1    Res =  0.1289E+02
 Side 1  free  transition at x/c =  0.0154   21
 Side 2 forced transition at x/c =  1.0000   70

 126   rms: 0.7299E+07   max: -.1143E+09   C at   91  1   RLX: 0.000
       a = 16.000      CL =  2.3133
      Cm = -0.4502     CD =  0.49404   =>   CDf =  0.00365    CDp =  0.49040

 MRCHDU: Convergence failed at  88  side 1    Res =  0.2823E-03
 MRCHDU: Convergence failed at  90  side 1    Res =  0.1294E+02
 Side 1  free  transition at x/c =  0.0154   21
 Side 2 forced transition at x/c =  1.0000   70

 127   rms: 0.7488E+07   max: -.1172E+09   C at   92  1   RLX: 0.000
       a = 16.000      CL =  2.3133
      Cm = -0.4502     CD =  0.49405   =>   CDf =  0.00365    CDp =  0.49040

 MRCHDU: Convergence failed at  88  side 1    Res =  0.3900E-03
 MRCHDU: Convergence failed at  90  side 1    Res =  0.1299E+02
 Side 1  free  transition at x/c =  0.0154   21
 Side 2 forced transition at x/c =  1.0000   70

 128   rms: 0.7066E+07   max: -.1106E+09   C at   92  1   RLX: 0.000
       a = 16.000      CL =  2.3133
      Cm = -0.4502     CD =  0.49404   =>   CDf =  0.00365    CDp =  0.49039

 MRCHDU: Convergence failed at  88  side 1    Res =  0.2791E-03
 MRCHDU: Convergence failed at  90  side 1    Res =  0.1304E+02
 Side 1  free  transition at x/c =  0.0154   21
 Side 2 forced transition at x/c =  1.0000   70

 129   rms: 0.8102E+07   max: -.1269E+09   C at   91  1   RLX: 0.000
       a = 16.000      CL =  2.3133
      Cm = -0.4502     CD =  0.49405   =>   CDf =  0.00365    CDp =  0.49040

 MRCHDU: Convergence failed at  88  side 1    Res =  0.3563E-03
 MRCHDU: Convergence failed at  90  side 1    Res =  0.1309E+02
 Side 1  free  transition at x/c =  0.0154   21
 Side 2 forced transition at x/c =  1.0000   70

 130   rms: 0.7036E+07   max: -.1102E+09   C at   92  1   RLX: 0.000
       a = 16.000      CL =  2.3133
      Cm = -0.4502     CD =  0.49404   =>   CDf =  0.00365    CDp =  0.49040

 MRCHDU: Convergence failed at  88  side 1    Res =  0.3354E-03
 MRCHDU: Convergence failed at  90  side 1    Res =  0.1315E+02
 Side 1  free  transition at x/c =  0.0154   21
 Side 2 forced transition at x/c =  1.0000   70

 131   rms: 0.7058E+07   max: -.1105E+09   C at   92  1   RLX: 0.000
       a = 16.000      CL =  2.3133
      Cm = -0.4502     CD =  0.49404   =>   CDf =  0.00365    CDp =  0.49040

 MRCHDU: Convergence failed at  88  side 1    Res =  0.2985E-03
 MRCHDU: Convergence failed at  90  side 1    Res =  0.1319E+02
 Side 1  free  transition at x/c =  0.0154   21
 Side 2 forced transition at x/c =  1.0000   70

 132   rms: 0.7943E+07   max: -.1244E+09   C at   91  1   RLX: 0.000
       a = 16.000      CL =  2.3133
      Cm = -0.4502     CD =  0.49405   =>   CDf =  0.00365    CDp =  0.49040

 MRCHDU: Convergence failed at  88  side 1    Res =  0.2094E-03
 MRCHDU: Convergence failed at  90  side 1    Res =  0.1324E+02
 Side 1  free  transition at x/c =  0.0154   21
 Side 2 forced transition at x/c =  1.0000   70

 133   rms: 0.6689E+07   max: -.1047E+09   C at   90  1   RLX: 0.000
       a = 16.000      CL =  2.3133
      Cm = -0.4502     CD =  0.49405   =>   CDf =  0.00365    CDp =  0.49041

 MRCHDU: Convergence failed at  88  side 1    Res =  0.3061E-03
 MRCHDU: Convergence failed at  90  side 1    Res =  0.1329E+02
 Side 1  free  transition at x/c =  0.0154   21
 Side 2 forced transition at x/c =  1.0000   70

 134   rms: 0.7636E+07   max: -.1196E+09   C at   90  1   RLX: 0.000
       a = 16.000      CL =  2.3133
      Cm = -0.4502     CD =  0.49405   =>   CDf =  0.00365    CDp =  0.49040

 MRCHDU: Convergence failed at  88  side 1    Res =  0.2369E-03
 MRCHDU: Convergence failed at  90  side 1    Res =  0.1334E+02
 Side 1  free  transition at x/c =  0.0154   21
 Side 2 forced transition at x/c =  1.0000   70

 135   rms: 0.6640E+07   max: -.1040E+09   C at   90  1   RLX: 0.000
       a = 16.000      CL =  2.3133
      Cm = -0.4502     CD =  0.49405   =>   CDf =  0.00365    CDp =  0.49041

 MRCHDU: Convergence failed at  88  side 1    Res =  0.3414E-03
 MRCHDU: Convergence failed at  90  side 1    Res =  0.1339E+02
 Side 1  free  transition at x/c =  0.0154   21
 Side 2 forced transition at x/c =  1.0000   70

 136   rms: 0.7834E+07   max: -.1227E+09   C at   91  1   RLX: 0.000
       a = 16.000      CL =  2.3133
      Cm = -0.4502     CD =  0.49404   =>   CDf =  0.00365    CDp =  0.49040

 MRCHDU: Convergence failed at  88  side 1    Res =  0.3236E-03
 MRCHDU: Convergence failed at  90  side 1    Res =  0.1344E+02
 Side 1  free  transition at x/c =  0.0154   21
 Side 2 forced transition at x/c =  1.0000   70

 137   rms: 0.8464E+07   max: -.1325E+09   C at   91  1   RLX: 0.000
       a = 16.000      CL =  2.3133
      Cm = -0.4502     CD =  0.49404   =>   CDf =  0.00365    CDp =  0.49040

 MRCHDU: Convergence failed at  88  side 1    Res =  0.2170E-03
 MRCHDU: Convergence failed at  89  side 1    Res =  0.2039E-04
 MRCHDU: Convergence failed at  90  side 1    Res =  0.1348E+02
 Side 1  free  transition at x/c =  0.0154   21
 Side 2 forced transition at x/c =  1.0000   70

 138   rms: 0.6663E+07   max: -.1043E+09   C at   91  1   RLX: 0.000
       a = 16.000      CL =  2.3133
      Cm = -0.4502     CD =  0.49405   =>   CDf =  0.00365    CDp =  0.49041

 MRCHDU: Convergence failed at  88  side 1    Res =  0.2857E-03
 MRCHDU: Convergence failed at  90  side 1    Res =  0.1354E+02
 Side 1  free  transition at x/c =  0.0154   21
 Side 2 forced transition at x/c =  1.0000   70

 139   rms: 0.6959E+07   max: -.1090E+09   C at   92  1   RLX: 0.000
       a = 16.000      CL =  2.3133
      Cm = -0.4502     CD =  0.49405   =>   CDf =  0.00365    CDp =  0.49040

 MRCHDU: Convergence failed at  88  side 1    Res =  0.3123E-03
 MRCHDU: Convergence failed at  90  side 1    Res =  0.1360E+02
 Side 1  free  transition at x/c =  0.0154   21
 Side 2 forced transition at x/c =  1.0000   70

 140   rms: 0.8166E+07   max: -.1279E+09   C at   90  1   RLX: 0.000
       a = 16.000      CL =  2.3133
      Cm = -0.4502     CD =  0.49405   =>   CDf =  0.00365    CDp =  0.49040

 MRCHDU: Convergence failed at  88  side 1    Res =  0.2668E-03
 MRCHDU: Convergence failed at  90  side 1    Res =  0.1366E+02
 Side 1  free  transition at x/c =  0.0154   21
 Side 2 forced transition at x/c =  1.0000   70

 141   rms: 0.7806E+07   max: -.1222E+09   C at   90  1   RLX: 0.000
       a = 16.000      CL =  2.3133
      Cm = -0.4502     CD =  0.49405   =>   CDf =  0.00365    CDp =  0.49040

 MRCHDU: Convergence failed at  88  side 1    Res =  0.3884E-03
 MRCHDU: Convergence failed at  90  side 1    Res =  0.1371E+02
 Side 1  free  transition at x/c =  0.0154   21
 Side 2 forced transition at x/c =  1.0000   70

 142   rms: 0.7957E+07   max: -.1246E+09   C at   91  1   RLX: 0.000
       a = 16.000      CL =  2.3133
      Cm = -0.4502     CD =  0.49404   =>   CDf =  0.00365    CDp =  0.49039

 MRCHDU: Convergence failed at  88  side 1    Res =  0.2654E-03
 MRCHDU: Convergence failed at  90  side 1    Res =  0.1375E+02
 Side 1  free  transition at x/c =  0.0154   21
 Side 2 forced transition at x/c =  1.0000   70

 143   rms: 0.7214E+07   max: -.1130E+09   C at   92  1   RLX: 0.000
       a = 16.000      CL =  2.3133
      Cm = -0.4502     CD =  0.49405   =>   CDf =  0.00365    CDp =  0.49040

 MRCHDU: Convergence failed at  88  side 1    Res =  0.3865E-03
 MRCHDU: Convergence failed at  90  side 1    Res =  0.1380E+02
 Side 1  free  transition at x/c =  0.0154   21
 Side 2 forced transition at x/c =  1.0000   70

 144   rms: 0.8382E+07   max: -.1312E+09   C at   90  1   RLX: 0.000
       a = 16.000      CL =  2.3133
      Cm = -0.4502     CD =  0.49404   =>   CDf =  0.00365    CDp =  0.49039

 MRCHDU: Convergence failed at  88  side 1    Res =  0.2631E-03
 MRCHDU: Convergence failed at  90  side 1    Res =  0.1385E+02
 Side 1  free  transition at x/c =  0.0154   21
 Side 2 forced transition at x/c =  1.0000   70

 145   rms: 0.7230E+07   max: -.1132E+09   C at   90  1   RLX: 0.000
       a = 16.000      CL =  2.3133
      Cm = -0.4502     CD =  0.49405   =>   CDf =  0.00365    CDp =  0.49040

 MRCHDU: Convergence failed at  88  side 1    Res =  0.3822E-03
 MRCHDU: Convergence failed at  90  side 1    Res =  0.1390E+02
 Side 1  free  transition at x/c =  0.0154   21
 Side 2 forced transition at x/c =  1.0000   70

 146   rms: 0.8103E+07   max: -.1269E+09   C at   90  1   RLX: 0.000
       a = 16.000      CL =  2.3133
      Cm = -0.4502     CD =  0.49404   =>   CDf =  0.00365    CDp =  0.49039

 MRCHDU: Convergence failed at  88  side 1    Res =  0.3830E-03
 MRCHDU: Convergence failed at  90  side 1    Res =  0.1395E+02
 Side 1  free  transition at x/c =  0.0154   21
 Side 2 forced transition at x/c =  1.0000   70

 147   rms: 0.7772E+07   max: -.1217E+09   C at   92  1   RLX: 0.000
       a = 16.000      CL =  2.3133
      Cm = -0.4502     CD =  0.49404   =>   CDf =  0.00365    CDp =  0.49039

 MRCHDU: Convergence failed at  88  side 1    Res =  0.3596E-03
 MRCHDU: Convergence failed at  90  side 1    Res =  0.1399E+02
 Side 1  free  transition at x/c =  0.0154   21
 Side 2 forced transition at x/c =  1.0000   70

 148   rms: 0.9053E+07   max: -.1418E+09   C at   90  1   RLX: 0.000
       a = 16.000      CL =  2.3133
      Cm = -0.4502     CD =  0.49404   =>   CDf =  0.00365    CDp =  0.49040

 MRCHDU: Convergence failed at  88  side 1    Res =  0.3656E-03
 MRCHDU: Convergence failed at  90  side 1    Res =  0.1406E+02
 Side 1  free  transition at x/c =  0.0154   21
 Side 2 forced transition at x/c =  1.0000   70

 149   rms: 0.7620E+07   max: -.1193E+09   C at   92  1   RLX: 0.000
       a = 16.000      CL =  2.3133
      Cm = -0.4502     CD =  0.49404   =>   CDf =  0.00365    CDp =  0.49040

 MRCHDU: Convergence failed at  88  side 1    Res =  0.3863E-03
 MRCHDU: Convergence failed at  90  side 1    Res =  0.1410E+02
 Side 1  free  transition at x/c =  0.0154   21
 Side 2 forced transition at x/c =  1.0000   70

 150   rms: 0.8681E+07   max: -.1359E+09   C at   90  1   RLX: 0.000
       a = 16.000      CL =  2.3133
      Cm = -0.4502     CD =  0.49404   =>   CDf =  0.00365    CDp =  0.49039

 MRCHDU: Convergence failed at  88  side 1    Res =  0.3980E-03
 MRCHDU: Convergence failed at  90  side 1    Res =  0.1416E+02
 Side 1  free  transition at x/c =  0.0154   21
 Side 2 forced transition at x/c =  1.0000   70

 151   rms: 0.8747E+07   max: -.1370E+09   C at   92  1   RLX: 0.000
       a = 16.000      CL =  2.3133
      Cm = -0.4502     CD =  0.49404   =>   CDf =  0.00365    CDp =  0.49039

 MRCHDU: Convergence failed at  88  side 1    Res =  0.3586E-03
 MRCHDU: Convergence failed at  90  side 1    Res =  0.1421E+02
 Side 1  free  transition at x/c =  0.0154   21
 Side 2 forced transition at x/c =  1.0000   70

 152   rms: 0.8112E+07   max: -.1270E+09   C at   90  1   RLX: 0.000
       a = 16.000      CL =  2.3133
      Cm = -0.4502     CD =  0.49404   =>   CDf =  0.00365    CDp =  0.49040

 MRCHDU: Convergence failed at  88  side 1    Res =  0.3950E-03
 MRCHDU: Convergence failed at  90  side 1    Res =  0.1426E+02
 Side 1  free  transition at x/c =  0.0154   21
 Side 2 forced transition at x/c =  1.0000   70

 153   rms: 0.7801E+07   max: -.1222E+09   C at   92  1   RLX: 0.000
       a = 16.000      CL =  2.3133
      Cm = -0.4502     CD =  0.49404   =>   CDf =  0.00365    CDp =  0.49039

 MRCHDU: Convergence failed at  88  side 1    Res =  0.3782E-03
 MRCHDU: Convergence failed at  89  side 1    Res =  0.3704E-04
 MRCHDU: Convergence failed at  90  side 1    Res =  0.1431E+02
 Side 1  free  transition at x/c =  0.0154   21
 Side 2 forced transition at x/c =  1.0000   70

 154   rms: 0.9475E+07   max: -.1484E+09   C at   90  1   RLX: 0.000
       a = 16.000      CL =  2.3133
      Cm = -0.4502     CD =  0.49404   =>   CDf =  0.00365    CDp =  0.49039

 MRCHDU: Convergence failed at  88  side 1    Res =  0.3791E-03
 MRCHDU: Convergence failed at  90  side 1    Res =  0.1436E+02
 Side 1  free  transition at x/c =  0.0154   21
 Side 2 forced transition at x/c =  1.0000   70

 155   rms: 0.8437E+07   max: -.1321E+09   C at   92  1   RLX: 0.000
       a = 16.000      CL =  2.3133
      Cm = -0.4502     CD =  0.49404   =>   CDf =  0.00365    CDp =  0.49039
 VISCAL:  Convergence failed

.OPERva   c>  
 Polar accumulation disabled

.OPERv   c>  
 XFOIL   c>  
 XFOIL   c>  