  
       XFOIL         Version 6.99
  
 Calculated polar for: GOE 612 AIRFOIL                                 
  
 1 1 Reynolds number fixed          Mach number fixed         
  
 xtrf =   1.000 (top)        1.000 (bottom)  
 Mach =   0.000     Re =     0.500 e 6     Ncrit =   9.000
  
   alpha    CL        CD       CDp       CM     Top_Xtr  Bot_Xtr
  ------ -------- --------- --------- -------- -------- --------
-4.000   0.1065   0.01093   0.00400  -0.1130   0.7295   0.0679
-3.500   0.1592   0.01054   0.00365  -0.1121   0.7179   0.0927
-3.000   0.2115   0.01021   0.00342  -0.1112   0.7064   0.1267
-2.500   0.2651   0.01001   0.00325  -0.1105   0.6963   0.1534
-2.000   0.3178   0.00976   0.00310  -0.1097   0.6851   0.1966
-1.500   0.3700   0.00952   0.00305  -0.1088   0.6738   0.2595
-1.000   0.4239   0.00945   0.00305  -0.1081   0.6639   0.3151
-0.500   0.4764   0.00935   0.00307  -0.1072   0.6534   0.3602
0.000   0.5302   0.00935   0.00309  -0.1065   0.6439   0.3966
0.500   0.5823   0.00928   0.00311  -0.1055   0.6327   0.4301
1.000   0.6340   0.00924   0.00315  -0.1044   0.6210   0.4682
1.500   0.6843   0.00916   0.00319  -0.1030   0.6088   0.5255
2.000   0.7202   0.00834   0.00333  -0.0985   0.5946   0.8262
3.000   0.9071   0.00867   0.00366  -0.1145   0.5486   1.0000
3.500   0.9463   0.00899   0.00381  -0.1110   0.5153   1.0000
4.000   0.9759   0.00958   0.00410  -0.1057   0.4607   1.0000
4.500   0.9967   0.01048   0.00463  -0.0990   0.3995   1.0000
5.000   1.0190   0.01126   0.00517  -0.0925   0.3641   1.0000
5.500   1.0464   0.01192   0.00570  -0.0872   0.3442   1.0000
6.000   1.0782   0.01257   0.00627  -0.0828   0.3290   1.0000
6.500   1.1111   0.01328   0.00691  -0.0790   0.3161   1.0000
7.000   1.1450   0.01402   0.00760  -0.0754   0.3044   1.0000
7.500   1.1819   0.01470   0.00830  -0.0725   0.2945   1.0000
8.000   1.2140   0.01564   0.00918  -0.0691   0.2841   1.0000
8.500   1.2523   0.01634   0.00993  -0.0667   0.2747   1.0000
9.000   1.2851   0.01734   0.01093  -0.0637   0.2649   1.0000
9.500   1.3190   0.01834   0.01194  -0.0611   0.2542   1.0000
10.000   1.3520   0.01944   0.01308  -0.0585   0.2432   1.0000
10.250   1.3664   0.02012   0.01375  -0.0571   0.2375   1.0000
10.500   1.3812   0.02081   0.01445  -0.0557   0.2320   1.0000
10.750   1.3972   0.02145   0.01512  -0.0546   0.2256   1.0000
11.000   1.4086   0.02237   0.01601  -0.0530   0.2192   1.0000
11.250   1.4242   0.02307   0.01675  -0.0519   0.2124   1.0000
11.500   1.4354   0.02407   0.01772  -0.0505   0.2053   1.0000
11.750   1.4485   0.02497   0.01864  -0.0493   0.1987   1.0000
12.000   1.4594   0.02604   0.01970  -0.0479   0.1918   1.0000
12.250   1.4702   0.02714   0.02081  -0.0467   0.1856   1.0000
12.500   1.4813   0.02826   0.02194  -0.0455   0.1794   1.0000
12.750   1.4881   0.02971   0.02336  -0.0441   0.1738   1.0000
13.000   1.5009   0.03076   0.02446  -0.0432   0.1683   1.0000
13.250   1.5095   0.03215   0.02585  -0.0420   0.1637   1.0000
13.500   1.5165   0.03368   0.02739  -0.0409   0.1592   1.0000
13.750   1.5281   0.03488   0.02865  -0.0400   0.1554   1.0000
14.000   1.5368   0.03633   0.03013  -0.0391   0.1516   1.0000
14.250   1.5424   0.03807   0.03187  -0.0380   0.1480   1.0000
14.500   1.5500   0.03966   0.03350  -0.0371   0.1453   1.0000
14.750   1.5611   0.04098   0.03490  -0.0365   0.1424   1.0000
15.000   1.5689   0.04260   0.03657  -0.0357   0.1393   1.0000
15.250   1.5742   0.04447   0.03845  -0.0349   0.1362   1.0000
15.500   1.5765   0.04663   0.04062  -0.0341   0.1333   1.0000
15.750   1.5869   0.04808   0.04217  -0.0336   0.1310   1.0000
16.000   1.5948   0.04980   0.04396  -0.0331   0.1287   1.0000
16.250   1.6007   0.05171   0.04593  -0.0326   0.1261   1.0000
16.500   1.6036   0.05396   0.04822  -0.0321   0.1235   1.0000
17.000   1.6116   0.05834   0.05272  -0.0313   0.1181   1.0000
17.250   1.6171   0.06042   0.05489  -0.0311   0.1156   1.0000
17.500   1.6191   0.06291   0.05742  -0.0309   0.1126   1.0000
17.750   1.6158   0.06602   0.06056  -0.0307   0.1092   1.0000
18.000   1.6194   0.06841   0.06304  -0.0307   0.1058   1.0000
18.250   1.6204   0.07116   0.06585  -0.0307   0.1018   1.0000
18.750   1.6132   0.07784   0.07265  -0.0311   0.0930   1.0000
19.250   1.5946   0.08623   0.08111  -0.0322   0.0788   1.0000
19.750   1.5508   0.09837   0.09325  -0.0348   0.0588   1.0000
20.250   1.4938   0.11312   0.10806  -0.0390   0.0422   1.0000
21.250   1.4012   0.14128   0.13650  -0.0503   0.0263   1.0000
21.750   1.3684   0.15393   0.14930  -0.0565   0.0235   1.0000
22.250   1.3452   0.16527   0.16081  -0.0626   0.0219   1.0000
