  
       XFOIL         Version 6.99
  
 Calculated polar for: GOE 612 AIRFOIL                                 
  
 1 1 Reynolds number fixed          Mach number fixed         
  
 xtrf =   1.000 (top)        1.000 (bottom)  
 Mach =   0.000     Re =     0.200 e 6     Ncrit =   9.000
  
   alpha    CL        CD       CDp       CM     Top_Xtr  Bot_Xtr
  ------ -------- --------- --------- -------- -------- --------
-4.000   0.1063   0.01685   0.00901  -0.1171   0.8073   0.1031
-3.500   0.1524   0.01612   0.00837  -0.1152   0.7955   0.1306
-3.000   0.2056   0.01534   0.00774  -0.1145   0.7857   0.1769
-2.500   0.2589   0.01481   0.00734  -0.1136   0.7735   0.2259
-2.000   0.3082   0.01457   0.00727  -0.1120   0.7606   0.2887
-1.500   0.3614   0.01443   0.00722  -0.1110   0.7486   0.3538
-1.000   0.4185   0.01423   0.00700  -0.1105   0.7365   0.4067
-0.500   0.4666   0.01419   0.00704  -0.1087   0.7234   0.4469
0.000   0.5182   0.01412   0.00703  -0.1075   0.7118   0.4911
0.500   0.5739   0.01384   0.00685  -0.1069   0.7010   0.5466
1.000   0.6152   0.01328   0.00695  -0.1036   0.6872   0.6803
1.500   0.7560   0.01283   0.00686  -0.1204   0.6722   1.0000
2.000   0.8033   0.01298   0.00684  -0.1184   0.6570   1.0000
2.500   0.8503   0.01311   0.00682  -0.1162   0.6409   1.0000
3.000   0.8950   0.01321   0.00681  -0.1136   0.6219   1.0000
3.500   0.9376   0.01331   0.00681  -0.1106   0.6002   1.0000
4.000   0.9794   0.01341   0.00676  -0.1073   0.5743   1.0000
4.500   1.0140   0.01362   0.00685  -0.1028   0.5396   1.0000
5.000   1.0424   0.01405   0.00706  -0.0973   0.4946   1.0000
5.500   1.0670   0.01479   0.00748  -0.0913   0.4499   1.0000
6.000   1.0901   0.01571   0.00810  -0.0854   0.4152   1.0000
6.500   1.1161   0.01670   0.00884  -0.0802   0.3902   1.0000
7.000   1.1481   0.01771   0.00968  -0.0763   0.3709   1.0000
8.000   1.2168   0.01971   0.01156  -0.0698   0.3398   1.0000
8.500   1.2496   0.02077   0.01262  -0.0665   0.3257   1.0000
9.000   1.2831   0.02191   0.01375  -0.0635   0.3124   1.0000
9.500   1.3180   0.02312   0.01490  -0.0609   0.2998   1.0000
10.000   1.3447   0.02436   0.01621  -0.0572   0.2873   1.0000
10.250   1.3599   0.02506   0.01692  -0.0557   0.2811   1.0000
10.500   1.3705   0.02576   0.01771  -0.0537   0.2747   1.0000
10.750   1.3856   0.02647   0.01835  -0.0523   0.2687   1.0000
11.000   1.3959   0.02729   0.01927  -0.0504   0.2624   1.0000
11.250   1.4049   0.02812   0.02016  -0.0484   0.2560   1.0000
11.500   1.4207   0.02891   0.02085  -0.0472   0.2499   1.0000
11.750   1.4263   0.02992   0.02202  -0.0450   0.2438   1.0000
12.000   1.4361   0.03087   0.02299  -0.0434   0.2381   1.0000
12.250   1.4501   0.03179   0.02387  -0.0422   0.2325   1.0000
12.500   1.4571   0.03293   0.02513  -0.0404   0.2270   1.0000
12.750   1.4672   0.03396   0.02618  -0.0390   0.2219   1.0000
13.000   1.4805   0.03498   0.02717  -0.0379   0.2168   1.0000
13.250   1.4866   0.03628   0.02861  -0.0363   0.2119   1.0000
13.500   1.4950   0.03747   0.02983  -0.0350   0.2073   1.0000
13.750   1.5079   0.03852   0.03079  -0.0340   0.2023   1.0000
14.000   1.5108   0.04011   0.03255  -0.0325   0.1980   1.0000
14.250   1.5174   0.04151   0.03403  -0.0314   0.1937   1.0000
14.500   1.5287   0.04266   0.03513  -0.0304   0.1899   1.0000
14.750   1.5369   0.04412   0.03667  -0.0294   0.1861   1.0000
15.000   1.5410   0.04586   0.03854  -0.0284   0.1825   1.0000
15.250   1.5475   0.04741   0.04018  -0.0275   0.1791   1.0000
15.500   1.5574   0.04874   0.04148  -0.0267   0.1758   1.0000
15.750   1.5667   0.05021   0.04299  -0.0260   0.1725   1.0000
16.000   1.5675   0.05238   0.04534  -0.0252   0.1696   1.0000
16.250   1.5712   0.05433   0.04740  -0.0245   0.1666   1.0000
16.500   1.5761   0.05617   0.04929  -0.0239   0.1636   1.0000
16.750   1.5905   0.05716   0.05019  -0.0234   0.1602   1.0000
17.000   1.5883   0.05981   0.05304  -0.0229   0.1579   1.0000
17.250   1.5854   0.06260   0.05601  -0.0225   0.1552   1.0000
17.500   1.5851   0.06514   0.05866  -0.0223   0.1522   1.0000
17.750   1.5876   0.06740   0.06097  -0.0222   0.1495   1.0000
18.000   1.6016   0.06837   0.06185  -0.0217   0.1462   1.0000
18.250   1.5899   0.07241   0.06615  -0.0220   0.1440   1.0000
18.750   1.5780   0.07943   0.07348  -0.0228   0.1384   1.0000
19.250   1.5751   0.08541   0.07953  -0.0238   0.1318   1.0000
19.750   1.5501   0.09505   0.08955  -0.0265   0.1261   1.0000
20.250   1.5442   0.10199   0.09656  -0.0286   0.1195   1.0000
20.750   1.5104   0.11390   0.10891  -0.0334   0.1140   1.0000
21.250   1.4894   0.12399   0.11915  -0.0381   0.1066   1.0000
21.750   1.4521   0.13738   0.13285  -0.0450   0.0987   1.0000
22.250   1.4077   0.15252   0.14829  -0.0536   0.0897   1.0000
