
 ===================================================
  XFOIL Version 6.99
  Copyright (C) 2000   Mark Drela, Harold Youngren

  This software comes with ABSOLUTELY NO WARRANTY,
    subject to the GNU General Public License.

  Caveat computor
 ===================================================

 File  xfoil.def  not found

   QUIT    Exit program

  .OPER    Direct operating point(s)
  .MDES    Complex mapping design routine
  .QDES    Surface speed design routine
  .GDES    Geometry design routine

   SAVE f  Write airfoil to labeled coordinate file
   PSAV f  Write airfoil to plain coordinate file
   ISAV f  Write airfoil to ISES coordinate file
   MSAV f  Write airfoil to MSES coordinate file
   REVE    Reverse written-airfoil node ordering

   LOAD f  Read buffer airfoil from coordinate file
   NACA i  Set NACA 4,5-digit airfoil and buffer airfoil
   INTE    Set buffer airfoil by interpolating two airfoils
   NORM    Buffer airfoil normalization toggle
   XYCM rr Change CM reference location, currently  0.25000 0.00000

   BEND    Display structural properties of current airfoil

   PCOP    Set current-airfoil panel nodes directly from buffer airfoil points
   PANE    Set current-airfoil panel nodes ( 160 ) based on curvature
  .PPAR    Show/change paneling

  .PLOP    Plotting options

   WDEF f  Write  current-settings file
   RDEF f  Reread current-settings file
   NAME s  Specify new airfoil name
   NINC    Increment name version number

   Z       Zoom    | (available in all menus)
   U       Unzoom  | 

 XFOIL   c>  
 Labeled airfoil file.  Name:  GOE 652 AIRFOIL                                 

 Number of input coordinate points:  33
 Counterclockwise ordering
 Max thickness =     0.170599  at x =   0.200
 Max camber    =     0.091369  at x =   0.500

  LE  x,y  =  -0.00005   0.00223  |   Chord =   1.00006
  TE  x,y  =   1.00000   0.00000  |

 Current airfoil nodes set from buffer airfoil nodes (  33 )

 WARNING: Poor input coordinate distribution
          Excessive panel angle   40.8  at i =  17
          Repaneling with PANE and/or PPAR suggested
           (doing GDES,CADD before repaneling _may_
            improve excessively coarse LE spacing

 XFOIL   c>  
 XFOIL   c>  
 Sharp trailing edge

 Paneling parameters used...
   Number of panel nodes       160
   Panel bunching parameter    1.000
   TE/LE panel density ratio   0.150
   Refined-area/LE panel density ratio    0.200
   Top    side refined area x/c limits  1.000 1.000
   Bottom side refined area x/c limits  1.000 1.000

 XFOIL   c>  
.OPERi   c>  
 Xtr/c     =  1.0000    top    side
 Xtr/c     =  1.0000    bottom side
 Ncrit     =    9.00   ( 0.070 % turb. level )
 Vacc      =  0.0100

 Klag  =  5.6000     Uxwt  =    1.00
 A     =  6.7000     B     =  0.7500       KCt = 0.01485
 CtiniK=  1.8000     CtiniX=  3.3000

..VPAR   c>  
..VPAR   c>  
.OPERi   c>  
 M  =    0.0000
 Re =    150000

.OPERv   c>  
.OPERv   c>  
.OPERv   c>  
 Polar  1 newly created for accumulation
 Airfoil archived with polar: GOE 652 AIRFOIL                                 

Enter  polar save filename  OR  <return> for no file   s>  
 New polar save file available

Enter  polar dump filename  OR  <return> for no file   s>  
 Polar dump file will NOT be written

 Polar accumulation enabled

.OPERva   c>   Calculating unit vorticity distributions ...
 Calculating wake trajectory ...
 Calculating source influence matrix ...

 Solving BL system ...

 Initializing BL ...
    side            1  ...
 MRCHUE: Inverse mode at  55     Hk =   3.925
 MRCHUE: Inverse mode at  56     Hk =   4.453
 MRCHUE: Inverse mode at  57     Hk =   4.966
 MRCHUE: Inverse mode at  58     Hk =   5.471
 MRCHUE: Inverse mode at  59     Hk =   5.971
 MRCHUE: Inverse mode at  60     Hk =   6.467
 MRCHUE: Inverse mode at  61     Hk =   6.962
 MRCHUE: Inverse mode at  62     Hk =   7.457
 MRCHUE: Inverse mode at  63     Hk =   7.953
 MRCHUE: Inverse mode at  64     Hk =   8.449
 MRCHUE: Inverse mode at  65     Hk =   8.945
 MRCHUE: Inverse mode at  66     Hk =   7.235
 MRCHUE: Inverse mode at  67     Hk =   5.528
 MRCHUE: Inverse mode at  68     Hk =   4.351
 MRCHUE: Inverse mode at  69     Hk =   3.474
 MRCHUE: Inverse mode at  70     Hk =   2.797
 MRCHUE: Inverse mode at  75     Hk =   2.500
 MRCHUE: Inverse mode at  76     Hk =   2.500
    side            2  ...
 MRCHUE: Inverse mode at  32     Hk =   3.800
 MRCHUE: Inverse mode at  33     Hk =   4.264
 MRCHUE: Inverse mode at  34     Hk =   4.731
 MRCHUE: Inverse mode at  35     Hk =   5.207
 MRCHUE: Inverse mode at  36     Hk =   5.696
 MRCHUE: Inverse mode at  37     Hk =   6.201
 MRCHUE: Inverse mode at  38     Hk =   6.723
 MRCHUE: Inverse mode at  39     Hk =   7.265
 MRCHUE: Inverse mode at  40     Hk =   7.828
 MRCHUE: Inverse mode at  41     Hk =   8.418
 MRCHUE: Inverse mode at  42     Hk =   9.042
 MRCHUE: Inverse mode at  43     Hk =   8.031
 MRCHUE: Inverse mode at  44     Hk =   5.220
 MRCHUE: Inverse mode at  45     Hk =   3.439
 MRCHUE: Inverse mode at  46     Hk =   2.500
 MRCHUE: Inverse mode at  47     Hk =   2.500
 MRCHUE: Inverse mode at  48     Hk =   2.500
 MRCHUE: Inverse mode at  49     Hk =   2.500
 MRCHUE: Inverse mode at  50     Hk =   2.500
 MRCHUE: Inverse mode at  51     Hk =   2.500
 MRCHUE: Inverse mode at  52     Hk =   2.500
 MRCHUE: Inverse mode at  53     Hk =   2.500
 MRCHUE: Inverse mode at  54     Hk =   2.500
 MRCHUE: Inverse mode at  55     Hk =   2.500
 MRCHUE: Inverse mode at  56     Hk =   2.500
 MRCHUE: Inverse mode at  57     Hk =   2.500
 MRCHUE: Inverse mode at  58     Hk =   2.500
 MRCHUE: Inverse mode at  59     Hk =   2.500
 MRCHUE: Inverse mode at  60     Hk =   2.500
 MRCHUE: Inverse mode at  61     Hk =   2.500
 MRCHUE: Inverse mode at  62     Hk =   2.500
 MRCHUE: Inverse mode at  63     Hk =   2.500
 MRCHUE: Inverse mode at  64     Hk =   2.500
 MRCHUE: Inverse mode at  65     Hk =   2.500
 MRCHUE: Inverse mode at  66     Hk =   2.500
 MRCHUE: Inverse mode at  67     Hk =   2.500
 MRCHUE: Inverse mode at  68     Hk =   2.500
 MRCHUE: Inverse mode at  69     Hk =   2.500
 MRCHUE: Inverse mode at  70     Hk =   2.500
 MRCHUE: Inverse mode at  71     Hk =   2.500
 MRCHUE: Inverse mode at  72     Hk =   2.500
 MRCHUE: Inverse mode at  73     Hk =   2.500
 MRCHUE: Inverse mode at  74     Hk =   2.500
 MRCHUE: Inverse mode at  75     Hk =   2.500
 MRCHUE: Inverse mode at  76     Hk =   2.500
 MRCHUE: Inverse mode at  77     Hk =   2.500
 MRCHUE: Inverse mode at  78     Hk =   2.500
 MRCHUE: Inverse mode at  79     Hk =   2.500
 MRCHUE: Inverse mode at  80     Hk =   2.500

 Side 1  free  transition at x/c =  0.8064   66
 Side 2  free  transition at x/c =  0.1820   43

   1   rms: 0.3788E+01   max: -.1807E+02   T at   43  2   RLX: 0.028
       a = -4.000      CL =  0.7032
      Cm = -0.2988     CD =  0.02260   =>   CDf =  0.00617    CDp =  0.01643

 Side 1  free  transition at x/c =  0.8079   67
 Side 2  free  transition at x/c =  0.1993   43
 idif Ue xi dudx           1  0.14521086      4.93502617E-03   29.424538    
 Uenew xinew           2  5.94621599E-02  2.02083588E-03

   2   rms: 0.3633E+00   max: 0.3805E+01   T at   43  2   RLX: 0.394
       a = -4.000      CL =  0.5956
      Cm = -0.2650     CD =  0.02551   =>   CDf =  0.00655    CDp =  0.01897

 MRCHDU: Convergence failed at  44  side 2    Res =  0.2719E+02
 MRCHDU: Convergence failed at  45  side 2    Res =  0.2371E+02
 MRCHDU: Convergence failed at  46  side 2    Res =  0.1236E+02
 MRCHDU: Convergence failed at  47  side 2    Res =  0.3388E+02
 MRCHDU: Convergence failed at  48  side 2    Res =  0.1652E+03
 MRCHDU: Convergence failed at  49  side 2    Res =  0.3266E+02
 MRCHDU: Convergence failed at  50  side 2    Res =  0.2045E+02
 MRCHDU: Convergence failed at  51  side 2    Res =  0.2751E+02
 MRCHDU: Convergence failed at  52  side 2    Res =  0.3099E+02
 MRCHDU: Convergence failed at  53  side 2    Res =  0.5423E+02
 MRCHDU: Convergence failed at  54  side 2    Res =  0.2554E+02
 MRCHDU: Convergence failed at  55  side 2    Res =  0.7335E+02
 MRCHDU: Convergence failed at  56  side 2    Res =  0.1037E+03
 MRCHDU: Convergence failed at  57  side 2    Res =  0.1572E+03
 MRCHDU: Convergence failed at  58  side 2    Res =  0.2754E+03
 MRCHDU: Convergence failed at  59  side 2    Res =  0.7267E+03
 MRCHDU: Convergence failed at  60  side 2    Res =  0.2116E+04
 MRCHDU: Convergence failed at  61  side 2    Res =  0.3364E+04
 MRCHDU: Convergence failed at  62  side 2    Res =  0.8583E+03
 MRCHDU: Convergence failed at  63  side 2    Res =  0.1983E+04
 MRCHDU: Convergence failed at  64  side 2    Res =  0.2983E+04
 MRCHDU: Convergence failed at  65  side 2    Res =  0.1087E+04
 MRCHDU: Convergence failed at  66  side 2    Res =  0.7950E+03
 MRCHDU: Convergence failed at  67  side 2    Res =  0.7339E+03
 MRCHDU: Convergence failed at  68  side 2    Res =  0.7708E+03
 MRCHDU: Convergence failed at  69  side 2    Res =  0.4386E+03
 MRCHDU: Convergence failed at  70  side 2    Res =  0.1339E+03
 MRCHDU: Convergence failed at  71  side 2    Res =  0.1127E+03
 MRCHDU: Convergence failed at  72  side 2    Res =  0.9178E+02
 MRCHDU: Convergence failed at  73  side 2    Res =  0.9306E+02
 MRCHDU: Convergence failed at  74  side 2    Res =  0.9362E+02
 MRCHDU: Convergence failed at  75  side 2    Res =  0.1103E+03
 MRCHDU: Convergence failed at  76  side 2    Res =  0.5650E+02
 MRCHDU: Convergence failed at  77  side 2    Res =  0.4896E+02
 MRCHDU: Convergence failed at  78  side 2    Res =  0.4536E+02
 MRCHDU: Convergence failed at  79  side 2    Res =  0.4610E+02
 MRCHDU: Convergence failed at  80  side 2    Res =  0.4665E+02
 MRCHDU: Convergence failed at  81  side 2    Res =  0.3240E+02
 MRCHDU: Convergence failed at  82  side 2    Res =  0.5552E+02
 MRCHDU: Convergence failed at  83  side 2    Res =  0.1378E+04
 MRCHDU: Convergence failed at  84  side 2    Res =  0.6833E+02
 MRCHDU: Convergence failed at  85  side 2    Res =  0.3579E+02
 MRCHDU: Convergence failed at  86  side 2    Res =  0.3552E+02
 Side 1  free  transition at x/c =  0.7998   65
 Side 2  free  transition at x/c =  0.1681   42
 idif Ue xi dudx           1  9.60561112E-02  3.32093239E-03   28.924440    
 Uenew xinew           2  9.49941110E-03  3.28421593E-04

   3   rms: 0.1081E+01   max: 0.1044E+02   T at   42  2   RLX: 0.099
       a = -4.000      CL = -0.2431
      Cm =  0.0469     CD =  0.01914   =>   CDf =  0.00565    CDp =  0.01349

 MRCHDU: Convergence failed at  84  side 2    Res =  0.1646E+00
 MRCHDU: Convergence failed at  85  side 2    Res =  0.1711E+00
 MRCHDU: Convergence failed at  86  side 2    Res =  0.1768E+00
 MRCHDU: Convergence failed at  87  side 2    Res =  0.1714E+00
 Side 1  free  transition at x/c =  0.7881   64
 Side 2  free  transition at x/c =  0.1518   42

   4   rms: 0.3781E+00   max: 0.4871E+01   T at   42  2   RLX: 0.308
       a = -4.000      CL =  0.1247
      Cm = -0.1011     CD =  0.05387   =>   CDf =  0.00548    CDp =  0.04839

 Side 1  free  transition at x/c =  0.7887   64
 Side 2  free  transition at x/c =  0.1361   41
 idif Ue xi dudx           2  0.18400699      6.83331490E-03   26.927925    
 Uenew xinew           3  0.10084078      3.74484062E-03

   5   rms: 0.4446E+00   max: 0.2823E+01   T at   41  2   RLX: 0.531
       a = -4.000      CL =  0.0633
      Cm = -0.1223     CD =  0.04993   =>   CDf =  0.00553    CDp =  0.04440

 MRCHDU: Convergence failed at  43  side 2    Res =  0.7688E+01
 MRCHDU: Convergence failed at  44  side 2    Res =  0.1425E+02
 MRCHDU: Convergence failed at  45  side 2    Res =  0.5320E+02
 MRCHDU: Convergence failed at  46  side 2    Res =  0.1616E+02
 MRCHDU: Convergence failed at  47  side 2    Res =  0.4540E+02
 MRCHDU: Convergence failed at  48  side 2    Res =  0.2412E+02
 MRCHDU: Convergence failed at  49  side 2    Res =  0.7395E+02
 MRCHDU: Convergence failed at  50  side 2    Res =  0.1103E+03
 MRCHDU: Convergence failed at  51  side 2    Res =  0.3278E+02
 MRCHDU: Convergence failed at  52  side 2    Res =  0.1968E+02
 MRCHDU: Convergence failed at  53  side 2    Res =  0.3548E+02
 MRCHDU: Convergence failed at  54  side 2    Res =  0.4683E+02
 MRCHDU: Convergence failed at  55  side 2    Res =  0.3772E+02
 MRCHDU: Convergence failed at  56  side 2    Res =  0.4189E+02
 MRCHDU: Convergence failed at  57  side 2    Res =  0.5593E+02
 MRCHDU: Convergence failed at  58  side 2    Res =  0.4502E+02
 MRCHDU: Convergence failed at  59  side 2    Res =  0.6676E+02
 MRCHDU: Convergence failed at  60  side 2    Res =  0.9445E+02
 MRCHDU: Convergence failed at  61  side 2    Res =  0.2927E+03
 MRCHDU: Convergence failed at  62  side 2    Res =  0.1968E+03
 MRCHDU: Convergence failed at  63  side 2    Res =  0.1562E+03
 MRCHDU: Convergence failed at  64  side 2    Res =  0.1365E+03
 MRCHDU: Convergence failed at  65  side 2    Res =  0.1270E+03
 MRCHDU: Convergence failed at  66  side 2    Res =  0.1239E+03
 MRCHDU: Convergence failed at  67  side 2    Res =  0.1254E+03
 MRCHDU: Convergence failed at  68  side 2    Res =  0.1317E+03
 MRCHDU: Convergence failed at  69  side 2    Res =  0.1442E+03
 MRCHDU: Convergence failed at  70  side 2    Res =  0.1535E+03
 MRCHDU: Convergence failed at  71  side 2    Res =  0.1205E+03
 MRCHDU: Convergence failed at  72  side 2    Res =  0.9832E+02
 MRCHDU: Convergence failed at  73  side 2    Res =  0.9599E+02
 MRCHDU: Convergence failed at  74  side 2    Res =  0.7858E+02
 MRCHDU: Convergence failed at  75  side 2    Res =  0.4753E+03
 MRCHDU: Convergence failed at  76  side 2    Res =  0.2298E+03
 MRCHDU: Convergence failed at  77  side 2    Res =  0.8569E+02
 MRCHDU: Convergence failed at  78  side 2    Res =  0.9175E+02
 MRCHDU: Convergence failed at  79  side 2    Res =  0.2992E+02
 MRCHDU: Convergence failed at  80  side 2    Res =  0.6961E+02
 MRCHDU: Convergence failed at  81  side 2    Res =  0.9908E+02
 MRCHDU: Convergence failed at  82  side 2    Res =  0.7800E+02
 MRCHDU: Convergence failed at  83  side 2    Res =  0.7228E+02
 MRCHDU: Convergence failed at  84  side 2    Res =  0.4375E+02
 MRCHDU: Convergence failed at  85  side 2    Res =  0.3211E+02
 MRCHDU: Convergence failed at  86  side 2    Res =  0.2999E+02
 MRCHDU: Convergence failed at  87  side 2    Res =  0.1335E+03
 MRCHDU: Convergence failed at  88  side 2    Res =  0.3912E+02
 MRCHDU: Convergence failed at  89  side 2    Res =  0.4393E+02
 Side 1  free  transition at x/c =  0.7807   62
 Side 2  free  transition at x/c =  0.1267   42

   6   rms: 0.1112E+01   max: 0.3544E+01   D at   65  2   RLX: 0.346
       a = -4.000      CL = -0.3834
      Cm =  0.0911     CD =  0.02036   =>   CDf =  0.00488    CDp =  0.01548

 Side 1  free  transition at x/c =  0.7864   64
 Side 2  free  transition at x/c =  0.1247   39

   7   rms: 0.4167E+00   max: -.6123E+00   D at   88  2   RLX: 0.419
       a = -4.000      CL =  0.2316
      Cm = -0.0913     CD =  0.06620   =>   CDf =  0.00511    CDp =  0.06109

 Side 1  free  transition at x/c =  0.8092   66
 Side 2  free  transition at x/c =  0.1274   39
 idif Ue xi dudx           1  0.14719111      5.41234016E-03   27.195465    
 Uenew xinew           2  6.58083856E-02  2.41982937E-03

   8   rms: 0.1385E+01   max: 0.8469E+01   T at   39  2   RLX: 0.118
       a = -4.000      CL =  0.2073
      Cm = -0.1174     CD =  0.05844   =>   CDf =  0.00539    CDp =  0.05305

 MRCHDU: Convergence failed at  40  side 2    Res =  0.1803E+02
 MRCHDU: Convergence failed at  41  side 2    Res =  0.1146E+02
 MRCHDU: Convergence failed at  42  side 2    Res =  0.1438E+02
 MRCHDU: Convergence failed at  43  side 2    Res =  0.4943E+02
 MRCHDU: Convergence failed at  44  side 2    Res =  0.1207E+02
 MRCHDU: Convergence failed at  45  side 2    Res =  0.1322E+02
 MRCHDU: Convergence failed at  46  side 2    Res =  0.3307E+02
 MRCHDU: Convergence failed at  47  side 2    Res =  0.1068E+03
 MRCHDU: Convergence failed at  48  side 2    Res =  0.2142E+02
 MRCHDU: Convergence failed at  49  side 2    Res =  0.1005E+02
 MRCHDU: Convergence failed at  50  side 2    Res =  0.1358E+02
 MRCHDU: Convergence failed at  51  side 2    Res =  0.2156E+02
 MRCHDU: Convergence failed at  52  side 2    Res =  0.3187E+02
 MRCHDU: Convergence failed at  53  side 2    Res =  0.8393E+02
 MRCHDU: Convergence failed at  54  side 2    Res =  0.4117E+04
 MRCHDU: Convergence failed at  55  side 2    Res =  0.7608E+02
 MRCHDU: Convergence failed at  56  side 2    Res =  0.3871E+02
 MRCHDU: Convergence failed at  57  side 2    Res =  0.2780E+02
 MRCHDU: Convergence failed at  58  side 2    Res =  0.2757E+02
 MRCHDU: Convergence failed at  59  side 2    Res =  0.2046E+02
 MRCHDU: Convergence failed at  60  side 2    Res =  0.1822E+02
 MRCHDU: Convergence failed at  61  side 2    Res =  0.1686E+02
 MRCHDU: Convergence failed at  62  side 2    Res =  0.1556E+02
 MRCHDU: Convergence failed at  63  side 2    Res =  0.1546E+02
 MRCHDU: Convergence failed at  64  side 2    Res =  0.1552E+02
 MRCHDU: Convergence failed at  65  side 2    Res =  0.1471E+02
 MRCHDU: Convergence failed at  66  side 2    Res =  0.1471E+02
 MRCHDU: Convergence failed at  67  side 2    Res =  0.1465E+02
 MRCHDU: Convergence failed at  68  side 2    Res =  0.1487E+02
 MRCHDU: Convergence failed at  69  side 2    Res =  0.1520E+02
 MRCHDU: Convergence failed at  70  side 2    Res =  0.1499E+02
 MRCHDU: Convergence failed at  71  side 2    Res =  0.1520E+02
 MRCHDU: Convergence failed at  72  side 2    Res =  0.1563E+02
 MRCHDU: Convergence failed at  73  side 2    Res =  0.1631E+02
 MRCHDU: Convergence failed at  74  side 2    Res =  0.1770E+02
 MRCHDU: Convergence failed at  75  side 2    Res =  0.1934E+02
 MRCHDU: Convergence failed at  76  side 2    Res =  0.1926E+02
 MRCHDU: Convergence failed at  77  side 2    Res =  0.2176E+02
 MRCHDU: Convergence failed at  78  side 2    Res =  0.2570E+02
 MRCHDU: Convergence failed at  79  side 2    Res =  0.2974E+02
 MRCHDU: Convergence failed at  80  side 2    Res =  0.3939E+02
 MRCHDU: Convergence failed at  81  side 2    Res =  0.5170E+02
 MRCHDU: Convergence failed at  82  side 2    Res =  0.7596E+02
 MRCHDU: Convergence failed at  83  side 2    Res =  0.2568E+03
 MRCHDU: Convergence failed at  84  side 2    Res =  0.2710E+03
 MRCHDU: Convergence failed at  85  side 2    Res =  0.1125E+03
 MRCHDU: Convergence failed at  86  side 2    Res =  0.6933E+02
 MRCHDU: Convergence failed at  87  side 2    Res =  0.3717E+05
 Side 1  free  transition at x/c =  0.8066   65
 Side 2  free  transition at x/c =  0.1281   40

   9   rms: 0.1507E+01   max: 0.4800E+01   D at   62  2   RLX: 0.313
       a = -4.000      CL = -0.2268
      Cm =  0.0527     CD =  0.01784   =>   CDf =  0.00501    CDp =  0.01283

 Side 1  free  transition at x/c =  0.8038   65
 Side 2  free  transition at x/c =  0.1277   40

  10   rms: 0.2871E+00   max: 0.7814E+00   D at   39  2   RLX: 0.661
       a = -4.000      CL =  0.3738
      Cm = -0.1282     CD =  0.06519   =>   CDf =  0.00528    CDp =  0.05991

 Side 1  free  transition at x/c =  0.8089   66
 Side 2  free  transition at x/c =  0.1360   40

  11   rms: 0.2440E+00   max: 0.1354E+01   T at   40  2   RLX: 0.768
       a = -4.000      CL =  0.3989
      Cm = -0.1564     CD =  0.06347   =>   CDf =  0.00530    CDp =  0.05817

 Side 1  free  transition at x/c =  0.7988   65
 Side 2  free  transition at x/c =  0.1325   39

  12   rms: 0.1573E+01   max: -.2919E+02   T at   39  2   RLX: 0.017
       a = -4.000      CL =  0.4228
      Cm = -0.1717     CD =  0.05175   =>   CDf =  0.00526    CDp =  0.04649

 Side 1  free  transition at x/c =  0.7967   65
 Side 2  free  transition at x/c =  0.1329   39

  13   rms: 0.2667E+01   max: 0.1078E+02   D at   41  2   RLX: 0.050
       a = -4.000      CL =  0.3609
      Cm = -0.1397     CD =  0.06727   =>   CDf =  0.00519    CDp =  0.06208

 Side 1  free  transition at x/c =  0.7885   65
 Side 2  free  transition at x/c =  0.1317   39

  14   rms: 0.2714E+00   max: 0.1238E+01   D at   41  2
       a = -4.000      CL =  0.4354
      Cm = -0.1199     CD =  0.08798   =>   CDf =  0.00487    CDp =  0.08311

 Side 1  free  transition at x/c =  0.7800   66
 Side 2  free  transition at x/c =  0.1349   38
 idif Ue xi dudx           1  9.51246396E-02  3.31544876E-03   28.691332    
 Uenew xinew           2  1.15126399E-02  4.01258469E-04

  15   rms: 0.1824E+00   max: 0.1044E+01   D at   81  2   RLX: 0.951
       a = -4.000      CL =  0.4898
      Cm = -0.1632     CD =  0.07393   =>   CDf =  0.00508    CDp =  0.06885

 Side 1  free  transition at x/c =  0.7830   65
 Side 2  free  transition at x/c =  0.1351   39

  16   rms: 0.6750E+00   max: 0.3438E+01   D at   65  2   RLX: 0.436
       a = -4.000      CL =  0.4990
      Cm = -0.1802     CD =  0.05265   =>   CDf =  0.00599    CDp =  0.04666

 MRCHDU: Convergence failed at  64  side 2    Res =  0.3007E+01
 MRCHDU: Convergence failed at  65  side 2    Res =  0.1794E+01
 MRCHDU: Convergence failed at  66  side 2    Res =  0.1664E+01
 MRCHDU: Convergence failed at  67  side 2    Res =  0.1772E+01
 MRCHDU: Convergence failed at  68  side 2    Res =  0.2082E+01
 MRCHDU: Convergence failed at  69  side 2    Res =  0.2415E+01
 MRCHDU: Convergence failed at  70  side 2    Res =  0.2841E+01
 MRCHDU: Convergence failed at  71  side 2    Res =  0.3311E+01
 MRCHDU: Convergence failed at  72  side 2    Res =  0.3874E+01
 MRCHDU: Convergence failed at  73  side 2    Res =  0.4588E+01
 MRCHDU: Convergence failed at  74  side 2    Res =  0.5366E+01
 MRCHDU: Convergence failed at  75  side 2    Res =  0.6204E+01
 MRCHDU: Convergence failed at  76  side 2    Res =  0.7124E+01
 MRCHDU: Convergence failed at  77  side 2    Res =  0.7778E+01
 MRCHDU: Convergence failed at  78  side 2    Res =  0.8165E+01
 MRCHDU: Convergence failed at  79  side 2    Res =  0.8166E+01
 MRCHDU: Convergence failed at  80  side 2    Res =  0.7476E+01
 MRCHDU: Convergence failed at  81  side 2    Res =  0.3098E+01
 Side 1  free  transition at x/c =  0.7811   65
 Side 2  free  transition at x/c =  0.1356   39

  17   rms: 0.1312E+00   max: 0.6080E+00   D at   63  2
       a = -4.000      CL =  0.4088
      Cm = -0.1561     CD =  0.06972   =>   CDf =  0.00501    CDp =  0.06470

 MRCHDU: Convergence failed at  46  side 2    Res =  0.2210E+03
 MRCHDU: Convergence failed at  47  side 2    Res =  0.1900E+03
 MRCHDU: Convergence failed at  48  side 2    Res =  0.2031E+03
 MRCHDU: Convergence failed at  49  side 2    Res =  0.5065E+02
 MRCHDU: Convergence failed at  50  side 2    Res =  0.1091E+03
 MRCHDU: Convergence failed at  51  side 2    Res =  0.7915E+02
 MRCHDU: Convergence failed at  52  side 2    Res =  0.5353E+02
 MRCHDU: Convergence failed at  53  side 2    Res =  0.9358E+02
 MRCHDU: Convergence failed at  54  side 2    Res =  0.2071E+03
 MRCHDU: Convergence failed at  55  side 2    Res =  0.6616E+02
 MRCHDU: Convergence failed at  56  side 2    Res =  0.2336E+03
 MRCHDU: Convergence failed at  57  side 2    Res =  0.2318E+03
 MRCHDU: Convergence failed at  58  side 2    Res =  0.2330E+03
 MRCHDU: Convergence failed at  59  side 2    Res =  0.2516E+03
 MRCHDU: Convergence failed at  60  side 2    Res =  0.2280E+03
 MRCHDU: Convergence failed at  61  side 2    Res =  0.8106E+02
 MRCHDU: Convergence failed at  62  side 2    Res =  0.1283E+03
 MRCHDU: Convergence failed at  63  side 2    Res =  0.8401E+02
 MRCHDU: Convergence failed at  64  side 2    Res =  0.3075E+03
 MRCHDU: Convergence failed at  65  side 2    Res =  0.7228E+02
 MRCHDU: Convergence failed at  66  side 2    Res =  0.9563E+03
 MRCHDU: Convergence failed at  67  side 2    Res =  0.1594E+03
 MRCHDU: Convergence failed at  68  side 2    Res =  0.1551E+04
 MRCHDU: Convergence failed at  69  side 2    Res =  0.1172E+04
 MRCHDU: Convergence failed at  70  side 2    Res =  0.1204E+03
 MRCHDU: Convergence failed at  71  side 2    Res =  0.2961E+03
 MRCHDU: Convergence failed at  72  side 2    Res =  0.1079E+03
 MRCHDU: Convergence failed at  73  side 2    Res =  0.8802E+02
 MRCHDU: Convergence failed at  74  side 2    Res =  0.1164E+03
 MRCHDU: Convergence failed at  75  side 2    Res =  0.8442E+02
 MRCHDU: Convergence failed at  76  side 2    Res =  0.8745E+02
 MRCHDU: Convergence failed at  77  side 2    Res =  0.1345E+03
 MRCHDU: Convergence failed at  78  side 2    Res =  0.1774E+03
 MRCHDU: Convergence failed at  79  side 2    Res =  0.5322E+03
 MRCHDU: Convergence failed at  80  side 2    Res =  0.2591E+04
 MRCHDU: Convergence failed at  81  side 2    Res =  0.4448E+03
 MRCHDU: Convergence failed at  82  side 2    Res =  0.2575E+03
 MRCHDU: Convergence failed at  83  side 2    Res =  0.3683E+03
 MRCHDU: Convergence failed at  84  side 2    Res =  0.1385E+03
 MRCHDU: Convergence failed at  85  side 2    Res =  0.1034E+03
 MRCHDU: Convergence failed at  86  side 2    Res =  0.1067E+03
 Side 1  free  transition at x/c =  0.7811   65
 Side 2  free  transition at x/c =  0.2189   45

  18   rms: 0.1212E+01   max: 0.2230E+02   T at   45  2   RLX: 0.042
       a = -4.000      CL = -0.2092
      Cm =  0.0794     CD =  0.01704   =>   CDf =  0.00461    CDp =  0.01243

 Side 1  free  transition at x/c =  0.7822   65
 Side 2  free  transition at x/c =  0.2317   46

  19   rms: 0.9988E+00   max: -.1452E+02   T at   46  2   RLX: 0.034
       a = -4.000      CL = -0.0828
      Cm =  0.0288     CD =  0.06778   =>   CDf =  0.00486    CDp =  0.06292

 Side 1  free  transition at x/c =  0.7855   65
 Side 2  free  transition at x/c =  0.2287   46

  20   rms: 0.5987E+00   max: 0.3051E+01   T at   46  2   RLX: 0.198
       a = -4.000      CL =  0.0511
      Cm = -0.0122     CD =  0.07380   =>   CDf =  0.00488    CDp =  0.06892

 Side 1  free  transition at x/c =  0.8057   66
 Side 2  free  transition at x/c =  0.1845   43

  21   rms: 0.4742E+00   max: 0.4439E+01   T at   43  2   RLX: 0.138
       a = -4.000      CL =  0.1484
      Cm = -0.0370     CD =  0.08267   =>   CDf =  0.00512    CDp =  0.07755

 Side 1  free  transition at x/c =  0.8131   66
 Side 2  free  transition at x/c =  0.1710   42

  22   rms: 0.4104E+00   max: -.1436E+01   T at   43  2   RLX: 0.348
       a = -4.000      CL =  0.3726
      Cm = -0.0933     CD =  0.08208   =>   CDf =  0.00510    CDp =  0.07698

 Side 1  free  transition at x/c =  0.8333   68
 Side 2  free  transition at x/c =  0.1595   41

  23   rms: 0.3723E+00   max: 0.3933E+01   T at   43  2   RLX: 0.381
       a = -4.000      CL =  0.4851
      Cm = -0.1282     CD =  0.07342   =>   CDf =  0.00538    CDp =  0.06804

 Side 1  free  transition at x/c =  0.8354   68
 Side 2  free  transition at x/c =  0.1589   40

  24   rms: 0.2511E+00   max: -.8462E+00   D at  101  2   RLX: 0.591
       a = -4.000      CL =  0.5821
      Cm = -0.1535     CD =  0.06643   =>   CDf =  0.00533    CDp =  0.06110

 Side 1  free  transition at x/c =  0.8286   69
 Side 2  free  transition at x/c =  0.1546   39

  25   rms: 0.1869E+00   max: -.8419E+00   D at   99  2   RLX: 0.594
       a = -4.000      CL =  0.6051
      Cm = -0.1641     CD =  0.06982   =>   CDf =  0.00541    CDp =  0.06441

 Side 1  free  transition at x/c =  0.8216   68
 Side 2  free  transition at x/c =  0.1537   39
 idif Ue xi dudx           1  0.10973081      3.74114513E-03   29.330809    
 Uenew xinew           2  2.60139965E-02  8.86917114E-04

  26   rms: 0.1733E+00   max: 0.7545E+00   D at   77  1   RLX: 0.667
       a = -4.000      CL =  0.5348
      Cm = -0.1524     CD =  0.07256   =>   CDf =  0.00547    CDp =  0.06708

 Side 1  free  transition at x/c =  0.8010   67
 Side 2  free  transition at x/c =  0.1491   40

  27   rms: 0.1019E+00   max: -.6886E+00   D at   99  2   RLX: 0.726
       a = -4.000      CL =  0.5384
      Cm = -0.1542     CD =  0.06864   =>   CDf =  0.00512    CDp =  0.06352

 Side 1  free  transition at x/c =  0.8005   67
 Side 2  free  transition at x/c =  0.1503   40

  28   rms: 0.5603E-01   max: -.4909E+00   D at   99  2
       a = -4.000      CL =  0.5350
      Cm = -0.1547     CD =  0.06548   =>   CDf =  0.00514    CDp =  0.06034

 Side 1  free  transition at x/c =  0.7980   66
 Side 2  free  transition at x/c =  0.1512   40
 idif Ue xi dudx           1  8.56521502E-02  2.99179554E-03   28.629011    
 Uenew xinew           2  2.22176150E-03  7.76052475E-05

  29   rms: 0.8991E-01   max: 0.5492E+00   T at   40  2
       a = -4.000      CL =  0.4332
      Cm = -0.1350     CD =  0.07221   =>   CDf =  0.00522    CDp =  0.06699

 Side 1  free  transition at x/c =  0.7819   65
 Side 2  free  transition at x/c =  0.1468   40

  30   rms: 0.1464E+00   max: 0.9759E+00   D at    2  2
       a = -4.000      CL =  0.3941
      Cm = -0.1434     CD =  0.07715   =>   CDf =  0.00488    CDp =  0.07227

 Side 1  free  transition at x/c =  0.7822   65
 Side 2  free  transition at x/c =  0.1464   40

  31   rms: 0.4272E+00   max: 0.2657E+01   D at   73  2   RLX: 0.564
       a = -4.000      CL =  0.4718
      Cm = -0.1659     CD =  0.06429   =>   CDf =  0.00532    CDp =  0.05898

 Side 1  free  transition at x/c =  0.7820   65
 Side 2  free  transition at x/c =  0.1628   42

  32   rms: 0.6758E+00   max: 0.4387E+01   D at   71  2   RLX: 0.342
       a = -4.000      CL =  0.4540
      Cm = -0.1603     CD =  0.05782   =>   CDf =  0.00532    CDp =  0.05250

 MRCHDU: Convergence failed at  69  side 2    Res =  0.1250E+03
 MRCHDU: Convergence failed at  70  side 2    Res =  0.6661E+01
 MRCHDU: Convergence failed at  71  side 2    Res =  0.4165E+01
 Side 1  free  transition at x/c =  0.7805   65
 Side 2  free  transition at x/c =  0.1516   41

  33   rms: 0.4400E+00   max: 0.2101E+01   D at   42  2   RLX: 0.714
       a = -4.000      CL =  0.4051
      Cm = -0.1302     CD =  0.07693   =>   CDf =  0.00497    CDp =  0.07196

 Side 1  free  transition at x/c =  0.7812   65
 Side 2  free  transition at x/c =  0.1437   40

  34   rms: 0.1512E+00   max: 0.9716E+00   D at   81  2
       a = -4.000      CL =  0.4153
      Cm = -0.1309     CD =  0.07619   =>   CDf =  0.00489    CDp =  0.07131

 Side 1  free  transition at x/c =  0.7835   65
 Side 2  free  transition at x/c =  0.1455   40

  35   rms: 0.7972E-01   max: -.5891E+00   T at   40  2   RLX: 0.849
       a = -4.000      CL =  0.4396
      Cm = -0.1430     CD =  0.07175   =>   CDf =  0.00487    CDp =  0.06687

 Side 1  free  transition at x/c =  0.7843   65
 Side 2  free  transition at x/c =  0.1443   40

  36   rms: 0.1178E+00   max: 0.5782E+00   D at   41  2
       a = -4.000      CL =  0.4458
      Cm = -0.1352     CD =  0.07744   =>   CDf =  0.00482    CDp =  0.07262

 Side 1  free  transition at x/c =  0.7844   66
 Side 2  free  transition at x/c =  0.1474   40

  37   rms: 0.6305E-01   max: -.4434E+00   T at   40  2
       a = -4.000      CL =  0.4733
      Cm = -0.1413     CD =  0.06842   =>   CDf =  0.00490    CDp =  0.06353

 Side 1  free  transition at x/c =  0.7878   66
 Side 2  free  transition at x/c =  0.1477   40

  38   rms: 0.7039E-01   max: -.3793E+00   T at   40  2
       a = -4.000      CL =  0.5074
      Cm = -0.1470     CD =  0.06618   =>   CDf =  0.00494    CDp =  0.06123

 Side 1  free  transition at x/c =  0.7906   66
 Side 2  free  transition at x/c =  0.1488   40

  39   rms: 0.3624E-01   max: -.2043E+00   D at   40  2
       a = -4.000      CL =  0.4843
      Cm = -0.1451     CD =  0.06853   =>   CDf =  0.00499    CDp =  0.06354

 Side 1  free  transition at x/c =  0.7885   66
 Side 2  free  transition at x/c =  0.1491   40

  40   rms: 0.1358E-01   max: 0.4070E-01   D at   76  1
       a = -4.000      CL =  0.4701
      Cm = -0.1432     CD =  0.06991   =>   CDf =  0.00496    CDp =  0.06495

 Side 1  free  transition at x/c =  0.7871   66
 Side 2  free  transition at x/c =  0.1489   40

  41   rms: 0.7861E-03   max: -.2873E-02   D at   83  2
       a = -4.000      CL =  0.4693
      Cm = -0.1432     CD =  0.07003   =>   CDf =  0.00494    CDp =  0.06509

 Side 1  free  transition at x/c =  0.7871   66
 Side 2  free  transition at x/c =  0.1489   40

  42   rms: 0.8626E-04   max: 0.3965E-03   T at   40  2
       a = -4.000      CL =  0.4693
      Cm = -0.1431     CD =  0.07004   =>   CDf =  0.00494    CDp =  0.06510
 plradd ia,ip,cpol            1           0  0.23475441    

 Point added to stored polar  1
 Point written to save file  goe652_Re150k.base.pol                          
 Dump file unspecified or not available
 Calculating wake trajectory ...
 Calculating source influence matrix ...

 Solving BL system ...

 Side 1  free  transition at x/c =  0.7870   66
 Side 2  free  transition at x/c =  0.1489   40

   1   rms: 0.1093E+00   max: -.8528E+00   T at   40  2   RLX: 0.586
       a = -3.500      CL =  0.5138
      Cm = -0.1444     CD =  0.06663   =>   CDf =  0.00494    CDp =  0.06169

 Side 1  free  transition at x/c =  0.7826   66
 Side 2  free  transition at x/c =  0.1512   40

   2   rms: 0.4687E-01   max: -.4047E+00   T at   40  2
       a = -3.500      CL =  0.5317
      Cm = -0.1465     CD =  0.06438   =>   CDf =  0.00499    CDp =  0.05939

 Side 1  free  transition at x/c =  0.7795   66
 Side 2  free  transition at x/c =  0.1550   40

   3   rms: 0.2598E-01   max: -.1619E+00   D at   40  2
       a = -3.500      CL =  0.5179
      Cm = -0.1460     CD =  0.06562   =>   CDf =  0.00504    CDp =  0.06058

 Side 1  free  transition at x/c =  0.7790   66
 Side 2  free  transition at x/c =  0.1563   40

   4   rms: 0.7558E-02   max: -.3483E-01   T at   40  2
       a = -3.500      CL =  0.5129
      Cm = -0.1458     CD =  0.06627   =>   CDf =  0.00504    CDp =  0.06124

 Side 1  free  transition at x/c =  0.7786   66
 Side 2  free  transition at x/c =  0.1566   40

   5   rms: 0.1002E-02   max: -.1147E-01   T at   40  2
       a = -3.500      CL =  0.5131
      Cm = -0.1460     CD =  0.06633   =>   CDf =  0.00503    CDp =  0.06129

 Side 1  free  transition at x/c =  0.7786   66
 Side 2  free  transition at x/c =  0.1567   40

   6   rms: 0.8523E-04   max: -.3917E-03   D at   96  2
       a = -3.500      CL =  0.5130
      Cm = -0.1460     CD =  0.06634   =>   CDf =  0.00504    CDp =  0.06131
 plradd ia,ip,cpol            2           0  0.23475441    

 Point added to stored polar  1
 Point written to save file  goe652_Re150k.base.pol                          
 Dump file unspecified or not available
 Calculating wake trajectory ...
 Calculating source influence matrix ...

 Solving BL system ...

 Side 1  free  transition at x/c =  0.7786   66
 Side 2  free  transition at x/c =  0.1567   40

   1   rms: 0.2006E+00   max: -.2604E+01   T at   40  2   RLX: 0.192
       a = -3.000      CL =  0.5113
      Cm = -0.1486     CD =  0.06596   =>   CDf =  0.00504    CDp =  0.06092

 Side 1  free  transition at x/c =  0.7769   65
 Side 2  free  transition at x/c =  0.1553   40

   2   rms: 0.2549E+00   max: 0.1550E+01   T at   65  1   RLX: 0.485
       a = -3.000      CL =  0.3664
      Cm = -0.1130     CD =  0.07379   =>   CDf =  0.00506    CDp =  0.06873

 Side 1  free  transition at x/c =  0.7520   64
 Side 2  free  transition at x/c =  0.1482   40

   3   rms: 0.5211E-01   max: -.6332E+00   D at   40  2   RLX: 0.790
       a = -3.000      CL =  0.3291
      Cm = -0.1034     CD =  0.07632   =>   CDf =  0.00463    CDp =  0.07169

 Side 1  free  transition at x/c =  0.7391   64
 Side 2  free  transition at x/c =  0.1486   40

   4   rms: 0.1556E+00   max: -.9699E+00   T at   40  2   RLX: 0.516
       a = -3.000      CL =  0.4089
      Cm = -0.1143     CD =  0.07278   =>   CDf =  0.00454    CDp =  0.06824

 Side 1  free  transition at x/c =  0.7487   64
 Side 2  free  transition at x/c =  0.1507   40
 idif Ue xi dudx           2  0.17983739      6.32405281E-03   28.437048    
 Uenew xinew           3  9.69664231E-02  3.40986252E-03

   5   rms: 0.2581E+00   max: 0.1957E+01   T at   40  2   RLX: 0.767
       a = -3.000      CL =  0.1515
      Cm = -0.0699     CD =  0.08803   =>   CDf =  0.00495    CDp =  0.08308

 Side 1  free  transition at x/c =  0.7238   61
 Side 2  free  transition at x/c =  0.1437   41
 idif Ue xi dudx           1  9.17033628E-02  3.74424458E-03   24.491819    
 Uenew xinew           2  1.60610080E-02  6.55770302E-04

   6   rms: 0.3296E+00   max: 0.2578E+01   T at   61  1   RLX: 0.506
       a = -3.000      CL = -0.0343
      Cm = -0.0367     CD =  0.10805   =>   CDf =  0.00447    CDp =  0.10359

 Side 1  free  transition at x/c =  0.6935   59
 Side 2  free  transition at x/c =  0.1332   41

   7   rms: 0.1853E+00   max: -.9484E+00   T at   41  2   RLX: 0.527
       a = -3.000      CL =  0.0686
      Cm = -0.0532     CD =  0.09761   =>   CDf =  0.00395    CDp =  0.09366

 Side 1  free  transition at x/c =  0.7062   60
 Side 2  free  transition at x/c =  0.1325   40

   8   rms: 0.1343E+00   max: 0.1666E+01   T at   60  1   RLX: 0.510
       a = -3.000      CL =  0.0180
      Cm = -0.0481     CD =  0.10432   =>   CDf =  0.00422    CDp =  0.10010

 Side 1  free  transition at x/c =  0.6896   59
 Side 2  free  transition at x/c =  0.1340   40
 idif Ue xi dudx           1  9.82303768E-02  4.04548645E-03   24.281475    
 Uenew xinew           2  2.32376680E-02  9.57012177E-04

   9   rms: 0.1223E+00   max: 0.1275E+01   T at   59  1   RLX: 0.634
       a = -3.000      CL = -0.0312
      Cm = -0.0440     CD =  0.10907   =>   CDf =  0.00420    CDp =  0.10487

 Side 1  free  transition at x/c =  0.6726   58
 Side 2  free  transition at x/c =  0.1347   41

  10   rms: 0.1054E+00   max: -.6113E+00   T at   58  1   RLX: 0.818
       a = -3.000      CL =  0.0325
      Cm = -0.0567     CD =  0.10328   =>   CDf =  0.00388    CDp =  0.09941

 Side 1  free  transition at x/c =  0.6836   59
 Side 2  free  transition at x/c =  0.1348   40

  11   rms: 0.1122E+01   max: 0.1645E+02   T at    2  1   RLX: 0.072
       a = -3.000      CL =  0.0710
      Cm = -0.0604     CD =  0.10539   =>   CDf =  0.00408    CDp =  0.10131

 Side 1  free  transition at x/c =  0.6941   60
 Side 2  free  transition at x/c =  0.1350   40

  12   rms: 0.1263E+00   max: -.5821E+00   T at   60  1   RLX: 0.859
       a = -3.000      CL =  0.1549
      Cm = -0.0917     CD =  0.08599   =>   CDf =  0.00419    CDp =  0.08180

 Side 1  free  transition at x/c =  0.7089   60
 Side 2  free  transition at x/c =  0.1360   41

  13   rms: 0.2594E+00   max: -.9820E+00   T at   41  2   RLX: 0.509
       a = -3.000      CL =  0.0693
      Cm = -0.0631     CD =  0.09345   =>   CDf =  0.00440    CDp =  0.08904

 MRCHDU: Convergence failed at  81  side 2    Res =  0.5047E+01
 MRCHDU: Convergence failed at  82  side 2    Res =  0.8897E+01
 MRCHDU: Convergence failed at  83  side 2    Res =  0.2582E+01
 MRCHDU: Convergence failed at  84  side 2    Res =  0.1965E+01
 MRCHDU: Convergence failed at  85  side 2    Res =  0.1533E+01
 MRCHDU: Convergence failed at  86  side 2    Res =  0.1547E+01
 MRCHDU: Convergence failed at  87  side 2    Res =  0.1688E+01
 Side 1  free  transition at x/c =  0.6999   60
 Side 2  free  transition at x/c =  0.1354   40

  14   rms: 0.1870E+00   max: 0.8156E+00   T at   41  2   RLX: 0.835
       a = -3.000      CL =  0.1374
      Cm = -0.0816     CD =  0.09265   =>   CDf =  0.00418    CDp =  0.08846

 Side 1  free  transition at x/c =  0.7180   61
 Side 2  free  transition at x/c =  0.1353   40

  15   rms: 0.2832E+00   max: 0.1837E+01   D at   72  2   RLX: 0.817
       a = -3.000      CL =  0.3929
      Cm = -0.1513     CD =  0.06398   =>   CDf =  0.00484    CDp =  0.05913

 Side 1  free  transition at x/c =  0.7334   62
 Side 2  free  transition at x/c =  0.1506   41

  16   rms: 0.3912E+00   max: 0.4122E+01   T at   41  2   RLX: 0.364
       a = -3.000      CL =  0.3732
      Cm = -0.1525     CD =  0.05079   =>   CDf =  0.00523    CDp =  0.04556

 MRCHDU: Convergence failed at  67  side 2    Res =  0.2361E+01
 MRCHDU: Convergence failed at  68  side 2    Res =  0.1838E+01
 MRCHDU: Convergence failed at  69  side 2    Res =  0.1401E+01
 Side 1  free  transition at x/c =  0.7302   62
 Side 2  free  transition at x/c =  0.1321   39

  17   rms: 0.2263E+01   max: -.2815E+02   T at   39  2   RLX: 0.018
       a = -3.000      CL =  0.3211
      Cm = -0.1389     CD =  0.05356   =>   CDf =  0.00492    CDp =  0.04864

 Side 1  free  transition at x/c =  0.7304   62
 Side 2  free  transition at x/c =  0.1337   39

  18   rms: 0.2595E+01   max: 0.9573E+01   D at   41  2   RLX: 0.083
       a = -3.000      CL =  0.2617
      Cm = -0.1046     CD =  0.07310   =>   CDf =  0.00489    CDp =  0.06821

 Side 1  free  transition at x/c =  0.7324   62
 Side 2  free  transition at x/c =  0.1323   39

  19   rms: 0.4717E+00   max: 0.2754E+01   D at   72  2   RLX: 0.545
       a = -3.000      CL =  0.2796
      Cm = -0.1087     CD =  0.07787   =>   CDf =  0.00494    CDp =  0.07293

 MRCHDU: Convergence failed at  72  side 2    Res =  0.1842E+01
 MRCHDU: Convergence failed at  73  side 2    Res =  0.1970E+01
 MRCHDU: Convergence failed at  74  side 2    Res =  0.2082E+01
 MRCHDU: Convergence failed at  75  side 2    Res =  0.2149E+01
 MRCHDU: Convergence failed at  76  side 2    Res =  0.2249E+01
 Side 1  free  transition at x/c =  0.7241   62
 Side 2  free  transition at x/c =  0.1342   39

  20   rms: 0.3156E+00   max: -.2009E+01   T at   62  1   RLX: 0.249
       a = -3.000      CL =  0.3822
      Cm = -0.1220     CD =  0.06812   =>   CDf =  0.00437    CDp =  0.06375

 Side 1  free  transition at x/c =  0.7454   64
 Side 2  free  transition at x/c =  0.1347   38

  21   rms: 0.4077E+00   max: -.6357E+01   T at    2  1   RLX: 0.079
       a = -3.000      CL =  0.4075
      Cm = -0.1303     CD =  0.06551   =>   CDf =  0.00477    CDp =  0.06074

 Side 1  free  transition at x/c =  0.7479   64
 Side 2  free  transition at x/c =  0.1348   38

  22   rms: 0.1015E+02   max: -.4402E+02   D at   74  1   RLX: 0.011
       a = -3.000      CL =  0.5614
      Cm = -0.1622     CD =  0.05583   =>   CDf =  0.00482    CDp =  0.05101

 MRCHDU: Convergence failed at  77  side 1    Res =  0.1578E+02
 Side 1  free  transition at x/c =  0.7722   65
 Side 2  free  transition at x/c =  0.1350   38

  23   rms: 0.1096E+00   max: -.5806E+00   D at   38  2   RLX: 0.861
       a = -3.000      CL =  0.5138
      Cm = -0.1661     CD =  0.05735   =>   CDf =  0.00508    CDp =  0.05227

 Side 1  free  transition at x/c =  0.7625   65
 Side 2  free  transition at x/c =  0.1379   39

  24   rms: 0.4796E+00   max: 0.2584E+01   D at   60  2   RLX: 0.581
       a = -3.000      CL =  0.5950
      Cm = -0.2004     CD =  0.04247   =>   CDf =  0.00629    CDp =  0.03618

 MRCHDU: Convergence failed at  60  side 2    Res =  0.2588E+01
 MRCHDU: Convergence failed at  61  side 2    Res =  0.2012E+01
 MRCHDU: Convergence failed at  62  side 2    Res =  0.1725E+01
 MRCHDU: Convergence failed at  63  side 2    Res =  0.1644E+01
 MRCHDU: Convergence failed at  64  side 2    Res =  0.1956E+01
 MRCHDU: Convergence failed at  65  side 2    Res =  0.2271E+01
 MRCHDU: Convergence failed at  66  side 2    Res =  0.2429E+01
 MRCHDU: Convergence failed at  67  side 2    Res =  0.3048E+01
 MRCHDU: Convergence failed at  68  side 2    Res =  0.3495E+01
 MRCHDU: Convergence failed at  69  side 2    Res =  0.4004E+01
 MRCHDU: Convergence failed at  70  side 2    Res =  0.3849E+01
 MRCHDU: Convergence failed at  71  side 2    Res =  0.4461E+01
 MRCHDU: Convergence failed at  72  side 2    Res =  0.4869E+01
 MRCHDU: Convergence failed at  73  side 2    Res =  0.5218E+01
 MRCHDU: Convergence failed at  74  side 2    Res =  0.5408E+01
 MRCHDU: Convergence failed at  75  side 2    Res =  0.5954E+01
 MRCHDU: Convergence failed at  76  side 2    Res =  0.6510E+01
 MRCHDU: Convergence failed at  77  side 2    Res =  0.7260E+01
 MRCHDU: Convergence failed at  78  side 2    Res =  0.8696E+01
 MRCHDU: Convergence failed at  79  side 2    Res =  0.1138E+02
 MRCHDU: Convergence failed at  80  side 2    Res =  0.4677E+02
 MRCHDU: Convergence failed at  81  side 2    Res =  0.3953E+02
 Side 1  free  transition at x/c =  0.7606   65
 Side 2  free  transition at x/c =  0.1388   39
 idif Ue xi dudx           1  0.12000319      4.05538082E-03   29.591103    
 Uenew xinew           2  3.37690860E-02  1.14119053E-03

  25   rms: 0.1853E+00   max: 0.1035E+01   T at   39  2
       a = -3.000      CL =  0.4430
      Cm = -0.1684     CD =  0.05221   =>   CDf =  0.00533    CDp =  0.04689

 Side 1  free  transition at x/c =  0.7567   64
 Side 2  free  transition at x/c =  0.1301   39

  26   rms: 0.1731E+01   max: 0.5414E+01   D at   43  2   RLX: 0.108
       a = -3.000      CL =  0.4148
      Cm = -0.1357     CD =  0.06257   =>   CDf =  0.00502    CDp =  0.05755

 Side 1  free  transition at x/c =  0.7575   65
 Side 2  free  transition at x/c =  0.1639   41

  27   rms: 0.3428E+00   max: 0.2258E+01   D at   67  2   RLX: 0.664
       a = -3.000      CL =  0.5658
      Cm = -0.1854     CD =  0.05096   =>   CDf =  0.00560    CDp =  0.04535

 MRCHDU: Convergence failed at  67  side 2    Res =  0.3099E+01
 MRCHDU: Convergence failed at  68  side 2    Res =  0.2620E+01
 MRCHDU: Convergence failed at  69  side 2    Res =  0.2360E+01
 MRCHDU: Convergence failed at  70  side 2    Res =  0.2137E+01
 MRCHDU: Convergence failed at  71  side 2    Res =  0.1926E+01
 MRCHDU: Convergence failed at  72  side 2    Res =  0.1806E+01
 MRCHDU: Convergence failed at  73  side 2    Res =  0.1694E+01
 MRCHDU: Convergence failed at  74  side 2    Res =  0.1595E+01
 MRCHDU: Convergence failed at  75  side 2    Res =  0.1496E+01
 MRCHDU: Convergence failed at  76  side 2    Res =  0.1401E+01
 MRCHDU: Convergence failed at  77  side 2    Res =  0.1307E+01
 MRCHDU: Convergence failed at  78  side 2    Res =  0.1193E+01
 MRCHDU: Convergence failed at  79  side 2    Res =  0.1092E+01
 MRCHDU: Convergence failed at  80  side 2    Res =  0.9916E+00
 MRCHDU: Convergence failed at  81  side 2    Res =  0.8977E+00
 Side 1  free  transition at x/c =  0.7592   65
 Side 2  free  transition at x/c =  0.1558   40

  28   rms: 0.5576E+00   max: -.1108E+02   T at   40  2   RLX: 0.045
       a = -3.000      CL =  0.5096
      Cm = -0.1604     CD =  0.05116   =>   CDf =  0.00512    CDp =  0.04604

 Side 1  free  transition at x/c =  0.7591   65
 Side 2  free  transition at x/c =  0.1513   40

  29   rms: 0.1503E+01   max: -.1571E+02   T at   40  2   RLX: 0.032
       a = -3.000      CL =  0.4816
      Cm = -0.1531     CD =  0.05191   =>   CDf =  0.00531    CDp =  0.04660

 Side 1  free  transition at x/c =  0.7590   65
 Side 2  free  transition at x/c =  0.1515   40

  30   rms: 0.3424E+00   max: 0.1483E+01   D at   66  2   RLX: 0.646
       a = -3.000      CL =  0.4691
      Cm = -0.1303     CD =  0.07006   =>   CDf =  0.00504    CDp =  0.06502

 Side 1  free  transition at x/c =  0.7590   66
 Side 2  free  transition at x/c =  0.1510   39

  31   rms: 0.6685E-01   max: -.7435E+00   D at   39  2   RLX: 0.672
       a = -3.000      CL =  0.5084
      Cm = -0.1359     CD =  0.06476   =>   CDf =  0.00493    CDp =  0.05983

 Side 1  free  transition at x/c =  0.7609   66
 Side 2  free  transition at x/c =  0.1558   39
 idif Ue xi dudx           1  8.49310979E-02  2.95734406E-03   28.718708    
 Uenew xinew           2  2.96135922E-03  1.03116035E-04

  32   rms: 0.3295E-01   max: -.4341E+00   D at   39  2
       a = -3.000      CL =  0.5050
      Cm = -0.1409     CD =  0.06531   =>   CDf =  0.00507    CDp =  0.06024

 Side 1  free  transition at x/c =  0.7613   65
 Side 2  free  transition at x/c =  0.1600   41

  33   rms: 0.3770E-01   max: -.1176E+00   D at   44  2
       a = -3.000      CL =  0.4916
      Cm = -0.1433     CD =  0.06470   =>   CDf =  0.00494    CDp =  0.05976

 Side 1  free  transition at x/c =  0.7608   65
 Side 2  free  transition at x/c =  0.1594   41

  34   rms: 0.6869E-01   max: -.3223E+00   D at   41  2
       a = -3.000      CL =  0.4916
      Cm = -0.1435     CD =  0.06387   =>   CDf =  0.00494    CDp =  0.05893

 Side 1  free  transition at x/c =  0.7611   65
 Side 2  free  transition at x/c =  0.1598   41

  35   rms: 0.2355E-01   max: -.1079E+00   T at   41  2
       a = -3.000      CL =  0.4882
      Cm = -0.1439     CD =  0.06485   =>   CDf =  0.00495    CDp =  0.05990

 Side 1  free  transition at x/c =  0.7604   65
 Side 2  free  transition at x/c =  0.1601   41

  36   rms: 0.4534E-02   max: -.1791E-01   D at   41  2
       a = -3.000      CL =  0.4872
      Cm = -0.1439     CD =  0.06521   =>   CDf =  0.00494    CDp =  0.06026

 Side 1  free  transition at x/c =  0.7602   65
 Side 2  free  transition at x/c =  0.1602   41

  37   rms: 0.3324E-03   max: -.1571E-02   D at   95  2
       a = -3.000      CL =  0.4870
      Cm = -0.1439     CD =  0.06529   =>   CDf =  0.00494    CDp =  0.06034

 Side 1  free  transition at x/c =  0.7602   65
 Side 2  free  transition at x/c =  0.1602   41

  38   rms: 0.1081E-04   max: -.6041E-04   D at   95  2
       a = -3.000      CL =  0.4870
      Cm = -0.1439     CD =  0.06529   =>   CDf =  0.00494    CDp =  0.06034
 plradd ia,ip,cpol            3           0  0.21950345    

 Point added to stored polar  1
 Point written to save file  goe652_Re150k.base.pol                          
 Dump file unspecified or not available
 Calculating wake trajectory ...
 Calculating source influence matrix ...

 Solving BL system ...

 Side 1  free  transition at x/c =  0.7602   65
 Side 2  free  transition at x/c =  0.1602   41

   1   rms: 0.1098E+00   max: -.6303E+00   T at   41  2   RLX: 0.793
       a = -2.500      CL =  0.5366
      Cm = -0.1413     CD =  0.06060   =>   CDf =  0.00482    CDp =  0.05577

 Side 1  free  transition at x/c =  0.7559   66
 Side 2  free  transition at x/c =  0.1622   40

   2   rms: 0.4837E-01   max: -.2697E+00   T at   40  2
       a = -2.500      CL =  0.5608
      Cm = -0.1453     CD =  0.05933   =>   CDf =  0.00502    CDp =  0.05431

 Side 1  free  transition at x/c =  0.7553   65
 Side 2  free  transition at x/c =  0.1648   40
 idif Ue xi dudx           1  8.22376981E-02  2.97391415E-03   27.653017    
 Uenew xinew           2  3.30968248E-03  1.19686127E-04

   3   rms: 0.8821E-01   max: 0.6018E+00   T at   40  2
       a = -2.500      CL =  0.4638
      Cm = -0.1294     CD =  0.06483   =>   CDf =  0.00519    CDp =  0.05964

 Side 1  free  transition at x/c =  0.7428   64
 Side 2  free  transition at x/c =  0.1608   41

   4   rms: 0.5302E-01   max: 0.2862E+00   D at    2  2
       a = -2.500      CL =  0.5035
      Cm = -0.1361     CD =  0.06215   =>   CDf =  0.00465    CDp =  0.05750

 Side 1  free  transition at x/c =  0.7479   65
 Side 2  free  transition at x/c =  0.1621   40

   5   rms: 0.1641E-01   max: -.8671E-01   D at   40  2
       a = -2.500      CL =  0.5087
      Cm = -0.1378     CD =  0.06237   =>   CDf =  0.00489    CDp =  0.05748

 Side 1  free  transition at x/c =  0.7483   65
 Side 2  free  transition at x/c =  0.1627   40

   6   rms: 0.3264E-02   max: 0.1242E-01   D at   75  1
       a = -2.500      CL =  0.5059
      Cm = -0.1375     CD =  0.06273   =>   CDf =  0.00490    CDp =  0.05783

 Side 1  free  transition at x/c =  0.7478   65
 Side 2  free  transition at x/c =  0.1627   40

   7   rms: 0.2478E-03   max: 0.1223E-02   T at   40  2
       a = -2.500      CL =  0.5057
      Cm = -0.1375     CD =  0.06276   =>   CDf =  0.00489    CDp =  0.05786

 Side 1  free  transition at x/c =  0.7478   65
 Side 2  free  transition at x/c =  0.1627   40

   8   rms: 0.2764E-05   max: 0.2268E-04   D at   86  2
       a = -2.500      CL =  0.5057
      Cm = -0.1375     CD =  0.06276   =>   CDf =  0.00489    CDp =  0.05786
 plradd ia,ip,cpol            4           0  0.21950345    

 Point added to stored polar  1
 Point written to save file  goe652_Re150k.base.pol                          
 Dump file unspecified or not available
 Calculating wake trajectory ...
 Calculating source influence matrix ...

 Solving BL system ...

 Side 1  free  transition at x/c =  0.7478   65
 Side 2  free  transition at x/c =  0.1627   40

   1   rms: 0.4757E-01   max: 0.3955E+00   T at   65  1   RLX: 0.956
       a = -2.000      CL =  0.4901
      Cm = -0.1280     CD =  0.06242   =>   CDf =  0.00490    CDp =  0.05752

 Side 1  free  transition at x/c =  0.7307   64
 Side 2  free  transition at x/c =  0.1661   40
 idif Ue xi dudx           1  0.14055195      4.78184223E-03   29.392847    
 Uenew xinew           2  5.66580705E-02  1.92761421E-03

   2   rms: 0.2320E+00   max: 0.2161E+01   T at   40  2   RLX: 0.694
       a = -2.000      CL =  0.3012
      Cm = -0.0933     CD =  0.07318   =>   CDf =  0.00496    CDp =  0.06821

 Side 1  free  transition at x/c =  0.7087   62
 Side 2  free  transition at x/c =  0.1581   40
 idif Ue xi dudx           1  9.68633816E-02  3.22628021E-03   30.023239    
 Uenew xinew           2  9.36995074E-03  3.12089920E-04

   3   rms: 0.6736E-01   max: 0.4372E+00   T at   62  1
       a = -2.000      CL =  0.2315
      Cm = -0.0848     CD =  0.07738   =>   CDf =  0.00459    CDp =  0.07278

 Side 1  free  transition at x/c =  0.6951   61
 Side 2  free  transition at x/c =  0.1560   41

   4   rms: 0.8449E-01   max: -.5402E+00   T at   41  2   RLX: 0.926
       a = -2.000      CL =  0.3100
      Cm = -0.0978     CD =  0.07411   =>   CDf =  0.00422    CDp =  0.06989

 Side 1  free  transition at x/c =  0.7048   62
 Side 2  free  transition at x/c =  0.1554   40
 idif Ue xi dudx           1  0.13606961      4.78947163E-03   28.410151    
 Uenew xinew           2  5.32770231E-02  1.87528133E-03

   5   rms: 0.1437E+00   max: 0.8626E+00   T at   62  1
       a = -2.000      CL =  0.1320
      Cm = -0.0643     CD =  0.09034   =>   CDf =  0.00458    CDp =  0.08575

 Side 1  free  transition at x/c =  0.6805   60
 Side 2  free  transition at x/c =  0.1452   40

   6   rms: 0.4539E+00   max: -.2995E+01   T at   60  1   RLX: 0.167
       a = -2.000      CL =  0.1854
      Cm = -0.0695     CD =  0.08766   =>   CDf =  0.00418    CDp =  0.08348

 Side 1  free  transition at x/c =  0.6986   61
 Side 2  free  transition at x/c =  0.1442   40

   7   rms: 0.1037E+00   max: -.5401E+00   D at   40  2   RLX: 0.926
       a = -2.000      CL =  0.3321
      Cm = -0.1014     CD =  0.07112   =>   CDf =  0.00423    CDp =  0.06688

 Side 1  free  transition at x/c =  0.7099   62
 Side 2  free  transition at x/c =  0.1939   43

   8   rms: 0.2807E+00   max: 0.2772E+01   T at   43  2   RLX: 0.541
       a = -2.000      CL =  0.3524
      Cm = -0.1212     CD =  0.06498   =>   CDf =  0.00477    CDp =  0.06021

 MRCHDU: Convergence failed at  75  side 2    Res =  0.1201E+01
 MRCHDU: Convergence failed at  76  side 2    Res =  0.1091E+01
 MRCHDU: Convergence failed at  77  side 2    Res =  0.1005E+01
 MRCHDU: Convergence failed at  78  side 2    Res =  0.1027E+01
 MRCHDU: Convergence failed at  79  side 2    Res =  0.1012E+01
 Side 1  free  transition at x/c =  0.7015   62
 Side 2  free  transition at x/c =  0.1720   41

   9   rms: 0.2216E+00   max: 0.1825E+01   T at   42  2   RLX: 0.543
       a = -2.000      CL =  0.4076
      Cm = -0.1295     CD =  0.06399   =>   CDf =  0.00449    CDp =  0.05951

 Side 1  free  transition at x/c =  0.7221   63
 Side 2  free  transition at x/c =  0.1685   41

  10   rms: 0.4560E+00   max: 0.1828E+01   D at   43  2   RLX: 0.662
       a = -2.000      CL =  0.4193
      Cm = -0.1094     CD =  0.07275   =>   CDf =  0.00477    CDp =  0.06797

 Side 1  free  transition at x/c =  0.7260   64
 Side 2  free  transition at x/c =  0.1578   39

  11   rms: 0.2634E+00   max: 0.3437E+01   T at   40  2   RLX: 0.381
       a = -2.000      CL =  0.5704
      Cm = -0.1439     CD =  0.05840   =>   CDf =  0.00471    CDp =  0.05369

 Side 1  free  transition at x/c =  0.7400   65
 Side 2  free  transition at x/c =  0.1560   39

  12   rms: 0.6327E-01   max: -.5965E+00   D at   40  2   RLX: 0.838
       a = -2.000      CL =  0.5637
      Cm = -0.1469     CD =  0.05845   =>   CDf =  0.00498    CDp =  0.05347

 Side 1  free  transition at x/c =  0.7377   65
 Side 2  free  transition at x/c =  0.2438   45

  13   rms: 0.3930E+00   max: 0.5102E+01   T at   45  2   RLX: 0.294
       a = -2.000      CL =  0.6114
      Cm = -0.1698     CD =  0.05204   =>   CDf =  0.00500    CDp =  0.04704

 Side 1  free  transition at x/c =  0.7375   65
 Side 2  free  transition at x/c =  0.2140   43

  14   rms: 0.8857E+00   max: 0.1250E+02   T at   43  2   RLX: 0.120
       a = -2.000      CL =  0.5575
      Cm = -0.1502     CD =  0.04976   =>   CDf =  0.00511    CDp =  0.04465

 Side 1  free  transition at x/c =  0.7370   65
 Side 2  free  transition at x/c =  0.1864   41

  15   rms: 0.5632E+00   max: -.6259E+01   T at   42  2   RLX: 0.080
       a = -2.000      CL =  0.5225
      Cm = -0.1312     CD =  0.06077   =>   CDf =  0.00486    CDp =  0.05592

 Side 1  free  transition at x/c =  0.7374   66
 Side 2  free  transition at x/c =  0.1781   40

  16   rms: 0.1128E+00   max: 0.1687E+01   T at   40  2   RLX: 0.684
       a = -2.000      CL =  0.5402
      Cm = -0.1335     CD =  0.06021   =>   CDf =  0.00495    CDp =  0.05526

 Side 1  free  transition at x/c =  0.7379   66
 Side 2  free  transition at x/c =  0.1710   39
 idif Ue xi dudx           1  9.41507220E-02  3.11756134E-03   30.200119    
 Uenew xinew           2  9.17674322E-03  3.03864479E-04

  17   rms: 0.6242E-01   max: -.6179E+00   D at   43  2   RLX: 0.809
       a = -2.000      CL =  0.5410
      Cm = -0.1365     CD =  0.06146   =>   CDf =  0.00509    CDp =  0.05637

 Side 1  free  transition at x/c =  0.7376   65
 Side 2  free  transition at x/c =  0.1719   40

  18   rms: 0.1539E+01   max: 0.8354E+01   T at   41  2   RLX: 0.065
       a = -2.000      CL =  0.5670
      Cm = -0.1563     CD =  0.06288   =>   CDf =  0.00497    CDp =  0.05791

 Side 1  free  transition at x/c =  0.7365   65
 Side 2  free  transition at x/c =  0.1664   40

  19   rms: 0.2640E+00   max: 0.1160E+01   D at   41  2
       a = -2.000      CL =  0.5034
      Cm = -0.1212     CD =  0.06978   =>   CDf =  0.00508    CDp =  0.06470

 Side 1  free  transition at x/c =  0.7359   65
 Side 2  free  transition at x/c =  0.1599   40

  20   rms: 0.1285E+00   max: -.1102E+01   T at   40  2   RLX: 0.454
       a = -2.000      CL =  0.5490
      Cm = -0.1298     CD =  0.06103   =>   CDf =  0.00475    CDp =  0.05628

 Side 1  free  transition at x/c =  0.7376   66
 Side 2  free  transition at x/c =  0.1612   39

  21   rms: 0.7840E-01   max: -.7222E+00   D at   39  2   RLX: 0.692
       a = -2.000      CL =  0.5582
      Cm = -0.1327     CD =  0.06059   =>   CDf =  0.00491    CDp =  0.05568

 Side 1  free  transition at x/c =  0.7386   66
 Side 2  free  transition at x/c =  0.1648   39

  22   rms: 0.5635E-01   max: -.5625E+00   D at   39  2   RLX: 0.889
       a = -2.000      CL =  0.5543
      Cm = -0.1371     CD =  0.05983   =>   CDf =  0.00494    CDp =  0.05490

 Side 1  free  transition at x/c =  0.7383   66
 Side 2  free  transition at x/c =  0.1706   39
 idif Ue xi dudx           1  9.64687467E-02  3.19051743E-03   30.236082    
 Uenew xinew           2  1.13935778E-02  3.76820564E-04

  23   rms: 0.1383E+02   max: -.1297E+03   T at   39  2   RLX: 0.004
       a = -2.000      CL =  0.5653
      Cm = -0.1459     CD =  0.06288   =>   CDf =  0.00509    CDp =  0.05778

 Side 1  free  transition at x/c =  0.7376   65
 Side 2  free  transition at x/c =  0.1669   40

  24   rms: 0.3724E-01   max: -.5407E+00   D at   40  2   RLX: 0.925
       a = -2.000      CL =  0.5497
      Cm = -0.1410     CD =  0.06064   =>   CDf =  0.00498    CDp =  0.05566

 Side 1  free  transition at x/c =  0.7372   65
 Side 2  free  transition at x/c =  0.1713   40

  25   rms: 0.1225E+00   max: 0.5782E+00   T at   41  2   RLX: 0.874
       a = -2.000      CL =  0.5495
      Cm = -0.1556     CD =  0.05982   =>   CDf =  0.00497    CDp =  0.05486

 Side 1  free  transition at x/c =  0.7362   65
 Side 2  free  transition at x/c =  0.1664   40

  26   rms: 0.3673E+00   max: 0.1326E+01   D at   41  2   RLX: 0.721
       a = -2.000      CL =  0.5103
      Cm = -0.1237     CD =  0.06797   =>   CDf =  0.00509    CDp =  0.06288

 Side 1  free  transition at x/c =  0.7359   65
 Side 2  free  transition at x/c =  0.1592   39

  27   rms: 0.7072E+00   max: 0.9530E+01   T at   40  2   RLX: 0.157
       a = -2.000      CL =  0.5111
      Cm = -0.1343     CD =  0.06685   =>   CDf =  0.00490    CDp =  0.06195

 Side 1  free  transition at x/c =  0.7347   65
 Side 2  free  transition at x/c =  0.1587   39

  28   rms: 0.1573E+00   max: 0.1278E+01   T at   40  2   RLX: 0.614
       a = -2.000      CL =  0.5809
      Cm = -0.1648     CD =  0.05455   =>   CDf =  0.00503    CDp =  0.04952

 Side 1  free  transition at x/c =  0.7358   65
 Side 2  free  transition at x/c =  0.1556   39

  29   rms: 0.6247E+00   max: 0.2654E+01   D at   68  2   RLX: 0.278
       a = -2.000      CL =  0.5829
      Cm = -0.1607     CD =  0.05010   =>   CDf =  0.00546    CDp =  0.04464

 Side 1  free  transition at x/c =  0.7355   65
 Side 2  free  transition at x/c =  0.1547   39

  30   rms: 0.2062E+00   max: 0.9548E+00   D at   68  2   RLX: 0.828
       a = -2.000      CL =  0.5360
      Cm = -0.1431     CD =  0.05972   =>   CDf =  0.00516    CDp =  0.05456

 Side 1  free  transition at x/c =  0.7359   65
 Side 2  free  transition at x/c =  0.2030   42

  31   rms: 0.3543E+00   max: -.2021E+01   T at   42  2   RLX: 0.247
       a = -2.000      CL =  0.5728
      Cm = -0.1655     CD =  0.05708   =>   CDf =  0.00496    CDp =  0.05211

 Side 1  free  transition at x/c =  0.7357   65
 Side 2  free  transition at x/c =  0.1958   42

  32   rms: 0.6642E+00   max: 0.2878E+01   D at   43  2   RLX: 0.521
       a = -2.000      CL =  0.5022
      Cm = -0.1209     CD =  0.06827   =>   CDf =  0.00512    CDp =  0.06315

 Side 1  free  transition at x/c =  0.7352   65
 Side 2  free  transition at x/c =  0.1595   40

  33   rms: 0.1405E+00   max: -.1275E+01   T at   40  2   RLX: 0.392
       a = -2.000      CL =  0.5576
      Cm = -0.1313     CD =  0.06318   =>   CDf =  0.00476    CDp =  0.05843

 Side 1  free  transition at x/c =  0.7367   66
 Side 2  free  transition at x/c =  0.1604   39

  34   rms: 0.9909E-01   max: -.7843E+00   D at   40  2   RLX: 0.637
       a = -2.000      CL =  0.5734
      Cm = -0.1336     CD =  0.06178   =>   CDf =  0.00490    CDp =  0.05688

 Side 1  free  transition at x/c =  0.7384   66
 Side 2  free  transition at x/c =  0.1629   39

  35   rms: 0.6967E-01   max: -.6766E+00   D at   39  2   RLX: 0.739
       a = -2.000      CL =  0.5700
      Cm = -0.1360     CD =  0.06118   =>   CDf =  0.00494    CDp =  0.05624

 Side 1  free  transition at x/c =  0.7387   66
 Side 2  free  transition at x/c =  0.1675   39
 idif Ue xi dudx           1  9.08468217E-02  3.00133228E-03   30.268831    
 Uenew xinew           2  5.67950495E-03  1.87635422E-04

  36   rms: 0.5420E-01   max: -.3913E+00   D at   40  2
       a = -2.000      CL =  0.5542
      Cm = -0.1402     CD =  0.05953   =>   CDf =  0.00509    CDp =  0.05443

 Side 1  free  transition at x/c =  0.7379   65
 Side 2  free  transition at x/c =  0.1714   40

  37   rms: 0.2045E+00   max: 0.1046E+01   T at   41  2   RLX: 0.491
       a = -2.000      CL =  0.5554
      Cm = -0.1541     CD =  0.06169   =>   CDf =  0.00497    CDp =  0.05672

 Side 1  free  transition at x/c =  0.7366   65
 Side 2  free  transition at x/c =  0.1664   40

  38   rms: 0.2334E+00   max: 0.8978E+00   D at   41  2
       a = -2.000      CL =  0.5182
      Cm = -0.1254     CD =  0.06892   =>   CDf =  0.00506    CDp =  0.06386

 Side 1  free  transition at x/c =  0.7361   65
 Side 2  free  transition at x/c =  0.1611   40

  39   rms: 0.7487E-01   max: -.7604E+00   T at   40  2   RLX: 0.658
       a = -2.000      CL =  0.5543
      Cm = -0.1346     CD =  0.05995   =>   CDf =  0.00477    CDp =  0.05518

 Side 1  free  transition at x/c =  0.7376   66
 Side 2  free  transition at x/c =  0.1640   39

  40   rms: 0.4984E-01   max: -.5928E+00   D at   39  2   RLX: 0.843
       a = -2.000      CL =  0.5530
      Cm = -0.1365     CD =  0.05987   =>   CDf =  0.00492    CDp =  0.05494

 Side 1  free  transition at x/c =  0.7381   66
 Side 2  free  transition at x/c =  0.1697   39
 idif Ue xi dudx           1  0.10151108      3.36432457E-03   30.172794    
 Uenew xinew           2  1.66139770E-02  5.50627708E-04

  41   rms: 0.7741E-01   max: -.7038E+00   T at   39  2   RLX: 0.710
       a = -2.000      CL =  0.5522
      Cm = -0.1439     CD =  0.06026   =>   CDf =  0.00509    CDp =  0.05517

 Side 1  free  transition at x/c =  0.7374   65
 Side 2  free  transition at x/c =  0.1676   40

  42   rms: 0.3604E-01   max: -.4985E+00   D at   40  2
       a = -2.000      CL =  0.5501
      Cm = -0.1417     CD =  0.06066   =>   CDf =  0.00498    CDp =  0.05568

 Side 1  free  transition at x/c =  0.7372   65
 Side 2  free  transition at x/c =  0.1718   40

  43   rms: 0.2020E+00   max: 0.9541E+00   T at   41  2   RLX: 0.637
       a = -2.000      CL =  0.5463
      Cm = -0.1584     CD =  0.06140   =>   CDf =  0.00497    CDp =  0.05643

 Side 1  free  transition at x/c =  0.7357   65
 Side 2  free  transition at x/c =  0.1648   40

  44   rms: 0.6382E+00   max: -.2676E+01   T at   40  2   RLX: 0.187
       a = -2.000      CL =  0.5288
      Cm = -0.1460     CD =  0.05412   =>   CDf =  0.00513    CDp =  0.04899

 Side 1  free  transition at x/c =  0.7356   65
 Side 2  free  transition at x/c =  0.1633   40

  45   rms: 0.1158E+00   max: -.7296E+00   D at   40  2   RLX: 0.685
       a = -2.000      CL =  0.5459
      Cm = -0.1408     CD =  0.06025   =>   CDf =  0.00498    CDp =  0.05527

 Side 1  free  transition at x/c =  0.7366   65
 Side 2  free  transition at x/c =  0.1688   40

  46   rms: 0.3048E-01   max: -.4175E+00   D at   40  2
       a = -2.000      CL =  0.5501
      Cm = -0.1435     CD =  0.05997   =>   CDf =  0.00498    CDp =  0.05500

 Side 1  free  transition at x/c =  0.7371   65
 Side 2  free  transition at x/c =  0.1728   41

  47   rms: 0.6959E-01   max: -.3036E+00   D at   41  2
       a = -2.000      CL =  0.5484
      Cm = -0.1472     CD =  0.05788   =>   CDf =  0.00497    CDp =  0.05291

 Side 1  free  transition at x/c =  0.7373   65
 Side 2  free  transition at x/c =  0.1724   40

  48   rms: 0.1013E+00   max: -.3688E+00   D at   84  2
       a = -2.000      CL =  0.5552
      Cm = -0.1621     CD =  0.05761   =>   CDf =  0.00500    CDp =  0.05261

 Side 1  free  transition at x/c =  0.7361   65
 Side 2  free  transition at x/c =  0.1674   40

  49   rms: 0.5870E+00   max: -.3787E+01   T at   40  2   RLX: 0.132
       a = -2.000      CL =  0.5606
      Cm = -0.1607     CD =  0.04836   =>   CDf =  0.00523    CDp =  0.04313

 Side 1  free  transition at x/c =  0.7359   65
 Side 2  free  transition at x/c =  0.1650   40

  50   rms: 0.2863E+00   max: 0.1147E+01   D at   71  2   RLX: 0.895
       a = -2.000      CL =  0.5291
      Cm = -0.1274     CD =  0.06826   =>   CDf =  0.00494    CDp =  0.06332

 Side 1  free  transition at x/c =  0.7363   66
 Side 2  free  transition at x/c =  0.1617   39

  51   rms: 0.6426E-01   max: -.6758E+00   D at   39  2   RLX: 0.740
       a = -2.000      CL =  0.5574
      Cm = -0.1361     CD =  0.05966   =>   CDf =  0.00492    CDp =  0.05474

 Side 1  free  transition at x/c =  0.7376   66
 Side 2  free  transition at x/c =  0.1656   39
 idif Ue xi dudx           1  8.91913399E-02  2.94589996E-03   30.276432    
 Uenew xinew           2  4.00263816E-03  1.32203102E-04

  52   rms: 0.4305E-01   max: -.5090E+00   D at   39  2   RLX: 0.982
       a = -2.000      CL =  0.5525
      Cm = -0.1387     CD =  0.05932   =>   CDf =  0.00507    CDp =  0.05425

 Side 1  free  transition at x/c =  0.7379   65
 Side 2  free  transition at x/c =  0.1722   40

  53   rms: 0.8368E-01   max: -.5325E+00   T at   41  2   RLX: 0.939
       a = -2.000      CL =  0.5563
      Cm = -0.1353     CD =  0.05804   =>   CDf =  0.00483    CDp =  0.05321

 Side 1  free  transition at x/c =  0.7387   66
 Side 2  free  transition at x/c =  0.1695   39
 idif Ue xi dudx           1  0.10038832      3.33189964E-03   30.129454    
 Uenew xinew           2  1.56131666E-02  5.18202782E-04

  54   rms: 0.7892E-01   max: -.5231E+00   T at   39  2   RLX: 0.956
       a = -2.000      CL =  0.5411
      Cm = -0.1383     CD =  0.05961   =>   CDf =  0.00508    CDp =  0.05453

 Side 1  free  transition at x/c =  0.7378   65
 Side 2  free  transition at x/c =  0.1679   40

  55   rms: 0.2278E-01   max: -.4602E+00   D at   40  2
       a = -2.000      CL =  0.5498
      Cm = -0.1424     CD =  0.05996   =>   CDf =  0.00496    CDp =  0.05500

 Side 1  free  transition at x/c =  0.7373   65
 Side 2  free  transition at x/c =  0.1722   40

  56   rms: 0.4097E+00   max: 0.1916E+01   T at   41  2   RLX: 0.383
       a = -2.000      CL =  0.5374
      Cm = -0.1607     CD =  0.06440   =>   CDf =  0.00497    CDp =  0.05942

 Side 1  free  transition at x/c =  0.7352   65
 Side 2  free  transition at x/c =  0.1616   40

  57   rms: 0.1861E+00   max: 0.3364E+01   T at   40  2   RLX: 0.446
       a = -2.000      CL =  0.5617
      Cm = -0.1672     CD =  0.04827   =>   CDf =  0.00513    CDp =  0.04314

 Side 1  free  transition at x/c =  0.7358   65
 Side 2  free  transition at x/c =  0.1457   38

  58   rms: 0.2254E+00   max: 0.1339E+01   T at   39  2   RLX: 0.499
       a = -2.000      CL =  0.5648
      Cm = -0.1615     CD =  0.05187   =>   CDf =  0.00525    CDp =  0.04662

 Side 1  free  transition at x/c =  0.7359   65
 Side 2  free  transition at x/c =  0.1455   38

  59   rms: 0.6571E-01   max: -.5024E+00   D at   38  2   RLX: 0.995
       a = -2.000      CL =  0.5755
      Cm = -0.1662     CD =  0.05246   =>   CDf =  0.00520    CDp =  0.04726

 Side 1  free  transition at x/c =  0.7365   65
 Side 2  free  transition at x/c =  0.1449   38

  60   rms: 0.1918E+00   max: 0.9178E+00   D at   74  2
       a = -2.000      CL =  0.5250
      Cm = -0.1490     CD =  0.05708   =>   CDf =  0.00529    CDp =  0.05179

 Side 1  free  transition at x/c =  0.7359   65
 Side 2  free  transition at x/c =  0.1591   39

  61   rms: 0.2305E-01   max: 0.1940E+00   D at   40  2
       a = -2.000      CL =  0.5568
      Cm = -0.1576     CD =  0.05458   =>   CDf =  0.00505    CDp =  0.04953

 Side 1  free  transition at x/c =  0.7367   65
 Side 2  free  transition at x/c =  0.1585   39

  62   rms: 0.2716E-01   max: -.1314E+00   T at   39  2
       a = -2.000      CL =  0.5563
      Cm = -0.1578     CD =  0.05492   =>   CDf =  0.00511    CDp =  0.04981

 Side 1  free  transition at x/c =  0.7365   65
 Side 2  free  transition at x/c =  0.1579   39

  63   rms: 0.4307E-01   max: -.3120E+00   T at   39  2
       a = -2.000      CL =  0.5584
      Cm = -0.1586     CD =  0.05493   =>   CDf =  0.00511    CDp =  0.04982

 Side 1  free  transition at x/c =  0.7365   65
 Side 2  free  transition at x/c =  0.1581   39

  64   rms: 0.3247E-01   max: -.2395E+00   D at   39  2
       a = -2.000      CL =  0.5599
      Cm = -0.1587     CD =  0.05512   =>   CDf =  0.00511    CDp =  0.05002

 Side 1  free  transition at x/c =  0.7365   65
 Side 2  free  transition at x/c =  0.1572   39

  65   rms: 0.6769E-01   max: -.6501E+00   T at   39  2   RLX: 0.769
       a = -2.000      CL =  0.5634
      Cm = -0.1606     CD =  0.05371   =>   CDf =  0.00513    CDp =  0.04858

 Side 1  free  transition at x/c =  0.7365   65
 Side 2  free  transition at x/c =  0.1537   39

  66   rms: 0.1899E+00   max: -.1459E+01   T at   39  2   RLX: 0.343
       a = -2.000      CL =  0.5424
      Cm = -0.1498     CD =  0.05575   =>   CDf =  0.00511    CDp =  0.05064

 Side 1  free  transition at x/c =  0.7364   65
 Side 2  free  transition at x/c =  0.1537   39

  67   rms: 0.8027E-01   max: -.6188E+00   D at   39  2   RLX: 0.808
       a = -2.000      CL =  0.5472
      Cm = -0.1429     CD =  0.05982   =>   CDf =  0.00504    CDp =  0.05478

 Side 1  free  transition at x/c =  0.7368   65
 Side 2  free  transition at x/c =  0.2448   45

  68   rms: 0.2935E+00   max: 0.2798E+01   T at   45  2   RLX: 0.536
       a = -2.000      CL =  0.6144
      Cm = -0.1832     CD =  0.05033   =>   CDf =  0.00498    CDp =  0.04535

 MRCHDU: Convergence failed at  65  side 2    Res =  0.1119E+01
 MRCHDU: Convergence failed at  66  side 2    Res =  0.1062E+01
 MRCHDU: Convergence failed at  67  side 2    Res =  0.1048E+01
 MRCHDU: Convergence failed at  68  side 2    Res =  0.1356E+01
 MRCHDU: Convergence failed at  69  side 2    Res =  0.1769E+01
 MRCHDU: Convergence failed at  70  side 2    Res =  0.2515E+01
 MRCHDU: Convergence failed at  71  side 2    Res =  0.4097E+01
 MRCHDU: Convergence failed at  72  side 2    Res =  0.9899E+01
 MRCHDU: Convergence failed at  73  side 2    Res =  0.2049E+02
 MRCHDU: Convergence failed at  74  side 2    Res =  0.5618E+01
 MRCHDU: Convergence failed at  75  side 2    Res =  0.3494E+01
 MRCHDU: Convergence failed at  76  side 2    Res =  0.2935E+01
 MRCHDU: Convergence failed at  77  side 2    Res =  0.1830E+01
 MRCHDU: Convergence failed at  78  side 2    Res =  0.2161E+01
 MRCHDU: Convergence failed at  79  side 2    Res =  0.2726E+01
 MRCHDU: Convergence failed at  80  side 2    Res =  0.3843E+01
 MRCHDU: Convergence failed at  81  side 2    Res =  0.1061E+02
 Side 1  free  transition at x/c =  0.7366   65
 Side 2  free  transition at x/c =  0.1890   42

  69   rms: 0.2961E+00   max: 0.4232E+01   T at   42  2   RLX: 0.354
       a = -2.000      CL =  0.5491
      Cm = -0.1503     CD =  0.05613   =>   CDf =  0.00510    CDp =  0.05104

 Side 1  free  transition at x/c =  0.7363   65
 Side 2  free  transition at x/c =  0.1816   41

  70   rms: 0.7457E+00   max: -.7320E+01   T at   41  2   RLX: 0.068
       a = -2.000      CL =  0.5565
      Cm = -0.1535     CD =  0.04688   =>   CDf =  0.00536    CDp =  0.04151

 Side 1  free  transition at x/c =  0.7362   65
 Side 2  free  transition at x/c =  0.1774   41

  71   rms: 0.4539E+00   max: 0.1791E+01   D at   46  2   RLX: 0.774
       a = -2.000      CL =  0.5045
      Cm = -0.1179     CD =  0.07096   =>   CDf =  0.00509    CDp =  0.06587

 Side 1  free  transition at x/c =  0.7358   66
 Side 2  free  transition at x/c =  0.1581   38

  72   rms: 0.1599E+00   max: 0.2148E+01   T at   39  2   RLX: 0.612
       a = -2.000      CL =  0.5701
      Cm = -0.1335     CD =  0.05969   =>   CDf =  0.00491    CDp =  0.05478

 Side 1  free  transition at x/c =  0.7379   66
 Side 2  free  transition at x/c =  0.1573   38
 idif Ue xi dudx           1  9.43225101E-02  3.11684608E-03   30.262165    
 Uenew xinew           2  9.17395204E-03  3.03149223E-04

  73   rms: 0.9353E-01   max: -.5982E+00   D at   40  2   RLX: 0.836
       a = -2.000      CL =  0.5607
      Cm = -0.1432     CD =  0.06051   =>   CDf =  0.00510    CDp =  0.05541

 Side 1  free  transition at x/c =  0.7376   65
 Side 2  free  transition at x/c =  0.2248   44

  74   rms: 0.3107E+00   max: 0.3296E+01   T at   44  2   RLX: 0.455
       a = -2.000      CL =  0.6318
      Cm = -0.1724     CD =  0.05076   =>   CDf =  0.00511    CDp =  0.04566

 Side 1  free  transition at x/c =  0.7374   66
 Side 2  free  transition at x/c =  0.1988   41
 idif Ue xi dudx           1  8.71812329E-02  2.88081169E-03   30.262732    
 Uenew xinew           2  2.03107810E-03  6.71148300E-05

  75   rms: 0.7639E+00   max: 0.5951E+01   T at   41  2   RLX: 0.236
       a = -2.000      CL =  0.5309
      Cm = -0.1365     CD =  0.05702   =>   CDf =  0.00532    CDp =  0.05170

 Side 1  free  transition at x/c =  0.7364   65
 Side 2  free  transition at x/c =  0.1696   40

  76   rms: 0.8763E-01   max: 0.8215E+00   T at   43  2   RLX: 0.651
       a = -2.000      CL =  0.5567
      Cm = -0.1348     CD =  0.06082   =>   CDf =  0.00481    CDp =  0.05601

 Side 1  free  transition at x/c =  0.7378   66
 Side 2  free  transition at x/c =  0.1709   39
 idif Ue xi dudx           1  9.42927077E-02  3.09920311E-03   30.424824    
 Uenew xinew           2  8.68647732E-03  2.85506248E-04

  77   rms: 0.8473E-01   max: -.6477E+00   D at   42  2   RLX: 0.772
       a = -2.000      CL =  0.5594
      Cm = -0.1441     CD =  0.06107   =>   CDf =  0.00510    CDp =  0.05597

 Side 1  free  transition at x/c =  0.7373   65
 Side 2  free  transition at x/c =  0.1700   40

  78   rms: 0.3668E-01   max: -.3669E+00   D at   40  2
       a = -2.000      CL =  0.5529
      Cm = -0.1471     CD =  0.05973   =>   CDf =  0.00501    CDp =  0.05472

 Side 1  free  transition at x/c =  0.7369   65
 Side 2  free  transition at x/c =  0.1765   41

  79   rms: 0.1003E+00   max: 0.6206E+00   D at   41  2
       a = -2.000      CL =  0.5383
      Cm = -0.1458     CD =  0.05944   =>   CDf =  0.00504    CDp =  0.05439

 Side 1  free  transition at x/c =  0.7365   65
 Side 2  free  transition at x/c =  0.1720   40

  80   rms: 0.8117E-01   max: -.3273E+00   D at   84  2
       a = -2.000      CL =  0.5453
      Cm = -0.1568     CD =  0.05834   =>   CDf =  0.00498    CDp =  0.05336

 Side 1  free  transition at x/c =  0.7360   65
 Side 2  free  transition at x/c =  0.1709   40

  81   rms: 0.1993E+00   max: 0.7944E+00   D at   76  2
       a = -2.000      CL =  0.5486
      Cm = -0.1444     CD =  0.06397   =>   CDf =  0.00512    CDp =  0.05885

 Side 1  free  transition at x/c =  0.7362   65
 Side 2  free  transition at x/c =  0.1681   40

  82   rms: 0.1023E+00   max: -.4546E+00   D at   40  2
       a = -2.000      CL =  0.5344
      Cm = -0.1385     CD =  0.06201   =>   CDf =  0.00502    CDp =  0.05700

 Side 1  free  transition at x/c =  0.7366   65
 Side 2  free  transition at x/c =  0.1720   40

  83   rms: 0.7407E-01   max: -.4608E+00   T at   41  2
       a = -2.000      CL =  0.5449
      Cm = -0.1341     CD =  0.05867   =>   CDf =  0.00495    CDp =  0.05372

 Side 1  free  transition at x/c =  0.7381   65
 Side 2  free  transition at x/c =  0.1691   40

  84   rms: 0.6850E-01   max: -.5231E+00   T at   40  2   RLX: 0.956
       a = -2.000      CL =  0.5425
      Cm = -0.1385     CD =  0.05930   =>   CDf =  0.00493    CDp =  0.05437

 Side 1  free  transition at x/c =  0.7378   65
 Side 2  free  transition at x/c =  0.1684   40

  85   rms: 0.2357E-01   max: -.4326E+00   D at   40  2
       a = -2.000      CL =  0.5490
      Cm = -0.1427     CD =  0.05975   =>   CDf =  0.00496    CDp =  0.05479

 Side 1  free  transition at x/c =  0.7373   65
 Side 2  free  transition at x/c =  0.1724   40

  86   rms: 0.1120E+01   max: 0.5257E+01   T at   41  2   RLX: 0.151
       a = -2.000      CL =  0.5344
      Cm = -0.1619     CD =  0.06734   =>   CDf =  0.00497    CDp =  0.06237

 Side 1  free  transition at x/c =  0.7349   65
 Side 2  free  transition at x/c =  0.1567   39

  87   rms: 0.6133E+00   max: -.1017E+02   T at   39  2   RLX: 0.049
       a = -2.000      CL =  0.5251
      Cm = -0.1600     CD =  0.04654   =>   CDf =  0.00515    CDp =  0.04140

 Side 1  free  transition at x/c =  0.7350   65
 Side 2  free  transition at x/c =  0.1512   39

  88   rms: 0.1236E+01   max: -.8451E+01   T at   39  2   RLX: 0.059
       a = -2.000      CL =  0.5194
      Cm = -0.1515     CD =  0.05103   =>   CDf =  0.00517    CDp =  0.04587

 Side 1  free  transition at x/c =  0.7350   65
 Side 2  free  transition at x/c =  0.1516   39

  89   rms: 0.2604E+00   max: 0.8914E+00   D at   70  2   RLX: 0.773
       a = -2.000      CL =  0.5450
      Cm = -0.1306     CD =  0.06586   =>   CDf =  0.00492    CDp =  0.06094

 Side 1  free  transition at x/c =  0.7367   66
 Side 2  free  transition at x/c =  0.1565   38
 idif Ue xi dudx           1  9.69372839E-02  3.20947170E-03   30.203501    
 Uenew xinew           2  1.19537860E-02  3.95774841E-04

  90   rms: 0.6895E-01   max: -.6022E+00   D at   39  2   RLX: 0.830
       a = -2.000      CL =  0.5649
      Cm = -0.1460     CD =  0.05906   =>   CDf =  0.00510    CDp =  0.05396

[...]
      Cm = -0.1878     CD =  0.04966   =>   CDf =  0.00717    CDp =  0.04249
 plradd ia,ip,cpol           42           0  3.30905057E-02

 Point added to stored polar  1
 Point written to save file  goe652_Re150k.base.pol                          
 Dump file unspecified or not available
 Calculating wake trajectory ...
 Calculating source influence matrix ...

 Solving BL system ...

 Side 1  free  transition at x/c =  0.3092   63
 Side 2 forced transition at x/c =  1.0000   65

   1   rms: 0.3880E-01   max: 0.2006E+00   T at   63  1   RLX: 0.670
       a = 13.250      CL =  2.0873
      Cm = -0.1874     CD =  0.05002   =>   CDf =  0.00718    CDp =  0.04284

 Side 1  free  transition at x/c =  0.3052   62
 Side 2 forced transition at x/c =  1.0000   65

   2   rms: 0.1534E-01   max: 0.7653E-01   D at   84  1
       a = 13.250      CL =  2.0760
      Cm = -0.1858     CD =  0.05157   =>   CDf =  0.00733    CDp =  0.04424

 Side 1  free  transition at x/c =  0.3029   62
 Side 2 forced transition at x/c =  1.0000   65

   3   rms: 0.2413E-02   max: -.1170E-01   D at   87  1
       a = 13.250      CL =  2.0782
      Cm = -0.1860     CD =  0.05138   =>   CDf =  0.00717    CDp =  0.04421

 Side 1  free  transition at x/c =  0.3028   62
 Side 2 forced transition at x/c =  1.0000   65

   4   rms: 0.9999E-04   max: -.7588E-03   D at   78  2
       a = 13.250      CL =  2.0783
      Cm = -0.1860     CD =  0.05139   =>   CDf =  0.00717    CDp =  0.04421
 plradd ia,ip,cpol           43           0  3.30905057E-02

 Point added to stored polar  1
 Point written to save file  goe652_Re150k.base.pol                          
 Dump file unspecified or not available
 Calculating wake trajectory ...
 Calculating source influence matrix ...

 Solving BL system ...

 Side 1  free  transition at x/c =  0.3028   62
 Side 2 forced transition at x/c =  1.0000   65

   1   rms: 0.3737E-01   max: 0.1636E+00   D at   83  1   RLX: 0.615
       a = 13.500      CL =  2.0650
      Cm = -0.1837     CD =  0.05368   =>   CDf =  0.00718    CDp =  0.04650

 Side 1  free  transition at x/c =  0.2990   62
 Side 2 forced transition at x/c =  1.0000   65

   2   rms: 0.1095E-01   max: 0.5470E-01   T at   62  1
       a = 13.500      CL =  2.0639
      Cm = -0.1829     CD =  0.05457   =>   CDf =  0.00703    CDp =  0.04754

 Side 1  free  transition at x/c =  0.2964   62
 Side 2 forced transition at x/c =  1.0000   65

   3   rms: 0.2038E-02   max: -.1078E-01   D at   86  1
       a = 13.500      CL =  2.0654
      Cm = -0.1830     CD =  0.05439   =>   CDf =  0.00698    CDp =  0.04741

 Side 1  free  transition at x/c =  0.2964   62
 Side 2 forced transition at x/c =  1.0000   65

   4   rms: 0.1614E-03   max: -.9171E-03   D at   79  2
       a = 13.500      CL =  2.0656
      Cm = -0.1830     CD =  0.05439   =>   CDf =  0.00698    CDp =  0.04741

 Side 1  free  transition at x/c =  0.2964   62
 Side 2 forced transition at x/c =  1.0000   65

   5   rms: 0.5629E-05   max: 0.6531E-04   C at   65  2
       a = 13.500      CL =  2.0656
      Cm = -0.1830     CD =  0.05439   =>   CDf =  0.00698    CDp =  0.04741
 plradd ia,ip,cpol           44           0  2.92079411E-02

 Point added to stored polar  1
 Point written to save file  goe652_Re150k.base.pol                          
 Dump file unspecified or not available
 Calculating wake trajectory ...
 Calculating source influence matrix ...

 Solving BL system ...

 Side 1  free  transition at x/c =  0.2964   62
 Side 2 forced transition at x/c =  1.0000   65

   1   rms: 0.2854E-01   max: 0.1474E+00   T at   62  1   RLX: 0.599
       a = 13.750      CL =  2.0646
      Cm = -0.1817     CD =  0.05586   =>   CDf =  0.00655    CDp =  0.04930

 Side 1  free  transition at x/c =  0.2925   63
 Side 2 forced transition at x/c =  1.0000   64

   2   rms: 0.1662E-01   max: 0.1874E+00   T at    2  1
       a = 13.750      CL =  2.0708
      Cm = -0.1813     CD =  0.05616   =>   CDf =  0.00697    CDp =  0.04919

 Side 1  free  transition at x/c =  0.2902   63
 Side 2 forced transition at x/c =  1.0000   64

   3   rms: 0.2376E-02   max: -.1246E-01   D at   63  1
       a = 13.750      CL =  2.0720
      Cm = -0.1813     CD =  0.05604   =>   CDf =  0.00700    CDp =  0.04904

 Side 1  free  transition at x/c =  0.2903   63
 Side 2 forced transition at x/c =  1.0000   64

   4   rms: 0.2352E-03   max: -.1180E-02   D at   78  2
       a = 13.750      CL =  2.0722
      Cm = -0.1814     CD =  0.05604   =>   CDf =  0.00700    CDp =  0.04904

 Side 1  free  transition at x/c =  0.2903   63
 Side 2 forced transition at x/c =  1.0000   64

   5   rms: 0.8826E-05   max: 0.9190E-04   C at   64  2
       a = 13.750      CL =  2.0723
      Cm = -0.1814     CD =  0.05604   =>   CDf =  0.00700    CDp =  0.04904
 plradd ia,ip,cpol           45           0  2.56323908E-02

 Point added to stored polar  1
 Point written to save file  goe652_Re150k.base.pol                          
 Dump file unspecified or not available
 Calculating wake trajectory ...
 Calculating source influence matrix ...

 Solving BL system ...

 Side 1  free  transition at x/c =  0.2903   63
 Side 2 forced transition at x/c =  1.0000   64

   1   rms: 0.3161E-01   max: 0.1837E+00   T at   63  1   RLX: 0.595
       a = 14.000      CL =  2.0811
      Cm = -0.1807     CD =  0.05672   =>   CDf =  0.00701    CDp =  0.04971

 Side 1  free  transition at x/c =  0.2870   63
 Side 2 forced transition at x/c =  1.0000   64

   2   rms: 0.3638E-01   max: 0.1082E+00   T at   63  1
       a = 14.000      CL =  2.1171
      Cm = -0.1820     CD =  0.05506   =>   CDf =  0.00712    CDp =  0.04794

 Side 1  free  transition at x/c =  0.2840   62
 Side 2 forced transition at x/c =  1.0000   64

   3   rms: 0.3324E-01   max: 0.1548E+00   D at   87  1
       a = 14.000      CL =  2.0850
      Cm = -0.1801     CD =  0.05765   =>   CDf =  0.00719    CDp =  0.05047

 Side 1  free  transition at x/c =  0.2843   62
 Side 2 forced transition at x/c =  1.0000   64

   4   rms: 0.2848E-02   max: 0.3287E-01   D at   86  1
       a = 14.000      CL =  2.0834
      Cm = -0.1801     CD =  0.05761   =>   CDf =  0.00707    CDp =  0.05054

 Side 1  free  transition at x/c =  0.2842   62
 Side 2 forced transition at x/c =  1.0000   64

   5   rms: 0.1443E-03   max: 0.9485E-03   D at   79  2
       a = 14.000      CL =  2.0833
      Cm = -0.1800     CD =  0.05759   =>   CDf =  0.00705    CDp =  0.05054

 Side 1  free  transition at x/c =  0.2842   62
 Side 2 forced transition at x/c =  1.0000   64

   6   rms: 0.3974E-05   max: -.6705E-04   C at   64  2
       a = 14.000      CL =  2.0833
      Cm = -0.1800     CD =  0.05759   =>   CDf =  0.00705    CDp =  0.05054
 plradd ia,ip,cpol           46           0  2.56323908E-02

 Point added to stored polar  1
 Point written to save file  goe652_Re150k.base.pol                          
 Dump file unspecified or not available
 Calculating wake trajectory ...
 Calculating source influence matrix ...

 Solving BL system ...

 Side 1  free  transition at x/c =  0.2842   62
 Side 2 forced transition at x/c =  1.0000   64

   1   rms: 0.4159E-01   max: 0.1885E+00   D at   83  1   RLX: 0.555
       a = 14.250      CL =  2.0678
      Cm = -0.1782     CD =  0.06029   =>   CDf =  0.00707    CDp =  0.05323

 Side 1  free  transition at x/c =  0.2809   62
 Side 2 forced transition at x/c =  1.0000   64

   2   rms: 0.1318E-01   max: 0.6188E-01   T at   62  1
       a = 14.250      CL =  2.0637
      Cm = -0.1773     CD =  0.06167   =>   CDf =  0.00689    CDp =  0.05478

 Side 1  free  transition at x/c =  0.2780   62
 Side 2 forced transition at x/c =  1.0000   64

   3   rms: 0.2546E-02   max: -.1269E-01   D at   85  1
       a = 14.250      CL =  2.0656
      Cm = -0.1774     CD =  0.06138   =>   CDf =  0.00681    CDp =  0.05456

 Side 1  free  transition at x/c =  0.2781   62
 Side 2 forced transition at x/c =  1.0000   64

   4   rms: 0.2246E-03   max: -.1245E-02   D at   79  2
       a = 14.250      CL =  2.0658
      Cm = -0.1774     CD =  0.06139   =>   CDf =  0.00682    CDp =  0.05457

 Side 1  free  transition at x/c =  0.2781   62
 Side 2 forced transition at x/c =  1.0000   64

   5   rms: 0.8975E-05   max: 0.1119E-03   C at   64  2
       a = 14.250      CL =  2.0658
      Cm = -0.1774     CD =  0.06139   =>   CDf =  0.00682    CDp =  0.05457
 plradd ia,ip,cpol           47           0  2.56323908E-02

 Point added to stored polar  1
 Point written to save file  goe652_Re150k.base.pol                          
 Dump file unspecified or not available
 Calculating wake trajectory ...
 Calculating source influence matrix ...

 Solving BL system ...

 Side 1  free  transition at x/c =  0.2781   62
 Side 2 forced transition at x/c =  1.0000   64

   1   rms: 0.2824E-01   max: 0.1388E+00   T at   62  1   RLX: 0.542
       a = 14.500      CL =  2.0630
      Cm = -0.1764     CD =  0.06306   =>   CDf =  0.00683    CDp =  0.05623

 Side 1  free  transition at x/c =  0.2747   62
 Side 2 forced transition at x/c =  1.0000   64

   2   rms: 0.1260E-01   max: 0.6043E-01   T at   62  1
       a = 14.500      CL =  2.0671
      Cm = -0.1758     CD =  0.06370   =>   CDf =  0.00679    CDp =  0.05691

 Side 1  free  transition at x/c =  0.2723   62
 Side 2 forced transition at x/c =  1.0000   64

   3   rms: 0.2557E-02   max: -.1467E-01   D at   62  1
       a = 14.500      CL =  2.0686
      Cm = -0.1759     CD =  0.06349   =>   CDf =  0.00680    CDp =  0.05669

 Side 1  free  transition at x/c =  0.2724   62
 Side 2 forced transition at x/c =  1.0000   64

   4   rms: 0.2899E-03   max: -.1492E-02   D at   79  2
       a = 14.500      CL =  2.0688
      Cm = -0.1759     CD =  0.06349   =>   CDf =  0.00680    CDp =  0.05669

 Side 1  free  transition at x/c =  0.2724   62
 Side 2 forced transition at x/c =  1.0000   64

   5   rms: 0.1471E-04   max: 0.1639E-03   C at   64  2
       a = 14.500      CL =  2.0688
      Cm = -0.1759     CD =  0.06349   =>   CDf =  0.00680    CDp =  0.05669
 plradd ia,ip,cpol           48           0  2.23399419E-02

 Point added to stored polar  1
 Point written to save file  goe652_Re150k.base.pol                          
 Dump file unspecified or not available
 Calculating wake trajectory ...
 Calculating source influence matrix ...

 Solving BL system ...

 Side 1  free  transition at x/c =  0.2724   62
 Side 2 forced transition at x/c =  1.0000   64

   1   rms: 0.2851E-01   max: 0.1597E+00   T at   62  1   RLX: 0.536
       a = 14.750      CL =  2.0743
      Cm = -0.1752     CD =  0.06432   =>   CDf =  0.00682    CDp =  0.05751

 Side 1  free  transition at x/c =  0.2696   62
 Side 2 forced transition at x/c =  1.0000   64

   2   rms: 0.2118E-01   max: 0.7965E-01   T at   62  1
       a = 14.750      CL =  2.0918
      Cm = -0.1751     CD =  0.06380   =>   CDf =  0.00688    CDp =  0.05692

 Side 1  free  transition at x/c =  0.2673   61
 Side 2 forced transition at x/c =  1.0000   64

   3   rms: 0.6656E-02   max: 0.3552E-01   D at   62  1
       a = 14.750      CL =  2.0856
      Cm = -0.1749     CD =  0.06456   =>   CDf =  0.00697    CDp =  0.05758

 Side 1  free  transition at x/c =  0.2670   61
 Side 2 forced transition at x/c =  1.0000   64

   4   rms: 0.4787E-03   max: 0.2878E-02   D at   84  1
       a = 14.750      CL =  2.0853
      Cm = -0.1749     CD =  0.06453   =>   CDf =  0.00693    CDp =  0.05760

 Side 1  free  transition at x/c =  0.2670   61
 Side 2 forced transition at x/c =  1.0000   64

   5   rms: 0.2869E-04   max: 0.1967E-03   D at   79  2
       a = 14.750      CL =  2.0852
      Cm = -0.1749     CD =  0.06453   =>   CDf =  0.00693    CDp =  0.05760
 plradd ia,ip,cpol           49           0  2.23399419E-02

 Point added to stored polar  1
 Point written to save file  goe652_Re150k.base.pol                          
 Dump file unspecified or not available
 Calculating wake trajectory ...
 Calculating source influence matrix ...

 Solving BL system ...

 Side 1  free  transition at x/c =  0.2670   61
 Side 2 forced transition at x/c =  1.0000   64

   1   rms: 0.4582E-01   max: 0.2131E+00   D at   81  1   RLX: 0.506
       a = 15.000      CL =  2.0685
      Cm = -0.1736     CD =  0.06764   =>   CDf =  0.00694    CDp =  0.06070

 Side 1  free  transition at x/c =  0.2642   61
 Side 2 forced transition at x/c =  1.0000   64

   2   rms: 0.1564E-01   max: 0.7060E-01   D at   82  1
       a = 15.000      CL =  2.0616
      Cm = -0.1728     CD =  0.06961   =>   CDf =  0.00675    CDp =  0.06286

 Side 1  free  transition at x/c =  0.2611   61
 Side 2 forced transition at x/c =  1.0000   64

   3   rms: 0.2399E-02   max: -.1324E-01   D at   62  1
       a = 15.000      CL =  2.0634
      Cm = -0.1729     CD =  0.06923   =>   CDf =  0.00664    CDp =  0.06259

 Side 1  free  transition at x/c =  0.2613   61
 Side 2 forced transition at x/c =  1.0000   64

   4   rms: 0.2477E-03   max: -.1340E-02   D at   80  2
       a = 15.000      CL =  2.0636
      Cm = -0.1729     CD =  0.06924   =>   CDf =  0.00664    CDp =  0.06259

 Side 1  free  transition at x/c =  0.2613   61
 Side 2 forced transition at x/c =  1.0000   64

   5   rms: 0.1244E-04   max: 0.1538E-03   C at   64  2
       a = 15.000      CL =  2.0636
      Cm = -0.1729     CD =  0.06924   =>   CDf =  0.00665    CDp =  0.06260
 plradd ia,ip,cpol           50           0  2.23399419E-02

 Point added to stored polar  1
 Point written to save file  goe652_Re150k.base.pol                          
 Dump file unspecified or not available
 Calculating wake trajectory ...
 Calculating source influence matrix ...

 Solving BL system ...

 Side 1  free  transition at x/c =  0.2613   61
 Side 2 forced transition at x/c =  1.0000   64

   1   rms: 0.2887E-01   max: 0.1316E+00   T at   61  1   RLX: 0.493
       a = 15.250      CL =  2.0592
      Cm = -0.1722     CD =  0.07118   =>   CDf =  0.00620    CDp =  0.06498

 Side 1  free  transition at x/c =  0.2583   62
 Side 2 forced transition at x/c =  1.0000   63

   2   rms: 0.1512E-01   max: 0.1247E+00   D at    2  1
       a = 15.250      CL =  2.0608
      Cm = -0.1716     CD =  0.07227   =>   CDf =  0.00659    CDp =  0.06568

 Side 1  free  transition at x/c =  0.2557   62
 Side 2 forced transition at x/c =  1.0000   63

   3   rms: 0.2408E-02   max: -.1393E-01   D at   62  1
       a = 15.250      CL =  2.0622
      Cm = -0.1716     CD =  0.07198   =>   CDf =  0.00658    CDp =  0.06540

 Side 1  free  transition at x/c =  0.2558   62
 Side 2 forced transition at x/c =  1.0000   63

   4   rms: 0.3013E-03   max: -.1478E-02   D at   79  2
       a = 15.250      CL =  2.0624
      Cm = -0.1716     CD =  0.07198   =>   CDf =  0.00658    CDp =  0.06540

 Side 1  free  transition at x/c =  0.2558   62
 Side 2 forced transition at x/c =  1.0000   63

   5   rms: 0.1396E-04   max: -.1121E-03   D at   79  2
       a = 15.250      CL =  2.0625
      Cm = -0.1716     CD =  0.07198   =>   CDf =  0.00658    CDp =  0.06540
 plradd ia,ip,cpol           51           0  1.93109382E-02

 Point added to stored polar  1
 Point written to save file  goe652_Re150k.base.pol                          
 Dump file unspecified or not available
 Calculating wake trajectory ...
 Calculating source influence matrix ...

 Solving BL system ...

 Side 1  free  transition at x/c =  0.2558   62
 Side 2 forced transition at x/c =  1.0000   63

   1   rms: 0.2657E-01   max: 0.1405E+00   T at   62  1   RLX: 0.486
       a = 15.500      CL =  2.0654
      Cm = -0.1711     CD =  0.07303   =>   CDf =  0.00659    CDp =  0.06644

 Side 1  free  transition at x/c =  0.2534   62
 Side 2 forced transition at x/c =  1.0000   63

   2   rms: 0.1562E-01   max: 0.7564E-01   T at   62  1
       a = 15.500      CL =  2.0738
      Cm = -0.1707     CD =  0.07340   =>   CDf =  0.00662    CDp =  0.06678

 Side 1  free  transition at x/c =  0.2513   62
 Side 2 forced transition at x/c =  1.0000   63

   3   rms: 0.6812E-02   max: -.3328E-01   D at   83  1
       a = 15.500      CL =  2.0803
      Cm = -0.1708     CD =  0.07262   =>   CDf =  0.00670    CDp =  0.06593

 Side 1  free  transition at x/c =  0.2511   62
 Side 2 forced transition at x/c =  1.0000   63

   4   rms: 0.5560E-03   max: -.3900E-02   D at   79  2
       a = 15.500      CL =  2.0807
      Cm = -0.1708     CD =  0.07267   =>   CDf =  0.00673    CDp =  0.06594

 Side 1  free  transition at x/c =  0.2511   62
 Side 2 forced transition at x/c =  1.0000   63

   5   rms: 0.2407E-04   max: -.1792E-03   D at   78  2
       a = 15.500      CL =  2.0807
      Cm = -0.1708     CD =  0.07268   =>   CDf =  0.00673    CDp =  0.06595
 plradd ia,ip,cpol           52           0  1.93109382E-02

 Point added to stored polar  1
 Point written to save file  goe652_Re150k.base.pol                          
 Dump file unspecified or not available
 Calculating wake trajectory ...
 Calculating source influence matrix ...

 Solving BL system ...

 Side 1  free  transition at x/c =  0.2511   62
 Side 2 forced transition at x/c =  1.0000   63

   1   rms: 0.4700E-01   max: 0.1722E+00   T at   62  1   RLX: 0.497
       a = 15.750      CL =  2.1003
      Cm = -0.1706     CD =  0.07189   =>   CDf =  0.00674    CDp =  0.06515

 Side 1  free  transition at x/c =  0.2488   61
 Side 2 forced transition at x/c =  1.0000   63

   2   rms: 0.4700E-01   max: 0.2266E+00   D at   83  1
       a = 15.750      CL =  2.0597
      Cm = -0.1694     CD =  0.07850   =>   CDf =  0.00674    CDp =  0.07176

 Side 1  free  transition at x/c =  0.2459   61
 Side 2 forced transition at x/c =  1.0000   63

   3   rms: 0.2994E-02   max: 0.3337E-01   D at   83  1
       a = 15.750      CL =  2.0608
      Cm = -0.1695     CD =  0.07777   =>   CDf =  0.00647    CDp =  0.07130

 Side 1  free  transition at x/c =  0.2458   61
 Side 2 forced transition at x/c =  1.0000   63

   4   rms: 0.9261E-04   max: 0.1330E-02   D at   82  1
       a = 15.750      CL =  2.0609
      Cm = -0.1695     CD =  0.07777   =>   CDf =  0.00646    CDp =  0.07131
 plradd ia,ip,cpol           53           0  1.93109382E-02

 Point added to stored polar  1
 Point written to save file  goe652_Re150k.base.pol                          
 Dump file unspecified or not available
 Calculating wake trajectory ...
 Calculating source influence matrix ...

 Solving BL system ...

 Side 1  free  transition at x/c =  0.2458   61
 Side 2 forced transition at x/c =  1.0000   63

   1   rms: 0.3136E-01   max: 0.1480E+00   D at   79  1   RLX: 0.452
       a = 16.000      CL =  2.0546
      Cm = -0.1691     CD =  0.08007   =>   CDf =  0.00647    CDp =  0.07360

 Side 1  free  transition at x/c =  0.2433   61
 Side 2 forced transition at x/c =  1.0000   63

   2   rms: 0.1420E-01   max: 0.6462E-01   T at   61  1
       a = 16.000      CL =  2.0532
      Cm = -0.1687     CD =  0.08178   =>   CDf =  0.00639    CDp =  0.07539

 Side 1  free  transition at x/c =  0.2405   61
 Side 2 forced transition at x/c =  1.0000   63

   3   rms: 0.2911E-02   max: -.1559E-01   D at   82  1
       a = 16.000      CL =  2.0551
      Cm = -0.1687     CD =  0.08129   =>   CDf =  0.00636    CDp =  0.07493

 Side 1  free  transition at x/c =  0.2407   61
 Side 2 forced transition at x/c =  1.0000   63

   4   rms: 0.3153E-03   max: -.1677E-02   D at   79  2
       a = 16.000      CL =  2.0553
      Cm = -0.1687     CD =  0.08130   =>   CDf =  0.00635    CDp =  0.07495

 Side 1  free  transition at x/c =  0.2406   61
 Side 2 forced transition at x/c =  1.0000   63

   5   rms: 0.1732E-04   max: -.1268E-03   D at   79  2
       a = 16.000      CL =  2.0553
      Cm = -0.1687     CD =  0.08131   =>   CDf =  0.00635    CDp =  0.07495
 plradd ia,ip,cpol           54           0  1.93109382E-02

 Point added to stored polar  1
 Point written to save file  goe652_Re150k.base.pol                          
 Dump file unspecified or not available

.OPERva   c>  
 Polar accumulation disabled

.OPERv   c>  
 XFOIL   c>  
 XFOIL   c>  