  
       XFOIL         Version 6.99
  
 Calculated polar for: GOE 654 AIRFOIL                                 
  
 1 1 Reynolds number fixed          Mach number fixed         
  
 xtrf =   1.000 (top)        1.000 (bottom)  
 Mach =   0.000     Re =     0.400 e 6     Ncrit =   9.000
  
   alpha    CL        CD       CDp       CM     Top_Xtr  Bot_Xtr
  ------ -------- --------- --------- -------- -------- --------
-4.000   0.1145   0.01703   0.00962  -0.0986   0.6110   0.0453
-3.500   0.1656   0.01554   0.00787  -0.0975   0.5962   0.0451
-3.000   0.2177   0.01454   0.00668  -0.0964   0.5831   0.0454
-2.500   0.2695   0.01372   0.00571  -0.0953   0.5718   0.0456
-2.000   0.3204   0.01288   0.00482  -0.0941   0.5608   0.0465
-1.500   0.3717   0.01234   0.00425  -0.0930   0.5502   0.0482
-1.000   0.4241   0.01210   0.00392  -0.0921   0.5398   0.0512
-0.500   0.4770   0.01184   0.00364  -0.0912   0.5296   0.0559
0.000   0.5292   0.01159   0.00349  -0.0903   0.5191   0.1005
0.500   0.5714   0.01030   0.00359  -0.0882   0.5079   0.5524
1.500   0.7364   0.00970   0.00385  -0.0988   0.4802   1.0000
2.000   0.7827   0.00989   0.00390  -0.0968   0.4654   1.0000
2.500   0.8290   0.01009   0.00399  -0.0948   0.4485   1.0000
3.000   0.8747   0.01033   0.00411  -0.0927   0.4294   1.0000
3.500   0.9194   0.01066   0.00428  -0.0905   0.4090   1.0000
4.000   0.9637   0.01108   0.00454  -0.0883   0.3911   1.0000
4.500   1.0083   0.01154   0.00489  -0.0862   0.3760   1.0000
5.000   1.0535   0.01201   0.00528  -0.0843   0.3632   1.0000
5.500   1.0986   0.01252   0.00573  -0.0825   0.3526   1.0000
6.000   1.1422   0.01314   0.00626  -0.0805   0.3431   1.0000
6.500   1.1867   0.01360   0.00675  -0.0786   0.3338   1.0000
7.000   1.2287   0.01421   0.00732  -0.0764   0.3245   1.0000
7.500   1.2704   0.01475   0.00789  -0.0742   0.3164   1.0000
8.000   1.3100   0.01542   0.00855  -0.0717   0.3091   1.0000
8.500   1.3444   0.01594   0.00914  -0.0682   0.3003   1.0000
9.000   1.3780   0.01662   0.00986  -0.0649   0.2918   1.0000
9.500   1.4097   0.01730   0.01059  -0.0614   0.2825   1.0000
10.000   1.4414   0.01806   0.01145  -0.0581   0.2734   1.0000
10.250   1.4556   0.01849   0.01191  -0.0564   0.2681   1.0000
10.500   1.4678   0.01909   0.01249  -0.0545   0.2633   1.0000
10.750   1.4842   0.01949   0.01300  -0.0532   0.2581   1.0000
11.000   1.4960   0.02010   0.01363  -0.0514   0.2516   1.0000
11.250   1.5082   0.02077   0.01433  -0.0498   0.2454   1.0000
11.500   1.5204   0.02148   0.01509  -0.0483   0.2380   1.0000
11.750   1.5302   0.02237   0.01600  -0.0467   0.2310   1.0000
12.000   1.5396   0.02334   0.01699  -0.0452   0.2219   1.0000
12.250   1.5472   0.02450   0.01816  -0.0437   0.2115   1.0000
12.500   1.5510   0.02598   0.01963  -0.0421   0.1996   1.0000
12.750   1.5495   0.02797   0.02156  -0.0404   0.1838   1.0000
13.000   1.5466   0.03020   0.02376  -0.0388   0.1702   1.0000
13.250   1.5385   0.03300   0.02649  -0.0373   0.1548   1.0000
13.500   1.5317   0.03585   0.02932  -0.0362   0.1425   1.0000
13.750   1.5219   0.03912   0.03257  -0.0352   0.1299   1.0000
14.000   1.5075   0.04304   0.03644  -0.0345   0.1160   1.0000
14.250   1.4936   0.04709   0.04047  -0.0340   0.1034   1.0000
14.500   1.4790   0.05140   0.04477  -0.0339   0.0907   1.0000
14.750   1.4495   0.05759   0.05087  -0.0341   0.0673   1.0000
15.000   1.4251   0.06342   0.05669  -0.0345   0.0526   1.0000
15.250   1.4001   0.06953   0.06280  -0.0352   0.0377   1.0000
15.500   1.3763   0.07574   0.06905  -0.0362   0.0280   1.0000
15.750   1.3615   0.08096   0.07434  -0.0372   0.0247   1.0000
16.000   1.3514   0.08565   0.07912  -0.0381   0.0235   1.0000
