  
       XFOIL         Version 6.99
  
 Calculated polar for: GOE 685 AIRFOIL                                 
  
 1 1 Reynolds number fixed          Mach number fixed         
  
 xtrf =   1.000 (top)        1.000 (bottom)  
 Mach =   0.000     Re =     0.200 e 6     Ncrit =   9.000
  
   alpha    CL        CD       CDp       CM     Top_Xtr  Bot_Xtr
  ------ -------- --------- --------- -------- -------- --------
  16.250   1.4010   0.07523   0.06832  -0.0270   0.0453   1.0000
  16.500   1.4057   0.07781   0.07098  -0.0271   0.0442   1.0000
  16.750   1.4176   0.07958   0.07272  -0.0268   0.0429   1.0000
  17.000   1.4235   0.08242   0.07568  -0.0267   0.0418   1.0000
  17.250   1.4163   0.08655   0.08005  -0.0277   0.0412   1.0000
  17.500   1.4109   0.09068   0.08440  -0.0287   0.0405   1.0000
  17.750   1.4051   0.09492   0.08885  -0.0300   0.0399   1.0000
  18.000   1.3998   0.09918   0.09329  -0.0314   0.0392   1.0000
  18.250   1.3952   0.10341   0.09768  -0.0328   0.0386   1.0000
  18.750   1.3903   0.11118   0.10566  -0.0359   0.0373   1.0000
  19.250   1.3858   0.11939   0.11404  -0.0388   0.0360   1.0000
  19.750   1.3429   0.13430   0.12946  -0.0477   0.0358   1.0000
  20.250   1.2931   0.15206   0.14770  -0.0594   0.0358   1.0000
  20.750   1.2343   0.17394   0.16999  -0.0744   0.0361   1.0000
  21.250   0.8190   0.24979   0.24690  -0.1141   0.0559   1.0000
  21.750   0.8254   0.25702   0.25416  -0.1175   0.0508   1.0000
  22.250   0.8485   0.26352   0.26071  -0.1174   0.0491   1.0000
