
 ===================================================
  XFOIL Version 6.99
  Copyright (C) 2000   Mark Drela, Harold Youngren

  This software comes with ABSOLUTELY NO WARRANTY,
    subject to the GNU General Public License.

  Caveat computor
 ===================================================

 File  xfoil.def  not found

   QUIT    Exit program

  .OPER    Direct operating point(s)
  .MDES    Complex mapping design routine
  .QDES    Surface speed design routine
  .GDES    Geometry design routine

   SAVE f  Write airfoil to labeled coordinate file
   PSAV f  Write airfoil to plain coordinate file
   ISAV f  Write airfoil to ISES coordinate file
   MSAV f  Write airfoil to MSES coordinate file
   REVE    Reverse written-airfoil node ordering

   LOAD f  Read buffer airfoil from coordinate file
   NACA i  Set NACA 4,5-digit airfoil and buffer airfoil
   INTE    Set buffer airfoil by interpolating two airfoils
   NORM    Buffer airfoil normalization toggle
   XYCM rr Change CM reference location, currently  0.25000 0.00000

   BEND    Display structural properties of current airfoil

   PCOP    Set current-airfoil panel nodes directly from buffer airfoil points
   PANE    Set current-airfoil panel nodes ( 160 ) based on curvature
  .PPAR    Show/change paneling

  .PLOP    Plotting options

   WDEF f  Write  current-settings file
   RDEF f  Reread current-settings file
   NAME s  Specify new airfoil name
   NINC    Increment name version number

   Z       Zoom    | (available in all menus)
   U       Unzoom  | 

 XFOIL   c>  
 Labeled airfoil file.  Name:  GOE 625 AIRFOIL                                 

 Number of input coordinate points:  33
 Counterclockwise ordering
 Max thickness =     0.200006  at x =   0.300
 Max camber    =     0.058659  at x =   0.400

  LE  x,y  =  -0.00028   0.00381  |   Chord =   1.00028
  TE  x,y  =   1.00000   0.00325  |

 Current airfoil nodes set from buffer airfoil nodes (  33 )

 WARNING: Poor input coordinate distribution
          Excessive panel angle   49.7  at i =  17
          Repaneling with PANE and/or PPAR suggested
           (doing GDES,CADD before repaneling _may_
            improve excessively coarse LE spacing

 XFOIL   c>  
 XFOIL   c>  
 Blunt trailing edge.  Gap =  0.00650

 Paneling parameters used...
   Number of panel nodes       160
   Panel bunching parameter    1.000
   TE/LE panel density ratio   0.150
   Refined-area/LE panel density ratio    0.200
   Top    side refined area x/c limits  1.000 1.000
   Bottom side refined area x/c limits  1.000 1.000

 XFOIL   c>  
.OPERi   c>  
 Xtr/c     =  1.0000    top    side
 Xtr/c     =  1.0000    bottom side
 Ncrit     =    9.00   ( 0.070 % turb. level )
 Vacc      =  0.0100

 Klag  =  5.6000     Uxwt  =    1.00
 A     =  6.7000     B     =  0.7500       KCt = 0.01485
 CtiniK=  1.8000     CtiniX=  3.3000

..VPAR   c>  
..VPAR   c>  
.OPERi   c>  
 M  =    0.0000
 Re =    150000

.OPERv   c>  
.OPERv   c>  
.OPERv   c>  
 Polar  1 newly created for accumulation
 Airfoil archived with polar: GOE 625 AIRFOIL                                 

Enter  polar save filename  OR  <return> for no file   s>  
 New polar save file available

Enter  polar dump filename  OR  <return> for no file   s>  
 Polar dump file will NOT be written

 Polar accumulation enabled

.OPERva   c>   Calculating unit vorticity distributions ...
 Calculating wake trajectory ...
 Calculating source influence matrix ...

 Solving BL system ...

 Initializing BL ...
    side            1  ...
 MRCHUE: Inverse mode at  42     Hk =   3.800
 MRCHUE: Inverse mode at  43     Hk =   4.448
 MRCHUE: Inverse mode at  44     Hk =   5.089
 MRCHUE: Inverse mode at  45     Hk =   5.720
 MRCHUE: Inverse mode at  46     Hk =   6.336
 MRCHUE: Inverse mode at  47     Hk =   6.934
 MRCHUE: Inverse mode at  48     Hk =   7.514
 MRCHUE: Inverse mode at  49     Hk =   8.075
 MRCHUE: Inverse mode at  50     Hk =   8.622
 MRCHUE: Inverse mode at  51     Hk =   9.156
 MRCHUE: Inverse mode at  52     Hk =   9.681
 MRCHUE: Inverse mode at  53     Hk =   8.882
 MRCHUE: Inverse mode at  54     Hk =   6.832
 MRCHUE: Inverse mode at  55     Hk =   5.521
 MRCHUE: Inverse mode at  56     Hk =   4.541
 MRCHUE: Inverse mode at  57     Hk =   3.757
 MRCHUE: Inverse mode at  58     Hk =   3.109
 MRCHUE: Inverse mode at  77     Hk =   2.500
    side            2  ...
 MRCHUE: Inverse mode at  33     Hk =   3.800
 MRCHUE: Inverse mode at  34     Hk =   4.298
 MRCHUE: Inverse mode at  35     Hk =   4.806
 MRCHUE: Inverse mode at  36     Hk =   5.328
 MRCHUE: Inverse mode at  37     Hk =   5.866
 MRCHUE: Inverse mode at  38     Hk =   6.418
 MRCHUE: Inverse mode at  39     Hk =   6.986
 MRCHUE: Inverse mode at  40     Hk =   7.576
 MRCHUE: Inverse mode at  41     Hk =   8.198
 MRCHUE: Inverse mode at  42     Hk =   8.866
 MRCHUE: Inverse mode at  43     Hk =   9.587
 MRCHUE: Inverse mode at  44     Hk =   9.939
 MRCHUE: Inverse mode at  45     Hk =   6.084
 MRCHUE: Inverse mode at  46     Hk =   4.284
 MRCHUE: Inverse mode at  47     Hk =   3.043
 MRCHUE: Inverse mode at  48     Hk =   2.500
 MRCHUE: Inverse mode at  85     Hk =   2.500

 Side 1  free  transition at x/c =  0.5672   53
 Side 2  free  transition at x/c =  0.1676   44

   1   rms: 0.3217E+00   max: 0.2413E+01   T at   44  2   RLX: 0.244
       a = -4.000      CL =  0.1785
      Cm = -0.1312     CD =  0.02417   =>   CDf =  0.00910    CDp =  0.01508

 Side 1  free  transition at x/c =  0.5915   54
 Side 2  free  transition at x/c =  0.1575   44

   2   rms: 0.2930E+00   max: -.2451E+01   T at   54  1   RLX: 0.204
       a = -4.000      CL =  0.2082
      Cm = -0.1347     CD =  0.02354   =>   CDf =  0.00880    CDp =  0.01474

 MRCHDU: Convergence failed at  56  side 1    Res =  0.7454E+01
 MRCHDU: Convergence failed at  57  side 1    Res =  0.8128E+02
 MRCHDU: Convergence failed at  58  side 1    Res =  0.1649E+02
 MRCHDU: Convergence failed at  77  side 1    Res =  0.3196E+01
 Side 1  free  transition at x/c =  0.6213   56
 Side 2  free  transition at x/c =  0.1579   44

   3   rms: 0.2324E+00   max: -.9585E+00   T at   56  1   RLX: 0.522
       a = -4.000      CL =  0.1840
      Cm = -0.1285     CD =  0.01891   =>   CDf =  0.00800    CDp =  0.01091

 Side 1  free  transition at x/c =  0.6966   60
 Side 2  free  transition at x/c =  0.1550   44

   4   rms: 0.1674E+00   max: 0.1033E+01   D at   60  1   RLX: 0.729
       a = -4.000      CL =  0.1058
      Cm = -0.1088     CD =  0.02179   =>   CDf =  0.00846    CDp =  0.01333

 Side 1  free  transition at x/c =  0.7120   61
 Side 2  free  transition at x/c =  0.1515   43

   5   rms: 0.6107E-01   max: 0.2656E+00   D at   44  2
       a = -4.000      CL =  0.1746
      Cm = -0.1202     CD =  0.02405   =>   CDf =  0.00858    CDp =  0.01547

 Side 1  free  transition at x/c =  0.7253   62
 Side 2  free  transition at x/c =  0.1516   43

   6   rms: 0.2135E-01   max: -.1638E+00   T at   63  1
       a = -4.000      CL =  0.1897
      Cm = -0.1232     CD =  0.02369   =>   CDf =  0.00876    CDp =  0.01494

 Side 1  free  transition at x/c =  0.7296   62
 Side 2  free  transition at x/c =  0.1520   43

   7   rms: 0.3430E-02   max: -.2584E-01   D at   65  1
       a = -4.000      CL =  0.1882
      Cm = -0.1229     CD =  0.02382   =>   CDf =  0.00865    CDp =  0.01518

 Side 1  free  transition at x/c =  0.7290   62
 Side 2  free  transition at x/c =  0.1519   43

   8   rms: 0.7465E-04   max: -.8797E-03   D at   62  1
       a = -4.000      CL =  0.1882
      Cm = -0.1229     CD =  0.02383   =>   CDf =  0.00866    CDp =  0.01517
 plradd ia,ip,cpol            1           0  3.00550889E-02

 Point added to stored polar  1
 Point written to save file  goe625_Re150k.base.pol                          
 Dump file unspecified or not available
 Calculating wake trajectory ...
 Calculating source influence matrix ...

 Solving BL system ...

 Side 1  free  transition at x/c =  0.7290   62
 Side 2  free  transition at x/c =  0.1519   43

   1   rms: 0.8909E-01   max: -.4044E+00   T at   43  2
       a = -3.500      CL =  0.2518
      Cm = -0.1233     CD =  0.02237   =>   CDf =  0.00861    CDp =  0.01375

 Side 1  free  transition at x/c =  0.7118   62
 Side 2  free  transition at x/c =  0.1599   43

   2   rms: 0.8910E-01   max: 0.9301E+00   D at   43  2
       a = -3.500      CL =  0.2422
      Cm = -0.1222     CD =  0.02216   =>   CDf =  0.00884    CDp =  0.01333

 Side 1  free  transition at x/c =  0.7029   61
 Side 2  free  transition at x/c =  0.1578   43

   3   rms: 0.1358E-01   max: 0.1149E+00   D at   44  2
       a = -3.500      CL =  0.2449
      Cm = -0.1226     CD =  0.02213   =>   CDf =  0.00888    CDp =  0.01325

 Side 1  free  transition at x/c =  0.7057   61
 Side 2  free  transition at x/c =  0.1573   43

   4   rms: 0.6416E-03   max: 0.5167E-02   D at   44  2
       a = -3.500      CL =  0.2446
      Cm = -0.1226     CD =  0.02214   =>   CDf =  0.00886    CDp =  0.01328

 Side 1  free  transition at x/c =  0.7055   61
 Side 2  free  transition at x/c =  0.1573   43

   5   rms: 0.4917E-05   max: -.4626E-04   D at   62  1
       a = -3.500      CL =  0.2446
      Cm = -0.1226     CD =  0.02214   =>   CDf =  0.00885    CDp =  0.01329
 plradd ia,ip,cpol            2           0  3.38443778E-02

 Point added to stored polar  1
 Point written to save file  goe625_Re150k.base.pol                          
 Dump file unspecified or not available
 Calculating wake trajectory ...
 Calculating source influence matrix ...

 Solving BL system ...

 Side 1  free  transition at x/c =  0.7055   61
 Side 2  free  transition at x/c =  0.1573   43

   1   rms: 0.8451E-01   max: 0.6205E+00   T at   61  1   RLX: 0.888
       a = -3.000      CL =  0.2603
      Cm = -0.1168     CD =  0.02203   =>   CDf =  0.00886    CDp =  0.01317

 Side 1  free  transition at x/c =  0.6648   59
 Side 2  free  transition at x/c =  0.1615   43

   2   rms: 0.5603E-01   max: -.4452E+00   D at   60  1
       a = -3.000      CL =  0.3068
      Cm = -0.1231     CD =  0.02114   =>   CDf =  0.00912    CDp =  0.01202

 Side 1  free  transition at x/c =  0.6860   61
 Side 2  free  transition at x/c =  0.1655   42

   3   rms: 0.3288E-01   max: 0.2385E+00   D at   62  1
       a = -3.000      CL =  0.2848
      Cm = -0.1195     CD =  0.02154   =>   CDf =  0.00914    CDp =  0.01241

 Side 1  free  transition at x/c =  0.6690   61
 Side 2  free  transition at x/c =  0.1640   42

   4   rms: 0.1830E-01   max: -.1470E+00   T at   62  1
       a = -3.000      CL =  0.2964
      Cm = -0.1214     CD =  0.02119   =>   CDf =  0.00921    CDp =  0.01198

 Side 1  free  transition at x/c =  0.6753   61
 Side 2  free  transition at x/c =  0.1649   42

   5   rms: 0.2742E-02   max: -.3151E-01   D at   61  1
       a = -3.000      CL =  0.2953
      Cm = -0.1212     CD =  0.02126   =>   CDf =  0.00909    CDp =  0.01217

 Side 1  free  transition at x/c =  0.6753   61
 Side 2  free  transition at x/c =  0.1648   42

   6   rms: 0.2963E-04   max: -.2821E-03   D at   64  1
       a = -3.000      CL =  0.2953
      Cm = -0.1212     CD =  0.02127   =>   CDf =  0.00908    CDp =  0.01218
 plradd ia,ip,cpol            3           0  3.79083306E-02

 Point added to stored polar  1
 Point written to save file  goe625_Re150k.base.pol                          
 Dump file unspecified or not available
 Calculating wake trajectory ...
 Calculating source influence matrix ...

 Solving BL system ...

 Side 1  free  transition at x/c =  0.6752   61
 Side 2  free  transition at x/c =  0.1648   42

   1   rms: 0.8223E-01   max: -.4125E+00   T at   42  2
       a = -2.500      CL =  0.3514
      Cm = -0.1206     CD =  0.02038   =>   CDf =  0.00902    CDp =  0.01136

 Side 1  free  transition at x/c =  0.6500   61
 Side 2  free  transition at x/c =  0.1761   42

   2   rms: 0.4602E-01   max: 0.4941E+00   D at   42  2
       a = -2.500      CL =  0.3515
      Cm = -0.1208     CD =  0.02026   =>   CDf =  0.00928    CDp =  0.01098

 Side 1  free  transition at x/c =  0.6491   60
 Side 2  free  transition at x/c =  0.1749   42

   3   rms: 0.3593E-02   max: 0.2970E-01   D at   43  2
       a = -2.500      CL =  0.3505
      Cm = -0.1207     CD =  0.02030   =>   CDf =  0.00935    CDp =  0.01095

 Side 1  free  transition at x/c =  0.6485   60
 Side 2  free  transition at x/c =  0.1745   42

   4   rms: 0.4274E-04   max: -.3670E-03   D at   42  2
       a = -2.500      CL =  0.3505
      Cm = -0.1207     CD =  0.02030   =>   CDf =  0.00935    CDp =  0.01095
 plradd ia,ip,cpol            4           0  4.22710367E-02

 Point added to stored polar  1
 Point written to save file  goe625_Re150k.base.pol                          
 Dump file unspecified or not available
 Calculating wake trajectory ...
 Calculating source influence matrix ...

 Solving BL system ...

 Side 1  free  transition at x/c =  0.6485   60
 Side 2  free  transition at x/c =  0.1745   42

   1   rms: 0.7680E-01   max: 0.4385E+00   T at   60  1
       a = -2.000      CL =  0.3851
      Cm = -0.1170     CD =  0.02010   =>   CDf =  0.00936    CDp =  0.01075

 Side 1  free  transition at x/c =  0.6135   59
 Side 2  free  transition at x/c =  0.1841   42

   2   rms: 0.4951E-01   max: -.3392E+00   D at   59  1
       a = -2.000      CL =  0.4068
      Cm = -0.1203     CD =  0.01989   =>   CDf =  0.00980    CDp =  0.01008

 Side 1  free  transition at x/c =  0.6254   59
 Side 2  free  transition at x/c =  0.1909   43

   3   rms: 0.2961E-01   max: 0.3774E+00   D at   43  2
       a = -2.000      CL =  0.4015
      Cm = -0.1196     CD =  0.01970   =>   CDf =  0.00945    CDp =  0.01026

 Side 1  free  transition at x/c =  0.6221   59
 Side 2  free  transition at x/c =  0.1889   43

   4   rms: 0.2438E-02   max: 0.2224E-01   D at   43  2
       a = -2.000      CL =  0.4015
      Cm = -0.1196     CD =  0.01971   =>   CDf =  0.00952    CDp =  0.01019

 Side 1  free  transition at x/c =  0.6223   59
 Side 2  free  transition at x/c =  0.1887   43

   5   rms: 0.8416E-05   max: -.4967E-04   D at   45  2
       a = -2.000      CL =  0.4015
      Cm = -0.1196     CD =  0.01971   =>   CDf =  0.00952    CDp =  0.01019
 plradd ia,ip,cpol            5           0  0.28600359    

 Point added to stored polar  1
 Point written to save file  goe625_Re150k.base.pol                          
 Dump file unspecified or not available
 Calculating wake trajectory ...
 Calculating source influence matrix ...

 Solving BL system ...

 Side 1  free  transition at x/c =  0.6223   59
 Side 2  free  transition at x/c =  0.1887   43

   1   rms: 0.8877E-01   max: -.7627E+00   T at   43  2   RLX: 0.656
       a = -1.500      CL =  0.4339
      Cm = -0.1190     CD =  0.01917   =>   CDf =  0.00944    CDp =  0.00973

 Side 1  free  transition at x/c =  0.6077   59
 Side 2  free  transition at x/c =  0.2006   42

   2   rms: 0.5303E-01   max: -.4281E+00   T at   42  2
       a = -1.500      CL =  0.4539
      Cm = -0.1188     CD =  0.01970   =>   CDf =  0.00976    CDp =  0.00994

 Side 1  free  transition at x/c =  0.6006   59
 Side 2  free  transition at x/c =  0.2156   43

   3   rms: 0.3635E-01   max: 0.5213E+00   D at   43  2
       a = -1.500      CL =  0.4544
      Cm = -0.1190     CD =  0.01920   =>   CDf =  0.00950    CDp =  0.00971

 Side 1  free  transition at x/c =  0.6019   59
 Side 2  free  transition at x/c =  0.2132   43

   4   rms: 0.5514E-02   max: 0.5108E-01   D at   43  2
       a = -1.500      CL =  0.4540
      Cm = -0.1190     CD =  0.01924   =>   CDf =  0.00955    CDp =  0.00969

 Side 1  free  transition at x/c =  0.6018   59
 Side 2  free  transition at x/c =  0.2118   43

   5   rms: 0.1732E-03   max: -.1994E-02   D at   43  2
       a = -1.500      CL =  0.4540
      Cm = -0.1190     CD =  0.01924   =>   CDf =  0.00957    CDp =  0.00967

 Side 1  free  transition at x/c =  0.6018   59
 Side 2  free  transition at x/c =  0.2118   43

   6   rms: 0.1601E-05   max: 0.1023E-04   D at    4  2
       a = -1.500      CL =  0.4540
      Cm = -0.1190     CD =  0.01924   =>   CDf =  0.00957    CDp =  0.00967
 plradd ia,ip,cpol            6           0  0.27075115    

 Point added to stored polar  1
 Point written to save file  goe625_Re150k.base.pol                          
 Dump file unspecified or not available
 Calculating wake trajectory ...
 Calculating source influence matrix ...

 Solving BL system ...

 Side 1  free  transition at x/c =  0.6018   59
 Side 2  free  transition at x/c =  0.2118   43

   1   rms: 0.8733E-01   max: -.8011E+00   T at   43  2   RLX: 0.624
       a = -1.000      CL =  0.4863
      Cm = -0.1186     CD =  0.01905   =>   CDf =  0.00947    CDp =  0.00958

 Side 1  free  transition at x/c =  0.5911   59
 Side 2  free  transition at x/c =  0.2274   43

   2   rms: 0.8069E-01   max: -.6120E+00   T at   43  2   RLX: 0.817
       a = -1.000      CL =  0.5022
      Cm = -0.1185     CD =  0.01855   =>   CDf =  0.00990    CDp =  0.00865

 Side 1  free  transition at x/c =  0.5860   59
 Side 2  free  transition at x/c =  0.2394   43

   3   rms: 0.3112E-01   max: -.2649E+00   D at   43  2
       a = -1.000      CL =  0.5075
      Cm = -0.1186     CD =  0.01899   =>   CDf =  0.00975    CDp =  0.00924

 Side 1  free  transition at x/c =  0.5854   59
 Side 2  free  transition at x/c =  0.2412   43

   4   rms: 0.2069E-02   max: 0.2195E-01   D at   44  2
       a = -1.000      CL =  0.5071
      Cm = -0.1186     CD =  0.01900   =>   CDf =  0.00965    CDp =  0.00936

 Side 1  free  transition at x/c =  0.5854   59
 Side 2  free  transition at x/c =  0.2405   43

   5   rms: 0.1274E-04   max: -.1239E-03   D at   43  2
       a = -1.000      CL =  0.5071
      Cm = -0.1186     CD =  0.01900   =>   CDf =  0.00965    CDp =  0.00935
 plradd ia,ip,cpol            7           0  0.27075115    

 Point added to stored polar  1
 Point written to save file  goe625_Re150k.base.pol                          
 Dump file unspecified or not available
 Calculating wake trajectory ...
 Calculating source influence matrix ...

 Solving BL system ...

 Side 1  free  transition at x/c =  0.5854   59
 Side 2  free  transition at x/c =  0.2405   43

   1   rms: 0.7992E-01   max: -.6262E+00   T at   43  2   RLX: 0.799
       a = -0.500      CL =  0.5490
      Cm = -0.1181     CD =  0.01909   =>   CDf =  0.00955    CDp =  0.00954

 MRCHDU: Convergence failed at  44  side 2    Res =  0.6195E+01
 MRCHDU: Convergence failed at  45  side 2    Res =  0.4183E+01
 MRCHDU: Convergence failed at  46  side 2    Res =  0.1409E+02
 MRCHDU: Convergence failed at  47  side 2    Res =  0.2356E+03
 MRCHDU: Convergence failed at  48  side 2    Res =  0.5793E+02
 MRCHDU: Convergence failed at  49  side 2    Res =  0.3951E+02
 MRCHDU: Convergence failed at  50  side 2    Res =  0.3734E+02
 MRCHDU: Convergence failed at  51  side 2    Res =  0.2784E+02
 MRCHDU: Convergence failed at  52  side 2    Res =  0.3404E+02
 MRCHDU: Convergence failed at  53  side 2    Res =  0.4342E+02
 MRCHDU: Convergence failed at  54  side 2    Res =  0.8857E+02
 MRCHDU: Convergence failed at  55  side 2    Res =  0.2749E+03
 MRCHDU: Convergence failed at  56  side 2    Res =  0.2149E+03
 MRCHDU: Convergence failed at  57  side 2    Res =  0.8556E+02
 MRCHDU: Convergence failed at  58  side 2    Res =  0.5448E+02
 MRCHDU: Convergence failed at  59  side 2    Res =  0.3894E+02
 MRCHDU: Convergence failed at  60  side 2    Res =  0.3191E+02
 MRCHDU: Convergence failed at  61  side 2    Res =  0.2725E+02
 MRCHDU: Convergence failed at  62  side 2    Res =  0.2360E+02
 MRCHDU: Convergence failed at  63  side 2    Res =  0.2126E+02
 MRCHDU: Convergence failed at  64  side 2    Res =  0.1983E+02
 MRCHDU: Convergence failed at  65  side 2    Res =  0.1832E+02
 MRCHDU: Convergence failed at  66  side 2    Res =  0.1708E+02
 MRCHDU: Convergence failed at  67  side 2    Res =  0.1592E+02
 MRCHDU: Convergence failed at  68  side 2    Res =  0.1492E+02
 MRCHDU: Convergence failed at  69  side 2    Res =  0.1411E+02
 MRCHDU: Convergence failed at  70  side 2    Res =  0.1334E+02
 MRCHDU: Convergence failed at  71  side 2    Res =  0.1256E+02
 MRCHDU: Convergence failed at  72  side 2    Res =  0.1183E+02
 MRCHDU: Convergence failed at  73  side 2    Res =  0.1111E+02
 MRCHDU: Convergence failed at  74  side 2    Res =  0.1039E+02
 MRCHDU: Convergence failed at  75  side 2    Res =  0.9686E+01
 MRCHDU: Convergence failed at  76  side 2    Res =  0.7999E+01
 MRCHDU: Convergence failed at  77  side 2    Res =  0.8827E+01
 MRCHDU: Convergence failed at  78  side 2    Res =  0.9949E+01
 MRCHDU: Convergence failed at  79  side 2    Res =  0.9992E+01
 Side 1  free  transition at x/c =  0.5728   59
 Side 2  free  transition at x/c =  0.2682   44

   2   rms: 0.2765E+00   max: 0.9574E+00   T at   79  2   RLX: 0.665
       a = -0.500      CL =  0.5239
      Cm = -0.0943     CD =  0.01639   =>   CDf =  0.00638    CDp =  0.01001

 Side 1  free  transition at x/c =  0.5705   59
 Side 2  free  transition at x/c =  0.2795   44

   3   rms: 0.6473E-01   max: -.5308E+00   D at   45  2   RLX: 0.942
       a = -0.500      CL =  0.5563
      Cm = -0.1166     CD =  0.01852   =>   CDf =  0.01025    CDp =  0.00827

 Side 1  free  transition at x/c =  0.5718   59
 Side 2  free  transition at x/c =  0.2691   44

   4   rms: 0.7362E-02   max: -.1183E+00   D at   45  2
       a = -0.500      CL =  0.5612
      Cm = -0.1184     CD =  0.01882   =>   CDf =  0.00970    CDp =  0.00912

 Side 1  free  transition at x/c =  0.5718   59
 Side 2  free  transition at x/c =  0.2693   44

   5   rms: 0.3694E-03   max: -.6215E-02   D at   45  2
       a = -0.500      CL =  0.5612
      Cm = -0.1184     CD =  0.01882   =>   CDf =  0.00966    CDp =  0.00916

 Side 1  free  transition at x/c =  0.5718   59
 Side 2  free  transition at x/c =  0.2692   44

   6   rms: 0.2028E-05   max: -.3518E-04   D at   45  2
       a = -0.500      CL =  0.5612
      Cm = -0.1184     CD =  0.01882   =>   CDf =  0.00966    CDp =  0.00916
 plradd ia,ip,cpol            8           0  0.27075115    

 Point added to stored polar  1
 Point written to save file  goe625_Re150k.base.pol                          
 Dump file unspecified or not available
 Calculating wake trajectory ...
 Calculating source influence matrix ...

 Solving BL system ...

 Side 1  free  transition at x/c =  0.5718   59
 Side 2  free  transition at x/c =  0.2692   44

   1   rms: 0.8272E-01   max: -.5738E+00   T at   44  2   RLX: 0.871
       a =  0.000      CL =  0.6006
      Cm = -0.1171     CD =  0.01869   =>   CDf =  0.00955    CDp =  0.00914

 Side 1  free  transition at x/c =  0.5588   60
 Side 2  free  transition at x/c =  0.2896   44

   2   rms: 0.6921E-01   max: -.4907E+00   T at   44  2
       a =  0.000      CL =  0.6139
      Cm = -0.1182     CD =  0.01829   =>   CDf =  0.00994    CDp =  0.00836

 Side 1  free  transition at x/c =  0.5594   60
 Side 2  free  transition at x/c =  0.3061   45

   3   rms: 0.1995E-01   max: -.2455E+00   D at   44  2
       a =  0.000      CL =  0.6134
      Cm = -0.1180     CD =  0.01874   =>   CDf =  0.00969    CDp =  0.00904

 Side 1  free  transition at x/c =  0.5593   60
 Side 2  free  transition at x/c =  0.3072   45

   4   rms: 0.4968E-02   max: 0.6467E-01   C at   45  2
       a =  0.000      CL =  0.6133
      Cm = -0.1179     CD =  0.01877   =>   CDf =  0.00953    CDp =  0.00924

 Side 1  free  transition at x/c =  0.5593   60
 Side 2  free  transition at x/c =  0.3054   45

   5   rms: 0.2098E-03   max: -.4246E-02   D at   46  2
       a =  0.000      CL =  0.6133
      Cm = -0.1180     CD =  0.01878   =>   CDf =  0.00957    CDp =  0.00921

 Side 1  free  transition at x/c =  0.5593   60
 Side 2  free  transition at x/c =  0.3053   45

   6   rms: 0.1510E-05   max: -.2278E-04   D at   46  2
       a =  0.000      CL =  0.6133
      Cm = -0.1180     CD =  0.01878   =>   CDf =  0.00957    CDp =  0.00921
 plradd ia,ip,cpol            9           0  0.25549909    

 Point added to stored polar  1
 Point written to save file  goe625_Re150k.base.pol                          
 Dump file unspecified or not available
 Calculating wake trajectory ...
 Calculating source influence matrix ...

 Solving BL system ...

 Side 1  free  transition at x/c =  0.5593   60
 Side 2  free  transition at x/c =  0.3053   45

   1   rms: 0.1011E+00   max: -.7162E+00   C at   45  2   RLX: 0.698
       a =  0.500      CL =  0.6512
      Cm = -0.1181     CD =  0.01849   =>   CDf =  0.00958    CDp =  0.00892

 Side 1  free  transition at x/c =  0.5535   59
 Side 2  free  transition at x/c =  0.3394   46

   2   rms: 0.4268E-01   max: -.4643E+00   C at   46  2
       a =  0.500      CL =  0.6637
      Cm = -0.1174     CD =  0.01873   =>   CDf =  0.00941    CDp =  0.00932

 Side 1  free  transition at x/c =  0.5492   60
 Side 2  free  transition at x/c =  0.3848   47

   3   rms: 0.2687E-01   max: -.5061E+00   C at   47  2   RLX: 0.988
       a =  0.500      CL =  0.6634
      Cm = -0.1174     CD =  0.01854   =>   CDf =  0.00917    CDp =  0.00937

 Side 1  free  transition at x/c =  0.5495   60
 Side 2  free  transition at x/c =  0.3986   48

   4   rms: 0.1170E-01   max: -.2195E+00   C at   48  2
       a =  0.500      CL =  0.6636
      Cm = -0.1174     CD =  0.01856   =>   CDf =  0.00912    CDp =  0.00944

 Side 1  free  transition at x/c =  0.5495   60
 Side 2  free  transition at x/c =  0.4068   48

   5   rms: 0.5535E-03   max: -.9859E-02   C at   48  2
       a =  0.500      CL =  0.6636
      Cm = -0.1174     CD =  0.01856   =>   CDf =  0.00906    CDp =  0.00950

 Side 1  free  transition at x/c =  0.5495   60
 Side 2  free  transition at x/c =  0.4071   48

   6   rms: 0.2602E-05   max: 0.2992E-04   C at   48  2
       a =  0.500      CL =  0.6636
      Cm = -0.1174     CD =  0.01856   =>   CDf =  0.00906    CDp =  0.00950
 plradd ia,ip,cpol           10           0  0.25549909    

 Point added to stored polar  1
 Point written to save file  goe625_Re150k.base.pol                          
 Dump file unspecified or not available
 Calculating wake trajectory ...
 Calculating source influence matrix ...

 Solving BL system ...

 Side 1  free  transition at x/c =  0.5495   60
 Side 2  free  transition at x/c =  0.4071   48

   1   rms: 0.2351E+00   max: -.4280E+01   C at   48  2   RLX: 0.117
       a =  1.000      CL =  0.6688
      Cm = -0.1172     CD =  0.01849   =>   CDf =  0.00907    CDp =  0.00942

 Side 1  free  transition at x/c =  0.5483   60
 Side 2  free  transition at x/c =  0.4389   50

   2   rms: 0.3088E+00   max: -.5713E+01   C at   50  2   RLX: 0.088
       a =  1.000      CL =  0.6723
      Cm = -0.1171     CD =  0.01838   =>   CDf =  0.00894    CDp =  0.00944

 Side 1  free  transition at x/c =  0.5476   60
 Side 2  free  transition at x/c =  0.4591   51

   3   rms: 0.3154E+00   max: -.5824E+01   C at   51  2   RLX: 0.086
       a =  1.000      CL =  0.6757
      Cm = -0.1171     CD =  0.01833   =>   CDf =  0.00886    CDp =  0.00947

 Side 1  free  transition at x/c =  0.5470   60
 Side 2  free  transition at x/c =  0.4791   52

   4   rms: 0.3261E+00   max: -.6009E+01   C at   52  2   RLX: 0.083
       a =  1.000      CL =  0.6785
      Cm = -0.1171     CD =  0.01828   =>   CDf =  0.00879    CDp =  0.00949

 Side 1  free  transition at x/c =  0.5465   60
 Side 2  free  transition at x/c =  0.4982   53

   5   rms: 0.3243E+00   max: -.5933E+01   C at   53  2   RLX: 0.084
       a =  1.000      CL =  0.6811
      Cm = -0.1171     CD =  0.01822   =>   CDf =  0.00872    CDp =  0.00950

 Side 1  free  transition at x/c =  0.5460   60
 Side 2  free  transition at x/c =  0.5192   53

   6   rms: 0.2861E+00   max: -.5215E+01   C at   53  2   RLX: 0.096
       a =  1.000      CL =  0.6840
      Cm = -0.1171     CD =  0.01820   =>   CDf =  0.00862    CDp =  0.00958

 Side 1  free  transition at x/c =  0.5455   60
 Side 2  free  transition at x/c =  0.5528   55

   7   rms: 0.5212E+00   max: -.9209E+01   C at   55  2   RLX: 0.054
       a =  1.000      CL =  0.6847
      Cm = -0.1168     CD =  0.01805   =>   CDf =  0.00844    CDp =  0.00962

 Side 1  free  transition at x/c =  0.5452   60
 Side 2  free  transition at x/c =  0.5660   56

   8   rms: 0.4177E+00   max: -.7536E+01   C at   56  2   RLX: 0.066
       a =  1.000      CL =  0.6860
      Cm = -0.1168     CD =  0.01802   =>   CDf =  0.00840    CDp =  0.00962

 Side 1  free  transition at x/c =  0.5449   60
 Side 2  free  transition at x/c =  0.5883   57

   9   rms: 0.4388E+00   max: -.7801E+01   C at   57  2   RLX: 0.064
       a =  1.000      CL =  0.6868
      Cm = -0.1166     CD =  0.01795   =>   CDf =  0.00830    CDp =  0.00965

 Side 1  free  transition at x/c =  0.5447   60
 Side 2  free  transition at x/c =  0.6148   58

  10   rms: 0.4654E+00   max: -.8046E+01   C at   58  2   RLX: 0.062
       a =  1.000      CL =  0.6872
      Cm = -0.1163     CD =  0.01787   =>   CDf =  0.00818    CDp =  0.00969

 Side 1  free  transition at x/c =  0.5445   60
 Side 2  free  transition at x/c =  0.6451   59

  11   rms: 0.4588E+00   max: -.7674E+01   C at   59  2   RLX: 0.065
       a =  1.000      CL =  0.6876
      Cm = -0.1160     CD =  0.01780   =>   CDf =  0.00807    CDp =  0.00974

 Side 1  free  transition at x/c =  0.5443   60
 Side 2  free  transition at x/c =  0.6825   61

  12   rms: 0.3601E+00   max: -.6069E+01   C at   61  2   RLX: 0.082
       a =  1.000      CL =  0.6876
      Cm = -0.1154     CD =  0.01772   =>   CDf =  0.00794    CDp =  0.00978

 Side 1  free  transition at x/c =  0.5440   60
 Side 2  free  transition at x/c =  0.7287   63

  13   rms: 0.2525E+00   max: -.4205E+01   C at   63  2   RLX: 0.119
       a =  1.000      CL =  0.6880
      Cm = -0.1147     CD =  0.01764   =>   CDf =  0.00780    CDp =  0.00984

 Side 1  free  transition at x/c =  0.5437   60
 Side 2  free  transition at x/c =  0.7939   66

  14   rms: 0.1574E+00   max: -.2527E+01   C at   66  2   RLX: 0.198
       a =  1.000      CL =  0.6894
      Cm = -0.1133     CD =  0.01756   =>   CDf =  0.00762    CDp =  0.00994

 Side 1  free  transition at x/c =  0.5431   60
 Side 2  free  transition at x/c =  0.8771   70

  15   rms: 0.1391E+00   max: -.1655E+01   C at   70  2   RLX: 0.302
       a =  1.000      CL =  0.7066
      Cm = -0.1144     CD =  0.01749   =>   CDf =  0.00750    CDp =  0.00999

 Side 1  free  transition at x/c =  0.5420   60
 Side 2  free  transition at x/c =  0.9728   75

  16   rms: 0.8528E-01   max: 0.1052E+01   C at   75  2
       a =  1.000      CL =  0.7530
      Cm = -0.1222     CD =  0.01778   =>   CDf =  0.00744    CDp =  0.01035

 Side 1  free  transition at x/c =  0.5395   61
 Side 2 forced transition at x/c =  1.0000   76

  17   rms: 0.4018E-01   max: 0.5221E+00   C at   76  2
       a =  1.000      CL =  0.7814
      Cm = -0.1277     CD =  0.01782   =>   CDf =  0.00764    CDp =  0.01018

 Side 1  free  transition at x/c =  0.5389   61
 Side 2  free  transition at x/c =  0.9765   74

  18   rms: 0.3502E-01   max: -.2989E+00   D at   76  2
       a =  1.000      CL =  0.7460
      Cm = -0.1206     CD =  0.01777   =>   CDf =  0.00766    CDp =  0.01011

 Side 1  free  transition at x/c =  0.5398   61
 Side 2  free  transition at x/c =  0.9825   75

  19   rms: 0.5621E-02   max: 0.7618E-01   C at   75  2
       a =  1.000      CL =  0.7468
      Cm = -0.1208     CD =  0.01781   =>   CDf =  0.00759    CDp =  0.01022

 Side 1  free  transition at x/c =  0.5398   61
 Side 2  free  transition at x/c =  0.9779   74

  20   rms: 0.1237E-02   max: -.1245E-01   D at   76  2
       a =  1.000      CL =  0.7459
      Cm = -0.1206     CD =  0.01781   =>   CDf =  0.00759    CDp =  0.01023

 Side 1  free  transition at x/c =  0.5398   61
 Side 2  free  transition at x/c =  0.9785   75

  21   rms: 0.3133E-02   max: 0.4893E-01   C at   75  2
       a =  1.000      CL =  0.7461
      Cm = -0.1206     CD =  0.01781   =>   CDf =  0.00758    CDp =  0.01023

 Side 1  free  transition at x/c =  0.5398   61
 Side 2  free  transition at x/c =  0.9781   75

  22   rms: 0.1150E-03   max: -.1232E-02   D at   76  2
       a =  1.000      CL =  0.7460
      Cm = -0.1206     CD =  0.01781   =>   CDf =  0.00758    CDp =  0.01023

 Side 1  free  transition at x/c =  0.5398   61
 Side 2  free  transition at x/c =  0.9781   75

  23   rms: 0.1822E-05   max: 0.1761E-04   D at    4  1
       a =  1.000      CL =  0.7460
      Cm = -0.1206     CD =  0.01781   =>   CDf =  0.00758    CDp =  0.01023
 plradd ia,ip,cpol           11           0  0.16786441    

 Point added to stored polar  1
 Point written to save file  goe625_Re150k.base.pol                          
 Dump file unspecified or not available
 Calculating wake trajectory ...
 Calculating source influence matrix ...

 Solving BL system ...

 Side 1  free  transition at x/c =  0.5398   61
 Side 2  free  transition at x/c =  0.9781   75

   1   rms: 0.2637E+00   max: 0.1399E+01   D at   76  2   RLX: 0.686
       a =  1.500      CL =  0.9345
      Cm = -0.1506     CD =  0.01834   =>   CDf =  0.00753    CDp =  0.01081

 Side 1  free  transition at x/c =  0.5318   61
 Side 2 forced transition at x/c =  1.0000   75

   2   rms: 0.9053E-01   max: -.6050E+00   D at   75  2   RLX: 0.826
       a =  1.500      CL =  0.8440
      Cm = -0.1306     CD =  0.01854   =>   CDf =  0.00800    CDp =  0.01054

 Side 1  free  transition at x/c =  0.5307   61
 Side 2 forced transition at x/c =  1.0000   75

   3   rms: 0.1838E-01   max: -.2010E+00   C at   75  2
       a =  1.500      CL =  0.8234
      Cm = -0.1257     CD =  0.01849   =>   CDf =  0.00790    CDp =  0.01059

 Side 1  free  transition at x/c =  0.5305   61
 Side 2 forced transition at x/c =  1.0000   75

   4   rms: 0.4939E-03   max: 0.3501E-02   C at   75  2
       a =  1.500      CL =  0.8237
      Cm = -0.1257     CD =  0.01850   =>   CDf =  0.00784    CDp =  0.01066

 Side 1  free  transition at x/c =  0.5305   61
 Side 2 forced transition at x/c =  1.0000   75

   5   rms: 0.3145E-05   max: 0.2703E-04   D at    4  1
       a =  1.500      CL =  0.8237
      Cm = -0.1257     CD =  0.01850   =>   CDf =  0.00783    CDp =  0.01066
 plradd ia,ip,cpol           12           0  0.16786441    

 Point added to stored polar  1
 Point written to save file  goe625_Re150k.base.pol                          
 Dump file unspecified or not available
 Calculating wake trajectory ...
 Calculating source influence matrix ...

 Solving BL system ...

 Side 1  free  transition at x/c =  0.5305   61
 Side 2 forced transition at x/c =  1.0000   75

   1   rms: 0.6944E-01   max: -.2035E+00   C at   75  2
       a =  2.000      CL =  0.8628
      Cm = -0.1232     CD =  0.01913   =>   CDf =  0.00784    CDp =  0.01128

 Side 1  free  transition at x/c =  0.5228   61
 Side 2 forced transition at x/c =  1.0000   75

   2   rms: 0.8704E-02   max: 0.6146E-01   C at   75  2
       a =  2.000      CL =  0.8674
      Cm = -0.1239     CD =  0.01908   =>   CDf =  0.00806    CDp =  0.01102

 Side 1  free  transition at x/c =  0.5232   61
 Side 2 forced transition at x/c =  1.0000   75

   3   rms: 0.2052E-03   max: 0.1631E-02   C at   75  2
       a =  2.000      CL =  0.8675
      Cm = -0.1240     CD =  0.01909   =>   CDf =  0.00804    CDp =  0.01105

 Side 1  free  transition at x/c =  0.5232   61
 Side 2 forced transition at x/c =  1.0000   75

   4   rms: 0.2554E-05   max: 0.2399E-04   D at    4  2
       a =  2.000      CL =  0.8675
      Cm = -0.1240     CD =  0.01909   =>   CDf =  0.00804    CDp =  0.01105
 plradd ia,ip,cpol           13           0  0.15516409    

 Point added to stored polar  1
 Point written to save file  goe625_Re150k.base.pol                          
 Dump file unspecified or not available
 Calculating wake trajectory ...
 Calculating source influence matrix ...

 Solving BL system ...

 Side 1  free  transition at x/c =  0.5232   61
 Side 2 forced transition at x/c =  1.0000   75

   1   rms: 0.6951E-01   max: -.1711E+00   C at   75  2
       a =  2.500      CL =  0.9165
      Cm = -0.1231     CD =  0.01970   =>   CDf =  0.00798    CDp =  0.01173

 Side 1  free  transition at x/c =  0.5167   61
 Side 2 forced transition at x/c =  1.0000   74

   2   rms: 0.6031E-02   max: -.4220E-01   D at   61  1
       a =  2.500      CL =  0.9158
      Cm = -0.1230     CD =  0.01982   =>   CDf =  0.00831    CDp =  0.01151

 Side 1  free  transition at x/c =  0.5165   61
 Side 2 forced transition at x/c =  1.0000   74

   3   rms: 0.1128E-03   max: 0.7026E-03   D at   62  1
       a =  2.500      CL =  0.9159
      Cm = -0.1230     CD =  0.01983   =>   CDf =  0.00828    CDp =  0.01155

 Side 1  free  transition at x/c =  0.5164   61
 Side 2 forced transition at x/c =  1.0000   74

   4   rms: 0.2053E-05   max: 0.9572E-05   D at   87  1
       a =  2.500      CL =  0.9159
      Cm = -0.1230     CD =  0.01983   =>   CDf =  0.00828    CDp =  0.01155
 plradd ia,ip,cpol           14           0  0.15516409    

 Point added to stored polar  1
 Point written to save file  goe625_Re150k.base.pol                          
 Dump file unspecified or not available
 Calculating wake trajectory ...
 Calculating source influence matrix ...

 Solving BL system ...

 Side 1  free  transition at x/c =  0.5164   61
 Side 2 forced transition at x/c =  1.0000   74

   1   rms: 0.6383E-01   max: -.2679E+00   C at   74  2
       a =  3.000      CL =  0.9481
      Cm = -0.1192     CD =  0.02062   =>   CDf =  0.00821    CDp =  0.01241

 Side 1  free  transition at x/c =  0.5087   62
 Side 2 forced transition at x/c =  1.0000   73

   2   rms: 0.9252E-02   max: 0.8987E-01   C at   73  2
       a =  3.000      CL =  0.9544
      Cm = -0.1203     CD =  0.02059   =>   CDf =  0.00829    CDp =  0.01230

 Side 1  free  transition at x/c =  0.5090   62
 Side 2 forced transition at x/c =  1.0000   73

   3   rms: 0.6589E-03   max: 0.5631E-02   C at   73  2
       a =  3.000      CL =  0.9548
      Cm = -0.1204     CD =  0.02060   =>   CDf =  0.00830    CDp =  0.01230

 Side 1  free  transition at x/c =  0.5090   62
 Side 2 forced transition at x/c =  1.0000   73

   4   rms: 0.1009E-04   max: 0.4630E-04   D at   86  1
       a =  3.000      CL =  0.9548
      Cm = -0.1204     CD =  0.02060   =>   CDf =  0.00830    CDp =  0.01230
 plradd ia,ip,cpol           15           0  0.15516409    

 Point added to stored polar  1
 Point written to save file  goe625_Re150k.base.pol                          
 Dump file unspecified or not available
 Calculating wake trajectory ...
 Calculating source influence matrix ...

 Solving BL system ...

 Side 1  free  transition at x/c =  0.5090   62
 Side 2 forced transition at x/c =  1.0000   73

   1   rms: 0.6710E-01   max: -.1903E+00   C at   73  2
       a =  3.500      CL =  1.0000
      Cm = -0.1189     CD =  0.02131   =>   CDf =  0.00821    CDp =  0.01310

 Side 1  free  transition at x/c =  0.4989   62
 Side 2 forced transition at x/c =  1.0000   72

   2   rms: 0.3219E-01   max: -.2378E+00   D at   63  1
       a =  3.500      CL =  1.0169
      Cm = -0.1218     CD =  0.02122   =>   CDf =  0.00856    CDp =  0.01266

 Side 1  free  transition at x/c =  0.5010   63
 Side 2 forced transition at x/c =  1.0000   72

   3   rms: 0.9920E-02   max: 0.1159E+00   D at   63  1
       a =  3.500      CL =  1.0096
      Cm = -0.1205     CD =  0.02120   =>   CDf =  0.00862    CDp =  0.01258

 Side 1  free  transition at x/c =  0.5004   63
 Side 2 forced transition at x/c =  1.0000   72

   4   rms: 0.1001E-02   max: 0.9411E-02   D at   63  1
       a =  3.500      CL =  1.0091
      Cm = -0.1204     CD =  0.02120   =>   CDf =  0.00858    CDp =  0.01261

 Side 1  free  transition at x/c =  0.5004   63
 Side 2 forced transition at x/c =  1.0000   72

   5   rms: 0.2497E-04   max: -.1307E-03   C at   72  2
       a =  3.500      CL =  1.0091
      Cm = -0.1204     CD =  0.02119   =>   CDf =  0.00858    CDp =  0.01261
 plradd ia,ip,cpol           16           0  0.15516409    

 Point added to stored polar  1
 Point written to save file  goe625_Re150k.base.pol                          
 Dump file unspecified or not available
 Calculating wake trajectory ...
 Calculating source influence matrix ...

 Solving BL system ...

 Side 1  free  transition at x/c =  0.5004   63
 Side 2 forced transition at x/c =  1.0000   72

   1   rms: 0.7975E-01   max: 0.3717E+00   T at   63  1
       a =  4.000      CL =  1.0748
      Cm = -0.1227     CD =  0.02210   =>   CDf =  0.00848    CDp =  0.01362

 Side 1  free  transition at x/c =  0.4932   63
 Side 2 forced transition at x/c =  1.0000   71
 idif Ue xi dudx           1  0.11047292      2.93326378E-03   37.662113    
 Uenew xinew           2  1.60236452E-02  4.25457954E-04

   2   rms: 0.2847E-01   max: 0.2215E+00   D at   64  1
       a =  4.000      CL =  1.0443
      Cm = -0.1173     CD =  0.02212   =>   CDf =  0.00876    CDp =  0.01336

 Side 1  free  transition at x/c =  0.4910   62
 Side 2 forced transition at x/c =  1.0000   72

   3   rms: 0.2973E-02   max: 0.2212E-01   D at   63  1
       a =  4.000      CL =  1.0461
      Cm = -0.1175     CD =  0.02200   =>   CDf =  0.00856    CDp =  0.01344

 Side 1  free  transition at x/c =  0.4910   62
 Side 2 forced transition at x/c =  1.0000   72

   4   rms: 0.3605E-03   max: 0.4430E-02   D at    4  2
       a =  4.000      CL =  1.0460
      Cm = -0.1175     CD =  0.02200   =>   CDf =  0.00855    CDp =  0.01345

 Side 1  free  transition at x/c =  0.4910   62
 Side 2 forced transition at x/c =  1.0000   72

   5   rms: 0.1072E-05   max: 0.7398E-05   D at    4  2
       a =  4.000      CL =  1.0460
      Cm = -0.1175     CD =  0.02200   =>   CDf =  0.00855    CDp =  0.01345
 plradd ia,ip,cpol           17           0  0.15516409    

 Point added to stored polar  1
 Point written to save file  goe625_Re150k.base.pol                          
 Dump file unspecified or not available
 Calculating wake trajectory ...
 Calculating source influence matrix ...

 Solving BL system ...

 Side 1  free  transition at x/c =  0.4910   62
 Side 2 forced transition at x/c =  1.0000   72

   1   rms: 0.6410E-01   max: -.1780E+00   C at   72  2
       a =  4.500      CL =  1.0892
      Cm = -0.1157     CD =  0.02272   =>   CDf =  0.00844    CDp =  0.01428

 Side 1  free  transition at x/c =  0.4836   63
 Side 2 forced transition at x/c =  1.0000   71

   2   rms: 0.8158E-02   max: 0.5102E-01   C at   71  2
       a =  4.500      CL =  1.0976
      Cm = -0.1172     CD =  0.02269   =>   CDf =  0.00869    CDp =  0.01400

 Side 1  free  transition at x/c =  0.4837   63
 Side 2 forced transition at x/c =  1.0000   71

   3   rms: 0.2337E-03   max: 0.2116E-02   D at    4  2
       a =  4.500      CL =  1.0976
      Cm = -0.1172     CD =  0.02269   =>   CDf =  0.00870    CDp =  0.01400

 Side 1  free  transition at x/c =  0.4837   63
 Side 2 forced transition at x/c =  1.0000   71

   4   rms: 0.2383E-05   max: 0.9128E-05   D at   86  1
       a =  4.500      CL =  1.0976
      Cm = -0.1172     CD =  0.02269   =>   CDf =  0.00870    CDp =  0.01400
 plradd ia,ip,cpol           18           0  0.14316231    

 Point added to stored polar  1
 Point written to save file  goe625_Re150k.base.pol                          
 Dump file unspecified or not available
 Calculating wake trajectory ...
 Calculating source influence matrix ...

 Solving BL system ...

 Side 1  free  transition at x/c =  0.4837   63
 Side 2 forced transition at x/c =  1.0000   71

   1   rms: 0.7224E-01   max: -.8683E-01   C at   71  2
       a =  5.000      CL =  1.1572
      Cm = -0.1184     CD =  0.02343   =>   CDf =  0.00857    CDp =  0.01486

 Side 1  free  transition at x/c =  0.4779   63
 Side 2 forced transition at x/c =  1.0000   70

   2   rms: 0.1047E-01   max: 0.7988E-01   D at   64  1
       a =  5.000      CL =  1.1452
      Cm = -0.1164     CD =  0.02370   =>   CDf =  0.00880    CDp =  0.01490

 Side 1  free  transition at x/c =  0.4769   63
 Side 2 forced transition at x/c =  1.0000   70

   3   rms: 0.1334E-02   max: 0.1205E-01   D at   64  1
       a =  5.000      CL =  1.1449
      Cm = -0.1164     CD =  0.02370   =>   CDf =  0.00875    CDp =  0.01495

 Side 1  free  transition at x/c =  0.4769   63
 Side 2 forced transition at x/c =  1.0000   70

   4   rms: 0.3841E-04   max: -.1819E-03   C at   70  2
       a =  5.000      CL =  1.1448
      Cm = -0.1163     CD =  0.02370   =>   CDf =  0.00874    CDp =  0.01496
 plradd ia,ip,cpol           19           0  0.14316231    

 Point added to stored polar  1
 Point written to save file  goe625_Re150k.base.pol                          
 Dump file unspecified or not available
 Calculating wake trajectory ...
 Calculating source influence matrix ...

 Solving BL system ...

 Side 1  free  transition at x/c =  0.4769   63
 Side 2 forced transition at x/c =  1.0000   70

   1   rms: 0.6127E-01   max: 0.2307E+00   T at   63  1
       a =  5.500      CL =  1.1752
      Cm = -0.1126     CD =  0.02478   =>   CDf =  0.00876    CDp =  0.01602

 Side 1  free  transition at x/c =  0.4684   63
 Side 2 forced transition at x/c =  1.0000   70

   2   rms: 0.1394E-01   max: -.1055E+00   D at   64  1
       a =  5.500      CL =  1.1835
      Cm = -0.1140     CD =  0.02462   =>   CDf =  0.00850    CDp =  0.01612

 Side 1  free  transition at x/c =  0.4690   64
 Side 2 forced transition at x/c =  1.0000   69

   3   rms: 0.6695E-03   max: 0.5933E-02   D at   65  1
       a =  5.500      CL =  1.1836
      Cm = -0.1140     CD =  0.02464   =>   CDf =  0.00868    CDp =  0.01596

 Side 1  free  transition at x/c =  0.4690   64
 Side 2 forced transition at x/c =  1.0000   69

   4   rms: 0.3455E-03   max: -.4691E-02   D at    4  1
       a =  5.500      CL =  1.1835
      Cm = -0.1140     CD =  0.02463   =>   CDf =  0.00868    CDp =  0.01596

 Side 1  free  transition at x/c =  0.4690   64
 Side 2 forced transition at x/c =  1.0000   69

   5   rms: 0.1185E-04   max: 0.1594E-03   D at    4  1
       a =  5.500      CL =  1.1835
      Cm = -0.1140     CD =  0.02463   =>   CDf =  0.00868    CDp =  0.01596
 plradd ia,ip,cpol           20           0  0.14316231    

 Point added to stored polar  1
 Point written to save file  goe625_Re150k.base.pol                          
 Dump file unspecified or not available
 Calculating wake trajectory ...
 Calculating source influence matrix ...

 Solving BL system ...

 Side 1  free  transition at x/c =  0.4690   64
 Side 2 forced transition at x/c =  1.0000   69

   1   rms: 0.6561E-01   max: -.1223E+00   C at   69  2
       a =  6.000      CL =  1.2323
      Cm = -0.1134     CD =  0.02543   =>   CDf =  0.00869    CDp =  0.01674

 Side 1  free  transition at x/c =  0.4621   64
 Side 2 forced transition at x/c =  1.0000   69

   2   rms: 0.1412E-01   max: -.8414E-01   D at   64  1
       a =  6.000      CL =  1.2422
      Cm = -0.1151     CD =  0.02540   =>   CDf =  0.00883    CDp =  0.01657

 Side 1  free  transition at x/c =  0.4623   64
 Side 2 forced transition at x/c =  1.0000   69

   3   rms: 0.2438E-03   max: -.2063E-02   C at   69  2
       a =  6.000      CL =  1.2421
      Cm = -0.1151     CD =  0.02542   =>   CDf =  0.00886    CDp =  0.01656

 Side 1  free  transition at x/c =  0.4623   64
 Side 2 forced transition at x/c =  1.0000   69

   4   rms: 0.6758E-05   max: -.2559E-04   C at   69  2
       a =  6.000      CL =  1.2421
      Cm = -0.1151     CD =  0.02542   =>   CDf =  0.00886    CDp =  0.01656
 plradd ia,ip,cpol           21           0  0.14316231    

 Point added to stored polar  1
 Point written to save file  goe625_Re150k.base.pol                          
 Dump file unspecified or not available
 Calculating wake trajectory ...
 Calculating source influence matrix ...

 Solving BL system ...

 Side 1  free  transition at x/c =  0.4623   64
 Side 2 forced transition at x/c =  1.0000   69

   1   rms: 0.7782E-01   max: 0.6970E-01   T at   71  2
       a =  6.500      CL =  1.3109
      Cm = -0.1181     CD =  0.02652   =>   CDf =  0.00870    CDp =  0.01782

 Side 1  free  transition at x/c =  0.4565   64
 Side 2 forced transition at x/c =  1.0000   68

   2   rms: 0.3310E-01   max: 0.2104E+00   D at   65  1
       a =  6.500      CL =  1.2740
      Cm = -0.1118     CD =  0.02678   =>   CDf =  0.00880    CDp =  0.01798

 Side 1  free  transition at x/c =  0.4549   64
 Side 2 forced transition at x/c =  1.0000   68

   3   rms: 0.4976E-02   max: 0.4380E-01   D at   65  1
       a =  6.500      CL =  1.2741
      Cm = -0.1118     CD =  0.02669   =>   CDf =  0.00872    CDp =  0.01797

 Side 1  free  transition at x/c =  0.4547   64
 Side 2 forced transition at x/c =  1.0000   68

   4   rms: 0.2942E-03   max: -.1117E-02   C at   68  2
       a =  6.500      CL =  1.2737
      Cm = -0.1118     CD =  0.02669   =>   CDf =  0.00870    CDp =  0.01799

 Side 1  free  transition at x/c =  0.4547   64
 Side 2 forced transition at x/c =  1.0000   68

   5   rms: 0.5132E-05   max: 0.1819E-04   D at   89  1
       a =  6.500      CL =  1.2737
      Cm = -0.1118     CD =  0.02669   =>   CDf =  0.00870    CDp =  0.01799
 plradd ia,ip,cpol           22           0  0.14316231    

 Point added to stored polar  1
 Point written to save file  goe625_Re150k.base.pol                          
 Dump file unspecified or not available
 Calculating wake trajectory ...
 Calculating source influence matrix ...

 Solving BL system ...

 Side 1  free  transition at x/c =  0.4547   64
 Side 2 forced transition at x/c =  1.0000   68

   1   rms: 0.5953E-01   max: 0.2398E+00   T at   64  1
       a =  7.000      CL =  1.3029
      Cm = -0.1080     CD =  0.02789   =>   CDf =  0.00853    CDp =  0.01937

 Side 1  free  transition at x/c =  0.4456   65
 Side 2 forced transition at x/c =  1.0000   67

   2   rms: 0.1866E+00   max: 0.3318E+01   D at    2  1   RLX: 0.383
       a =  7.000      CL =  1.3070
      Cm = -0.1084     CD =  0.02849   =>   CDf =  0.00867    CDp =  0.01983

 Side 1  free  transition at x/c =  0.4459   65
 Side 2 forced transition at x/c =  1.0000   67

   3   rms: 0.1679E-01   max: 0.1108E+00   D at    4  1
       a =  7.000      CL =  1.3163
      Cm = -0.1102     CD =  0.02752   =>   CDf =  0.00868    CDp =  0.01884

 Side 1  free  transition at x/c =  0.4465   65
 Side 2 forced transition at x/c =  1.0000   67

   4   rms: 0.6026E-03   max: 0.5011E-02   D at   66  1
       a =  7.000      CL =  1.3169
      Cm = -0.1103     CD =  0.02753   =>   CDf =  0.00870    CDp =  0.01883

 Side 1  free  transition at x/c =  0.4465   65
 Side 2 forced transition at x/c =  1.0000   67

   5   rms: 0.1578E-04   max: -.5498E-04   C at   67  2
       a =  7.000      CL =  1.3169
      Cm = -0.1103     CD =  0.02753   =>   CDf =  0.00870    CDp =  0.01883
 plradd ia,ip,cpol           23           0  0.13182358    

 Point added to stored polar  1
 Point written to save file  goe625_Re150k.base.pol                          
 Dump file unspecified or not available
 Calculating wake trajectory ...
 Calculating source influence matrix ...

 Solving BL system ...

 Side 1  free  transition at x/c =  0.4465   65
 Side 2 forced transition at x/c =  1.0000   67

   1   rms: 0.7198E-01   max: -.5713E-01   C at   67  2
       a =  7.500      CL =  1.3768
      Cm = -0.1115     CD =  0.02807   =>   CDf =  0.00872    CDp =  0.01935

 Side 1  free  transition at x/c =  0.4402   64
 Side 2 forced transition at x/c =  1.0000   67

   2   rms: 0.9151E-02   max: -.5195E-01   C at   64  1
       a =  7.500      CL =  1.3662
      Cm = -0.1100     CD =  0.02859   =>   CDf =  0.00882    CDp =  0.01977

 Side 1  free  transition at x/c =  0.4391   64
 Side 2 forced transition at x/c =  1.0000   67

   3   rms: 0.3210E-03   max: 0.2047E-02   D at   64  1
       a =  7.500      CL =  1.3664
      Cm = -0.1100     CD =  0.02860   =>   CDf =  0.00876    CDp =  0.01983

 Side 1  free  transition at x/c =  0.4390   64
 Side 2 forced transition at x/c =  1.0000   67

   4   rms: 0.1352E-04   max: -.4940E-04   C at   67  2
       a =  7.500      CL =  1.3664
      Cm = -0.1100     CD =  0.02860   =>   CDf =  0.00876    CDp =  0.01983
 plradd ia,ip,cpol           24           0  0.13182358    

 Point added to stored polar  1
 Point written to save file  goe625_Re150k.base.pol                          
 Dump file unspecified or not available
 Calculating wake trajectory ...
 Calculating source influence matrix ...

 Solving BL system ...

 Side 1  free  transition at x/c =  0.4390   64
 Side 2 forced transition at x/c =  1.0000   67

   1   rms: 0.5935E-01   max: 0.2920E+00   T at   64  1
       a =  8.000      CL =  1.3729
      Cm = -0.1028     CD =  0.03021   =>   CDf =  0.00856    CDp =  0.02165

 Side 1  free  transition at x/c =  0.4296   65
 Side 2 forced transition at x/c =  1.0000   66

   2   rms: 0.2848E-01   max: -.1300E+00   D at   66  1
       a =  8.000      CL =  1.3903
      Cm = -0.1056     CD =  0.02976   =>   CDf =  0.00851    CDp =  0.02125

 Side 1  free  transition at x/c =  0.4303   65
 Side 2 forced transition at x/c =  1.0000   66

   3   rms: 0.1656E-02   max: 0.7263E-02   D at   69  2
       a =  8.000      CL =  1.3886
      Cm = -0.1053     CD =  0.02988   =>   CDf =  0.00857    CDp =  0.02131

 Side 1  free  transition at x/c =  0.4303   65
 Side 2 forced transition at x/c =  1.0000   66

   4   rms: 0.3425E-04   max: -.1103E-03   C at   66  2
       a =  8.000      CL =  1.3885
      Cm = -0.1053     CD =  0.02988   =>   CDf =  0.00857    CDp =  0.02131
 plradd ia,ip,cpol           25           0  0.13182358    

 Point added to stored polar  1
 Point written to save file  goe625_Re150k.base.pol                          
 Dump file unspecified or not available
 Calculating wake trajectory ...
 Calculating source influence matrix ...

 Solving BL system ...

 Side 1  free  transition at x/c =  0.4303   65
 Side 2 forced transition at x/c =  1.0000   66

   1   rms: 0.6197E-01   max: 0.2451E+00   T at   65  1
       a =  8.500      CL =  1.4293
      Cm = -0.1036     CD =  0.03075   =>   CDf =  0.00859    CDp =  0.02217

 Side 1  free  transition at x/c =  0.4223   65
 Side 2 forced transition at x/c =  1.0000   66

   2   rms: 0.3868E-01   max: -.1423E+00   D at   65  1
       a =  8.500      CL =  1.4580
      Cm = -0.1083     CD =  0.03032   =>   CDf =  0.00847    CDp =  0.02185

 Side 1  free  transition at x/c =  0.4227   66
 Side 2 forced transition at x/c =  1.0000   65

   3   rms: 0.1882E-02   max: 0.1260E-01   C at   65  2
       a =  8.500      CL =  1.4559
      Cm = -0.1079     CD =  0.03050   =>   CDf =  0.00878    CDp =  0.02172

 Side 1  free  transition at x/c =  0.4227   66
 Side 2 forced transition at x/c =  1.0000   65

   4   rms: 0.3671E-03   max: -.4593E-02   D at    4  1
       a =  8.500      CL =  1.4558
      Cm = -0.1079     CD =  0.03049   =>   CDf =  0.00878    CDp =  0.02172

 Side 1  free  transition at x/c =  0.4227   66
 Side 2 forced transition at x/c =  1.0000   65

   5   rms: 0.7537E-06   max: -.6448E-05   D at    4  1
       a =  8.500      CL =  1.4558
      Cm = -0.1079     CD =  0.03049   =>   CDf =  0.00878    CDp =  0.02172
 plradd ia,ip,cpol           26           0  0.13182358    

 Point added to stored polar  1
 Point written to save file  goe625_Re150k.base.pol                          
 Dump file unspecified or not available
 Calculating wake trajectory ...
 Calculating source influence matrix ...

 Solving BL system ...

 Side 1  free  transition at x/c =  0.4227   66
 Side 2 forced transition at x/c =  1.0000   65

   1   rms: 0.9617E-01   max: 0.4014E+00   T at   66  1
       a =  9.000      CL =  1.5499
      Cm = -0.1155     CD =  0.03184   =>   CDf =  0.00855    CDp =  0.02329

 MRCHDU: Convergence failed at  97  side 1    Res =  0.5575E+01
 MRCHDU: Convergence failed at  98  side 1    Res =  0.6176E+01
 Side 1  free  transition at x/c =  0.4152   66
 Side 2 forced transition at x/c =  1.0000   64
 idif Ue xi dudx           1  0.11478504      4.52148914E-03   25.386557    
 Uenew xinew           2  3.03508975E-02  1.19554996E-03

   2   rms: 0.8804E-01   max: -.3885E+00   C at   64  2
       a =  9.000      CL =  1.4687
      Cm = -0.1025     CD =  0.03201   =>   CDf =  0.00883    CDp =  0.02318

 Side 1  free  transition at x/c =  0.4128   65
 Side 2 forced transition at x/c =  1.0000   65

   3   rms: 0.1522E-01   max: 0.7380E-01   D at   68  2
       a =  9.000      CL =  1.4548
      Cm = -0.0997     CD =  0.03226   =>   CDf =  0.00851    CDp =  0.02375

 Side 1  free  transition at x/c =  0.4132   65
 Side 2 forced transition at x/c =  1.0000   65

   4   rms: 0.2158E-02   max: 0.9908E-02   D at   67  2
       a =  9.000      CL =  1.4526
      Cm = -0.0994     CD =  0.03226   =>   CDf =  0.00845    CDp =  0.02381

 Side 1  free  transition at x/c =  0.4132   65
 Side 2 forced transition at x/c =  1.0000   65

   5   rms: 0.9877E-04   max: 0.3765E-03   D at   97  1
       a =  9.000      CL =  1.4525
      Cm = -0.0994     CD =  0.03226   =>   CDf =  0.00845    CDp =  0.02381
 plradd ia,ip,cpol           27           0  0.13182358    

 Point added to stored polar  1
 Point written to save file  goe625_Re150k.base.pol                          
 Dump file unspecified or not available
 Calculating wake trajectory ...
 Calculating source influence matrix ...

 Solving BL system ...

 Side 1  free  transition at x/c =  0.4132   65
 Side 2 forced transition at x/c =  1.0000   65

   1   rms: 0.5392E-01   max: 0.2675E+00   T at   65  1
       a =  9.500      CL =  1.4678
      Cm = -0.0936     CD =  0.03344   =>   CDf =  0.00821    CDp =  0.02523

 Side 1  free  transition at x/c =  0.4038   66
 Side 2 forced transition at x/c =  1.0000   64
 idif Ue xi dudx           1  8.31376761E-02  3.33333015E-03   24.941326    
 Uenew xinew           2  1.84340737E-04  7.39097595E-06

   2   rms: 0.1570E+01   max: -.2837E+02   T at    2  1   RLX: 0.018
       a =  9.500      CL =  1.4645
      Cm = -0.0916     CD =  0.03669   =>   CDf =  0.00878    CDp =  0.02791

 Side 1  free  transition at x/c =  0.4039   65
 Side 2 forced transition at x/c =  1.0000   65

   3   rms: 0.3644E+00   max: 0.6436E+01   D at    2  2   RLX: 0.195
       a =  9.500      CL =  1.4742
      Cm = -0.0934     CD =  0.03582   =>   CDf =  0.00824    CDp =  0.02758

 Side 1  free  transition at x/c =  0.4040   66
 Side 2 forced transition at x/c =  1.0000   64

   4   rms: 0.6584E-01   max: 0.8125E+00   T at    2  1
       a =  9.500      CL =  1.5138
      Cm = -0.1008     CD =  0.03232   =>   CDf =  0.00852    CDp =  0.02380

 Side 1  free  transition at x/c =  0.4047   66
 Side 2 forced transition at x/c =  1.0000   64

   5   rms: 0.6694E-02   max: 0.8407E-01   D at    4  1
       a =  9.500      CL =  1.5133
      Cm = -0.1008     CD =  0.03261   =>   CDf =  0.00860    CDp =  0.02401

 Side 1  free  transition at x/c =  0.4047   66
 Side 2 forced transition at x/c =  1.0000   64

   6   rms: 0.9047E-04   max: -.7031E-03   D at    8  1
       a =  9.500      CL =  1.5132
      Cm = -0.1008     CD =  0.03261   =>   CDf =  0.00860    CDp =  0.02401
 plradd ia,ip,cpol           28           0  0.13182358    

 Point added to stored polar  1
 Point written to save file  goe625_Re150k.base.pol                          
 Dump file unspecified or not available
 Calculating wake trajectory ...
 Calculating source influence matrix ...

 Solving BL system ...

 Side 1  free  transition at x/c =  0.4047   66
 Side 2 forced transition at x/c =  1.0000   64

   1   rms: 0.1040E+00   max: 0.3637E+00   T at   66  1
       a = 10.000      CL =  1.6176
      Cm = -0.1094     CD =  0.03267   =>   CDf =  0.00835    CDp =  0.02432

 Side 1  free  transition at x/c =  0.3985   66
 Side 2 forced transition at x/c =  1.0000   63
 idif Ue xi dudx           1  9.99972299E-02  4.26650047E-03   23.437763    
 Uenew xinew           2  1.90103706E-02  8.11100006E-04

   2   rms: 0.1031E+00   max: -.4109E+00   C at   63  2
       a = 10.000      CL =  1.5245
      Cm = -0.0959     CD =  0.03442   =>   CDf =  0.00877    CDp =  0.02566

 Side 1  free  transition at x/c =  0.3942   65
 Side 2 forced transition at x/c =  1.0000   64

   3   rms: 0.2405E-01   max: 0.1183E+00   D at   68  2
       a = 10.000      CL =  1.4980
      Cm = -0.0908     CD =  0.03481   =>   CDf =  0.00837    CDp =  0.02644

 Side 1  free  transition at x/c =  0.3950   65
 Side 2 forced transition at x/c =  1.0000   64

   4   rms: 0.1654E-02   max: 0.1980E-01   D at   69  2
       a = 10.000      CL =  1.4966
      Cm = -0.0907     CD =  0.03483   =>   CDf =  0.00831    CDp =  0.02651

 Side 1  free  transition at x/c =  0.3950   65
 Side 2 forced transition at x/c =  1.0000   64

   5   rms: 0.3615E-04   max: 0.3337E-03   D at   70  2
       a = 10.000      CL =  1.4965
      Cm = -0.0907     CD =  0.03482   =>   CDf =  0.00831    CDp =  0.02651
 plradd ia,ip,cpol           29           0  0.12110564    

 Point added to stored polar  1
 Point written to save file  goe625_Re150k.base.pol                          
 Dump file unspecified or not available

.OPERva   c>  
 Solving BL system ...

 Side 1  free  transition at x/c =  0.3950   65
 Side 2 forced transition at x/c =  1.0000   64

   1   rms: 0.1218E-05   max: 0.4691E-05   C at   64  2
       a = 10.000      CL =  1.4965
      Cm = -0.0907     CD =  0.03482   =>   CDf =  0.00831    CDp =  0.02651
 plradd ia,ip,cpol           30         182  0.12110564    

 Point added to stored polar  1
 Point written to save file  goe625_Re150k.base.pol                          
 Dump file unspecified or not available
 Calculating wake trajectory ...
 Calculating source influence matrix ...

 Solving BL system ...

 Side 1  free  transition at x/c =  0.3950   65
 Side 2 forced transition at x/c =  1.0000   64

   1   rms: 0.2756E-01   max: 0.1400E+00   T at   65  1   RLX: 0.942
       a = 10.250      CL =  1.4957
      Cm = -0.0872     CD =  0.03580   =>   CDf =  0.00832    CDp =  0.02748

 Side 1  free  transition at x/c =  0.3903   65
 Side 2 forced transition at x/c =  1.0000   64

   2   rms: 0.1480E-01   max: -.5070E-01   D at   95  1
       a = 10.250      CL =  1.5075
      Cm = -0.0887     CD =  0.03537   =>   CDf =  0.00826    CDp =  0.02710

 Side 1  free  transition at x/c =  0.3905   65
 Side 2 forced transition at x/c =  1.0000   64

   3   rms: 0.6355E-03   max: -.2506E-02   D at   95  1
       a = 10.250      CL =  1.5082
      Cm = -0.0888     CD =  0.03540   =>   CDf =  0.00828    CDp =  0.02712

 Side 1  free  transition at x/c =  0.3904   65
 Side 2 forced transition at x/c =  1.0000   64

   4   rms: 0.2827E-05   max: 0.1669E-04   D at   71  2
       a = 10.250      CL =  1.5082
      Cm = -0.0888     CD =  0.03540   =>   CDf =  0.00828    CDp =  0.02712
 plradd ia,ip,cpol           31           0  0.12110564    

 Point added to stored polar  1
 Point written to save file  goe625_Re150k.base.pol                          
 Dump file unspecified or not available
 Calculating wake trajectory ...
 Calculating source influence matrix ...

 Solving BL system ...

 Side 1  free  transition at x/c =  0.3904   65
 Side 2 forced transition at x/c =  1.0000   64

   1   rms: 0.3295E-01   max: 0.1324E+00   T at   65  1   RLX: 0.952
       a = 10.500      CL =  1.5311
      Cm = -0.0885     CD =  0.03559   =>   CDf =  0.00800    CDp =  0.02759

 Side 1  free  transition at x/c =  0.3866   66
 Side 2 forced transition at x/c =  1.0000   63

   2   rms: 0.1969E-01   max: -.7412E-01   D at   94  1
       a = 10.500      CL =  1.5483
      Cm = -0.0907     CD =  0.03513   =>   CDf =  0.00836    CDp =  0.02677

 Side 1  free  transition at x/c =  0.3866   66
 Side 2 forced transition at x/c =  1.0000   63

   3   rms: 0.7152E-03   max: 0.3761E-02   D at   94  1
       a = 10.500      CL =  1.5490
      Cm = -0.0908     CD =  0.03519   =>   CDf =  0.00840    CDp =  0.02679

 Side 1  free  transition at x/c =  0.3866   66
 Side 2 forced transition at x/c =  1.0000   63

   4   rms: 0.5091E-05   max: -.2636E-04   D at   74  2
       a = 10.500      CL =  1.5490
      Cm = -0.0908     CD =  0.03519   =>   CDf =  0.00840    CDp =  0.02679
 plradd ia,ip,cpol           32           0  0.12110564    

 Point added to stored polar  1
 Point written to save file  goe625_Re150k.base.pol                          
 Dump file unspecified or not available
 Calculating wake trajectory ...
 Calculating source influence matrix ...

 Solving BL system ...

 Side 1  free  transition at x/c =  0.3866   66
 Side 2 forced transition at x/c =  1.0000   63

   1   rms: 0.5480E-01   max: 0.5163E-01   C at   63  2
       a = 10.750      CL =  1.6037
      Cm = -0.0950     CD =  0.03469   =>   CDf =  0.00841    CDp =  0.02628

 Side 1  free  transition at x/c =  0.3831   65
 Side 2 forced transition at x/c =  1.0000   63

   2   rms: 0.4089E-01   max: 0.1489E+00   D at   97  1
       a = 10.750      CL =  1.5606
      Cm = -0.0889     CD =  0.03598   =>   CDf =  0.00847    CDp =  0.02751

 Side 1  free  transition at x/c =  0.3822   65
 Side 2 forced transition at x/c =  1.0000   63

   3   rms: 0.6524E-02   max: 0.4670E-01   D at   96  1
       a = 10.750      CL =  1.5551
      Cm = -0.0883     CD =  0.03620   =>   CDf =  0.00836    CDp =  0.02783

 Side 1  free  transition at x/c =  0.3820   65
 Side 2 forced transition at x/c =  1.0000   63

   4   rms: 0.3535E-03   max: 0.3066E-02   D at   70  2
       a = 10.750      CL =  1.5547
      Cm = -0.0883     CD =  0.03618   =>   CDf =  0.00834    CDp =  0.02784

 Side 1  free  transition at x/c =  0.3820   65
 Side 2 forced transition at x/c =  1.0000   63

   5   rms: 0.8712E-05   max: 0.3950E-04   D at   94  1
       a = 10.750      CL =  1.5547
      Cm = -0.0883     CD =  0.03618   =>   CDf =  0.00834    CDp =  0.02784
 plradd ia,ip,cpol           33           0  0.12110564    

 Point added to stored polar  1
 Point written to save file  goe625_Re150k.base.pol                          
 Dump file unspecified or not available
 Calculating wake trajectory ...
 Calculating source influence matrix ...

 Solving BL system ...

 Side 1  free  transition at x/c =  0.3820   65
 Side 2 forced transition at x/c =  1.0000   63

   1   rms: 0.6067E-01   max: 0.2313E+00   D at   88  1   RLX: 0.811
       a = 11.000      CL =  1.5127
      Cm = -0.0800     CD =  0.03846   =>   CDf =  0.00835    CDp =  0.03011

 Side 1  free  transition at x/c =  0.3772   65
 Side 2 forced transition at x/c =  1.0000   63

   2   rms: 0.1442E-01   max: -.5170E-01   D at   76  2
       a = 11.000      CL =  1.5244
      Cm = -0.0814     CD =  0.03828   =>   CDf =  0.00810    CDp =  0.03018

 Side 1  free  transition at x/c =  0.3763   65
 Side 2 forced transition at x/c =  1.0000   63

   3   rms: 0.8604E-03   max: -.3736E-02   D at   76  2
       a = 11.000      CL =  1.5251
      Cm = -0.0815     CD =  0.03830   =>   CDf =  0.00811    CDp =  0.03019

 Side 1  free  transition at x/c =  0.3763   65
 Side 2 forced transition at x/c =  1.0000   63

   4   rms: 0.4401E-04   max: -.1302E-03   D at   87  1
       a = 11.000      CL =  1.5252
      Cm = -0.0815     CD =  0.03830   =>   CDf =  0.00811    CDp =  0.03019
 plradd ia,ip,cpol           34           0  0.12110564    

 Point added to stored polar  1
 Point written to save file  goe625_Re150k.base.pol                          
 Dump file unspecified or not available
 Calculating wake trajectory ...
 Calculating source influence matrix ...

 Solving BL system ...

 Side 1  free  transition at x/c =  0.3763   65
 Side 2 forced transition at x/c =  1.0000   63

   1   rms: 0.2876E-01   max: 0.1472E+00   T at   65  1   RLX: 0.794
       a = 11.250      CL =  1.5216
      Cm = -0.0788     CD =  0.03943   =>   CDf =  0.00812    CDp =  0.03131

 Side 1  free  transition at x/c =  0.3721   65
 Side 2 forced transition at x/c =  1.0000   63

   2   rms: 0.1738E-01   max: -.5344E-01   D at   66  1
       a = 11.250      CL =  1.5364
      Cm = -0.0798     CD =  0.03885   =>   CDf =  0.00807    CDp =  0.03078

 Side 1  free  transition at x/c =  0.3717   65
 Side 2 forced transition at x/c =  1.0000   63

   3   rms: 0.1555E-02   max: -.6070E-02   D at   92  1
       a = 11.250      CL =  1.5381
      Cm = -0.0800     CD =  0.03884   =>   CDf =  0.00810    CDp =  0.03075

 Side 1  free  transition at x/c =  0.3717   65
 Side 2 forced transition at x/c =  1.0000   63

   4   rms: 0.4255E-04   max: -.1314E-03   D at   92  1
       a = 11.250      CL =  1.5381
      Cm = -0.0800     CD =  0.03885   =>   CDf =  0.00810    CDp =  0.03075
 plradd ia,ip,cpol           35           0  0.12110564    

 Point added to stored polar  1
 Point written to save file  goe625_Re150k.base.pol                          
 Dump file unspecified or not available
 Calculating wake trajectory ...
 Calculating source influence matrix ...

 Solving BL system ...

 Side 1  free  transition at x/c =  0.3717   65
 Side 2 forced transition at x/c =  1.0000   63

   1   rms: 0.3780E-01   max: 0.1327E+00   T at   65  1   RLX: 0.817
       a = 11.500      CL =  1.5636
      Cm = -0.0805     CD =  0.03862   =>   CDf =  0.00780    CDp =  0.03082

 Side 1  free  transition at x/c =  0.3684   66
 Side 2 forced transition at x/c =  1.0000   62

   2   rms: 0.2351E-01   max: -.6968E-01   D at   92  1
       a = 11.500      CL =  1.5846
      Cm = -0.0824     CD =  0.03796   =>   CDf =  0.00819    CDp =  0.02976

 Side 1  free  transition at x/c =  0.3680   66
 Side 2 forced transition at x/c =  1.0000   62

   3   rms: 0.1258E-02   max: -.4790E-02   D at   94  1
       a = 11.500      CL =  1.5859
      Cm = -0.0826     CD =  0.03802   =>   CDf =  0.00826    CDp =  0.02976

 Side 1  free  transition at x/c =  0.3679   66
 Side 2 forced transition at x/c =  1.0000   62

   4   rms: 0.3782E-04   max: -.1358E-03   D at   94  1
       a = 11.500      CL =  1.5860
      Cm = -0.0826     CD =  0.03802   =>   CDf =  0.00826    CDp =  0.02976
 plradd ia,ip,cpol           36           0  0.12110564    

 Point added to stored polar  1
 Point written to save file  goe625_Re150k.base.pol                          
 Dump file unspecified or not available
 Calculating wake trajectory ...
 Calculating source influence matrix ...

 Solving BL system ...

 Side 1  free  transition at x/c =  0.3679   66
 Side 2 forced transition at x/c =  1.0000   62

   1   rms: 0.6262E-01   max: -.6968E-01   D at   72  2   RLX: 0.888
       a = 11.750      CL =  1.6413
      Cm = -0.0865     CD =  0.03691   =>   CDf =  0.00827    CDp =  0.02864

 Side 1  free  transition at x/c =  0.3650   65
 Side 2 forced transition at x/c =  1.0000   62

   2   rms: 0.7561E-01   max: 0.2778E+00   D at   95  1
       a = 11.750      CL =  1.5683
      Cm = -0.0774     CD =  0.03995   =>   CDf =  0.00831    CDp =  0.03164

 Side 1  free  transition at x/c =  0.3632   65
 Side 2 forced transition at x/c =  1.0000   62

   3   rms: 0.1026E-01   max: 0.7654E-01   D at   93  1
       a = 11.750      CL =  1.5619
      Cm = -0.0772     CD =  0.04044   =>   CDf =  0.00811    CDp =  0.03233

 Side 1  free  transition at x/c =  0.3627   65
 Side 2 forced transition at x/c =  1.0000   62

   4   rms: 0.1020E-02   max: 0.8544E-02   D at   72  2
       a = 11.750      CL =  1.5609
      Cm = -0.0771     CD =  0.04042   =>   CDf =  0.00806    CDp =  0.03236

 Side 1  free  transition at x/c =  0.3627   65
 Side 2 forced transition at x/c =  1.0000   62

   5   rms: 0.3621E-04   max: 0.2185E-03   D at   72  2
       a = 11.750      CL =  1.5609
      Cm = -0.0770     CD =  0.04042   =>   CDf =  0.00806    CDp =  0.03236
 plradd ia,ip,cpol           37           0  0.12110564    

 Point added to stored polar  1
 Point written to save file  goe625_Re150k.base.pol                          
 Dump file unspecified or not available
 Calculating wake trajectory ...
 Calculating source influence matrix ...

 Solving BL system ...

 Side 1  free  transition at x/c =  0.3627   65
 Side 2 forced transition at x/c =  1.0000   62

   1   rms: 0.6684E-01   max: 0.2632E+00   D at   86  1   RLX: 0.679
       a = 12.000      CL =  1.5239
      Cm = -0.0716     CD =  0.04334   =>   CDf =  0.00807    CDp =  0.03527

 Side 1  free  transition at x/c =  0.3582   65
 Side 2 forced transition at x/c =  1.0000   62

   2   rms: 0.1535E-01   max: -.5064E-01   D at   66  1
       a = 12.000      CL =  1.5359
      Cm = -0.0722     CD =  0.04297   =>   CDf =  0.00788    CDp =  0.03510

 Side 1  free  transition at x/c =  0.3569   65
 Side 2 forced transition at x/c =  1.0000   62

   3   rms: 0.2188E-02   max: -.7919E-02   D at   90  1
       a = 12.000      CL =  1.5378
      Cm = -0.0724     CD =  0.04291   =>   CDf =  0.00788    CDp =  0.03503

 Side 1  free  transition at x/c =  0.3570   65
 Side 2 forced transition at x/c =  1.0000   62

   4   rms: 0.1451E-03   max: -.4841E-03   D at   90  1
       a = 12.000      CL =  1.5380
      Cm = -0.0724     CD =  0.04292   =>   CDf =  0.00788    CDp =  0.03503

 Side 1  free  transition at x/c =  0.3570   65
 Side 2 forced transition at x/c =  1.0000   62

   5   rms: 0.6790E-05   max: 0.2932E-04   C at   62  2
       a = 12.000      CL =  1.5380
      Cm = -0.0724     CD =  0.04292   =>   CDf =  0.00788    CDp =  0.03503
 plradd ia,ip,cpol           38           0  0.12110564    

 Point added to stored polar  1
 Point written to save file  goe625_Re150k.base.pol                          
 Dump file unspecified or not available
 Calculating wake trajectory ...
 Calculating source influence matrix ...

 Solving BL system ...

 Side 1  free  transition at x/c =  0.3570   65
 Side 2 forced transition at x/c =  1.0000   62

   1   rms: 0.2681E-01   max: 0.1364E+00   T at   65  1   RLX: 0.686
       a = 12.250      CL =  1.5421
      Cm = -0.0712     CD =  0.04367   =>   CDf =  0.00789    CDp =  0.03578

 Side 1  free  transition at x/c =  0.3537   65
 Side 2 forced transition at x/c =  1.0000   62

   2   rms: 0.2266E-01   max: -.4348E-01   D at   76  2
       a = 12.250      CL =  1.5630
      Cm = -0.0723     CD =  0.04272   =>   CDf =  0.00789    CDp =  0.03483

 Side 1  free  transition at x/c =  0.3530   65
 Side 2 forced transition at x/c =  1.0000   62

   3   rms: 0.1924E-02   max: -.7053E-02   D at   90  1
       a = 12.250      CL =  1.5649
      Cm = -0.0725     CD =  0.04273   =>   CDf =  0.00794    CDp =  0.03479

 Side 1  free  transition at x/c =  0.3530   65
 Side 2 forced transition at x/c =  1.0000   62

   4   rms: 0.6441E-04   max: -.2152E-03   D at   73  2
       a = 12.250      CL =  1.5650
      Cm = -0.0725     CD =  0.04273   =>   CDf =  0.00794    CDp =  0.03479
 plradd ia,ip,cpol           39           0  0.12110564    

 Point added to stored polar  1
 Point written to save file  goe625_Re150k.base.pol                          
 Dump file unspecified or not available
 Calculating wake trajectory ...
 Calculating source influence matrix ...

 Solving BL system ...

 Side 1  free  transition at x/c =  0.3530   65
 Side 2 forced transition at x/c =  1.0000   62

   1   rms: 0.4615E-01   max: -.2944E-01   D at   76  2   RLX: 0.717
       a = 12.500      CL =  1.5947
      Cm = -0.0735     CD =  0.04197   =>   CDf =  0.00762    CDp =  0.03435

 Side 1  free  transition at x/c =  0.3506   66
 Side 2 forced transition at x/c =  1.0000   61

   2   rms: 0.2444E-01   max: 0.1414E+00   D at    2  1
       a = 12.500      CL =  1.6171
      Cm = -0.0750     CD =  0.04132   =>   CDf =  0.00804    CDp =  0.03328

 Side 1  free  transition at x/c =  0.3498   66
 Side 2 forced transition at x/c =  1.0000   61

   3   rms: 0.2110E-02   max: -.8984E-02   D at   87  1
       a = 12.500      CL =  1.6191
      Cm = -0.0752     CD =  0.04137   =>   CDf =  0.00812    CDp =  0.03326

 Side 1  free  transition at x/c =  0.3497   66
 Side 2 forced transition at x/c =  1.0000   61

   4   rms: 0.4631E-04   max: -.2403E-03   D at   87  1
       a = 12.500      CL =  1.6192
      Cm = -0.0752     CD =  0.04138   =>   CDf =  0.00813    CDp =  0.03325
 plradd ia,ip,cpol           40           0  0.12110564    

 Point added to stored polar  1
 Point written to save file  goe625_Re150k.base.pol                          
 Dump file unspecified or not available
 Calculating wake trajectory ...
 Calculating source influence matrix ...

 Solving BL system ...

 Side 1  free  transition at x/c =  0.3497   66
 Side 2 forced transition at x/c =  1.0000   61

   1   rms: 0.6420E-01   max: -.7239E-01   D at   73  2   RLX: 0.768
       a = 12.750      CL =  1.6685
      Cm = -0.0783     CD =  0.04019   =>   CDf =  0.00814    CDp =  0.03205

 Side 1  free  transition at x/c =  0.3477   65
 Side 2 forced transition at x/c =  1.0000   61

   2   rms: 0.1195E+00   max: 0.4427E+00   D at   93  1
       a = 12.750      CL =  1.5580
      Cm = -0.0668     CD =  0.04609   =>   CDf =  0.00812    CDp =  0.03798

 Side 1  free  transition at x/c =  0.3444   65
 Side 2 forced transition at x/c =  1.0000   61

   3   rms: 0.1954E-01   max: 0.1465E+00   D at   90  1
       a = 12.750      CL =  1.5458
      Cm = -0.0669     CD =  0.04738   =>   CDf =  0.00780    CDp =  0.03958

 Side 1  free  transition at x/c =  0.3433   65
 Side 2 forced transition at x/c =  1.0000   61

   4   rms: 0.2137E-02   max: 0.2064E-01   D at   73  2
       a = 12.750      CL =  1.5440
      Cm = -0.0667     CD =  0.04736   =>   CDf =  0.00772    CDp =  0.03964

 Side 1  free  transition at x/c =  0.3433   65
 Side 2 forced transition at x/c =  1.0000   61

   5   rms: 0.1365E-03   max: 0.7921E-03   D at   73  2
       a = 12.750      CL =  1.5438
      Cm = -0.0667     CD =  0.04735   =>   CDf =  0.00771    CDp =  0.03964

 Side 1  free  transition at x/c =  0.3433   65
 Side 2 forced transition at x/c =  1.0000   61

   6   rms: 0.1053E-04   max: 0.5173E-04   D at    4  1
       a = 12.750      CL =  1.5438
      Cm = -0.0667     CD =  0.04735   =>   CDf =  0.00771    CDp =  0.03964
 plradd ia,ip,cpol           41           0  0.12110564    

 Point added to stored polar  1
 Point written to save file  goe625_Re150k.base.pol                          
 Dump file unspecified or not available
 Calculating wake trajectory ...
 Calculating source influence matrix ...

 Solving BL system ...

 Side 1  free  transition at x/c =  0.3433   65
 Side 2 forced transition at x/c =  1.0000   61
 idif Ue xi dudx           1  7.62726516E-02  3.85284424E-03   19.796453    
 Uenew xinew           2  1.63070555E-03  8.23736191E-05

   1   rms: 0.5441E-01   max: 0.2299E+00   D at   84  1   RLX: 0.582
       a = 13.000      CL =  1.5213
      Cm = -0.0642     CD =  0.05021   =>   CDf =  0.00807    CDp =  0.04215

 Side 1  free  transition at x/c =  0.3398   64
 Side 2 forced transition at x/c =  1.0000   62

   2   rms: 0.2506E-01   max: 0.3489E+00   T at    2  2
       a = 13.000      CL =  1.5329
      Cm = -0.0643     CD =  0.04984   =>   CDf =  0.00728    CDp =  0.04257

 Side 1  free  transition at x/c =  0.3385   65
 Side 2 forced transition at x/c =  1.0000   61

   3   rms: 0.4339E-02   max: 0.3343E-01   D at    3  2
       a = 13.000      CL =  1.5362
      Cm = -0.0645     CD =  0.04962   =>   CDf =  0.00762    CDp =  0.04200

 Side 1  free  transition at x/c =  0.3386   65
 Side 2 forced transition at x/c =  1.0000   61

   4   rms: 0.6592E-03   max: -.7343E-02   D at    4  1
       a = 13.000      CL =  1.5365
      Cm = -0.0645     CD =  0.04963   =>   CDf =  0.00762    CDp =  0.04200

 Side 1  free  transition at x/c =  0.3386   65
 Side 2 forced transition at x/c =  1.0000   61

   5   rms: 0.2165E-04   max: -.7103E-04   D at   74  2
       a = 13.000      CL =  1.5365
      Cm = -0.0645     CD =  0.04963   =>   CDf =  0.00762    CDp =  0.04200
 plradd ia,ip,cpol           42           0  0.12110564    

[...]
 idif Ue xi dudx           2  0.20036480      1.23506784E-02   16.222979    
 Uenew xinew           3  0.12933929      7.97259808E-03

  13   rms: 0.3491E+01   max: 0.1400E+02   D at   87  1   RLX: 0.107
       a = 16.000      CL =  1.3591
      Cm = -0.0569     CD =  0.10365   =>   CDf =  0.00788    CDp =  0.09578

 MRCHDU: Convergence failed at  71  side 1    Res =  0.1877E+01
 MRCHDU: Convergence failed at  72  side 1    Res =  0.2334E+01
 MRCHDU: Convergence failed at  73  side 1    Res =  0.5751E+01
 MRCHDU: Convergence failed at  74  side 1    Res =  0.1166E+02
 MRCHDU: Convergence failed at  75  side 1    Res =  0.3425E+01
 MRCHDU: Convergence failed at  76  side 1    Res =  0.2254E+01
 MRCHDU: Convergence failed at  77  side 1    Res =  0.2337E+01
 MRCHDU: Convergence failed at  78  side 1    Res =  0.3331E+01
 MRCHDU: Convergence failed at  79  side 1    Res =  0.7424E+01
 MRCHDU: Convergence failed at  80  side 1    Res =  0.1461E+02
 MRCHDU: Convergence failed at  81  side 1    Res =  0.4202E+01
 MRCHDU: Convergence failed at  82  side 1    Res =  0.2729E+01
 MRCHDU: Convergence failed at  83  side 1    Res =  0.1923E+01
 MRCHDU: Convergence failed at  84  side 1    Res =  0.2142E+01
 MRCHDU: Convergence failed at  85  side 1    Res =  0.2665E+01
 Side 1  free  transition at x/c =  0.2927   63
 Side 2 forced transition at x/c =  1.0000   60

  14   rms: 0.3074E+00   max: 0.1627E+01   D at   85  1   RLX: 0.922
       a = 16.000      CL =  1.6449
      Cm = -0.0710     CD =  0.06902   =>   CDf =  0.00646    CDp =  0.06256

 Side 1  free  transition at x/c =  0.2948   64
 Side 2 forced transition at x/c =  1.0000   59

  15   rms: 0.1666E+00   max: 0.1135E+01   D at   80  1
       a = 16.000      CL =  1.4937
      Cm = -0.0543     CD =  0.08754   =>   CDf =  0.00681    CDp =  0.08073

 MRCHDU: Convergence failed at  78  side 1    Res =  0.2495E+01
 MRCHDU: Convergence failed at  79  side 1    Res =  0.2960E+01
 MRCHDU: Convergence failed at  80  side 1    Res =  0.2110E+01
 Side 1  free  transition at x/c =  0.2909   64
 Side 2 forced transition at x/c =  1.0000   59
 idif Ue xi dudx           2  0.15925564      9.17887688E-03   17.350231    
 Uenew xinew           3  8.71068239E-02  5.02049923E-03

  16   rms: 0.3135E+00   max: 0.1693E+01   D at   80  1   RLX: 0.886
       a = 16.000      CL =  1.3029
      Cm = -0.0624     CD =  0.12012   =>   CDf =  0.00734    CDp =  0.11277

 Side 1  free  transition at x/c =  0.2833   61
 Side 2 forced transition at x/c =  1.0000   61

  17   rms: 0.9569E-01   max: -.3337E+00   D at   67  1
       a = 16.000      CL =  1.3875
      Cm = -0.0533     CD =  0.09439   =>   CDf =  0.00620    CDp =  0.08819

 Side 1  free  transition at x/c =  0.2919   63
 Side 2 forced transition at x/c =  1.0000   60
 idif Ue xi dudx           1  0.12741521      6.86776638E-03   18.552641    
 Uenew xinew           2  5.40062115E-02  2.91097164E-03

  18   rms: 0.2580E+00   max: 0.1106E+01   D at   74  1
       a = 16.000      CL =  1.2295
      Cm = -0.0588     CD =  0.13087   =>   CDf =  0.00700    CDp =  0.12387

 Side 1  free  transition at x/c =  0.2825   61
 Side 2 forced transition at x/c =  1.0000   61

  19   rms: 0.1500E+00   max: -.3929E+00   D at   67  1
       a = 16.000      CL =  1.3891
      Cm = -0.0530     CD =  0.09274   =>   CDf =  0.00623    CDp =  0.08651

 Side 1  free  transition at x/c =  0.2937   63
 Side 2 forced transition at x/c =  1.0000   60
 idif Ue xi dudx           1  0.13085523      7.07292557E-03   18.500864    
 Uenew xinew           2  5.76511137E-02  3.11613083E-03

  20   rms: 0.2800E+00   max: 0.1214E+01   D at   74  1
       a = 16.000      CL =  1.2223
      Cm = -0.0588     CD =  0.13282   =>   CDf =  0.00702    CDp =  0.12580

 MRCHDU: Convergence failed at  63  side 1    Res =  0.1572E+01
 MRCHDU: Convergence failed at  64  side 1    Res =  0.1675E+02
 MRCHDU: Convergence failed at  65  side 1    Res =  0.2651E+02
 MRCHDU: Convergence failed at  66  side 1    Res =  0.6733E+02
 MRCHDU: Convergence failed at  67  side 1    Res =  0.2483E+02
 MRCHDU: Convergence failed at  68  side 1    Res =  0.9317E+01
 MRCHDU: Convergence failed at  69  side 1    Res =  0.5429E+01
 MRCHDU: Convergence failed at  70  side 1    Res =  0.3108E+02
 MRCHDU: Convergence failed at  71  side 1    Res =  0.5135E+02
 MRCHDU: Convergence failed at  72  side 1    Res =  0.4043E+02
 MRCHDU: Convergence failed at  73  side 1    Res =  0.8453E+01
 MRCHDU: Convergence failed at  74  side 1    Res =  0.2011E+02
 MRCHDU: Convergence failed at  75  side 1    Res =  0.2049E+02
 MRCHDU: Convergence failed at  76  side 1    Res =  0.6379E+02
 MRCHDU: Convergence failed at  77  side 1    Res =  0.3513E+02
 MRCHDU: Convergence failed at  78  side 1    Res =  0.1307E+02
 MRCHDU: Convergence failed at  79  side 1    Res =  0.7322E+01
 MRCHDU: Convergence failed at  80  side 1    Res =  0.2953E+02
 MRCHDU: Convergence failed at  81  side 1    Res =  0.3970E+02
 MRCHDU: Convergence failed at  82  side 1    Res =  0.5258E+02
 MRCHDU: Convergence failed at  83  side 1    Res =  0.7241E+02
 MRCHDU: Convergence failed at  84  side 1    Res =  0.2116E+03
 MRCHDU: Convergence failed at  85  side 1    Res =  0.1230E+03
 MRCHDU: Convergence failed at  86  side 1    Res =  0.3987E+02
 MRCHDU: Convergence failed at  87  side 1    Res =  0.2159E+02
 MRCHDU: Convergence failed at  88  side 1    Res =  0.1464E+02
 MRCHDU: Convergence failed at  89  side 1    Res =  0.1763E+02
 MRCHDU: Convergence failed at  90  side 1    Res =  0.2478E+02
 MRCHDU: Convergence failed at  91  side 1    Res =  0.3567E+02
 MRCHDU: Convergence failed at  92  side 1    Res =  0.5169E+02
 MRCHDU: Convergence failed at  93  side 1    Res =  0.8565E+02
 MRCHDU: Convergence failed at  94  side 1    Res =  0.2325E+03
 MRCHDU: Convergence failed at  95  side 1    Res =  0.6080E+03
 MRCHDU: Convergence failed at  96  side 1    Res =  0.1474E+03
 MRCHDU: Convergence failed at  97  side 1    Res =  0.8780E+02
 MRCHDU: Convergence failed at  98  side 1    Res =  0.6137E+02
 MRCHDU: Convergence failed at  99  side 1    Res =  0.4756E+02
 MRCHDU: Convergence failed at 100  side 1    Res =  0.4001E+02
 MRCHDU: Convergence failed at 101  side 1    Res =  0.3202E+02
 MRCHDU: Convergence failed at  76  side 2    Res =  0.2881E+01
 MRCHDU: Convergence failed at  77  side 2    Res =  0.1781E+01
 MRCHDU: Convergence failed at  78  side 2    Res =  0.8605E+00
 Side 1  free  transition at x/c =  0.2830   61
 Side 2 forced transition at x/c =  1.0000   61

  21   rms: 0.1368E+01   max: 0.6939E+01   D at  101  1   RLX: 0.216
       a = 16.000      CL =  1.9163
      Cm = -0.3315     CD =  0.03961   =>   CDf =  0.00602    CDp =  0.03359

 MRCHDU: Convergence failed at  72  side 2    Res =  0.1256E+01
 Side 1  free  transition at x/c =  0.2738   62
 Side 2 forced transition at x/c =  1.0000   60

  22   rms: 0.3005E+00   max: 0.7723E+00   D at   73  2   RLX: 0.738
       a = 16.000      CL =  1.5461
      Cm = -0.0954     CD =  0.08618   =>   CDf =  0.00649    CDp =  0.07969

 Side 1  free  transition at x/c =  0.2829   62
 Side 2 forced transition at x/c =  1.0000   60

  23   rms: 0.1270E+00   max: -.5744E+00   D at   67  1   RLX: 0.871
       a = 16.000      CL =  1.4319
      Cm = -0.0593     CD =  0.09073   =>   CDf =  0.00639    CDp =  0.08434

 Side 1  free  transition at x/c =  0.2944   63
 Side 2 forced transition at x/c =  1.0000   60
 idif Ue xi dudx           1  0.10983547      5.96284866E-03   18.419966    
 Uenew xinew           2  3.69514450E-02  2.00605392E-03

  24   rms: 0.2759E+00   max: 0.1179E+01   D at   75  1
       a = 16.000      CL =  1.2602
      Cm = -0.0573     CD =  0.12594   =>   CDf =  0.00705    CDp =  0.11889

 MRCHDU: Convergence failed at  69  side 1    Res =  0.2317E+01
 MRCHDU: Convergence failed at  70  side 1    Res =  0.1600E+01
 MRCHDU: Convergence failed at  71  side 1    Res =  0.1224E+01
 MRCHDU: Convergence failed at  72  side 1    Res =  0.2963E+01
 MRCHDU: Convergence failed at  73  side 1    Res =  0.1813E+02
 MRCHDU: Convergence failed at  74  side 1    Res =  0.1392E+01
 Side 1  free  transition at x/c =  0.2851   61
 Side 2 forced transition at x/c =  1.0000   61

  25   rms: 0.1469E+00   max: -.1235E+00   D at   81  2
       a = 16.000      CL =  1.3852
      Cm = -0.0528     CD =  0.09358   =>   CDf =  0.00628    CDp =  0.08730

 MRCHDU: Convergence failed at  64  side 1    Res =  0.1777E+02
 MRCHDU: Convergence failed at  65  side 1    Res =  0.2153E+02
 MRCHDU: Convergence failed at  66  side 1    Res =  0.6785E+02
 MRCHDU: Convergence failed at  67  side 1    Res =  0.1652E+02
 MRCHDU: Convergence failed at  68  side 1    Res =  0.2109E+02
 MRCHDU: Convergence failed at  69  side 1    Res =  0.2747E+02
 MRCHDU: Convergence failed at  70  side 1    Res =  0.2988E+02
 MRCHDU: Convergence failed at  71  side 1    Res =  0.4886E+02
 MRCHDU: Convergence failed at  72  side 1    Res =  0.1996E+02
 MRCHDU: Convergence failed at  73  side 1    Res =  0.2865E+03
 MRCHDU: Convergence failed at  74  side 1    Res =  0.2629E+02
 MRCHDU: Convergence failed at  75  side 1    Res =  0.2386E+02
 MRCHDU: Convergence failed at  76  side 1    Res =  0.2514E+03
 MRCHDU: Convergence failed at  77  side 1    Res =  0.1405E+03
 MRCHDU: Convergence failed at  78  side 1    Res =  0.7196E+03
 MRCHDU: Convergence failed at  79  side 1    Res =  0.2408E+02
 MRCHDU: Convergence failed at  80  side 1    Res =  0.4366E+02
 MRCHDU: Convergence failed at  81  side 1    Res =  0.1375E+03
 MRCHDU: Convergence failed at  82  side 1    Res =  0.1080E+03
 MRCHDU: Convergence failed at  83  side 1    Res =  0.5404E+02
 MRCHDU: Convergence failed at  84  side 1    Res =  0.2801E+02
 MRCHDU: Convergence failed at  85  side 1    Res =  0.7073E+02
 MRCHDU: Convergence failed at  86  side 1    Res =  0.2554E+02
 MRCHDU: Convergence failed at  87  side 1    Res =  0.6958E+02
 MRCHDU: Convergence failed at  88  side 1    Res =  0.4488E+02
 MRCHDU: Convergence failed at  89  side 1    Res =  0.6523E+02
 MRCHDU: Convergence failed at  90  side 1    Res =  0.1138E+03
 MRCHDU: Convergence failed at  91  side 1    Res =  0.7105E+03
 MRCHDU: Convergence failed at  92  side 1    Res =  0.8265E+02
 MRCHDU: Convergence failed at  93  side 1    Res =  0.7634E+02
 MRCHDU: Convergence failed at  94  side 1    Res =  0.5167E+02
 MRCHDU: Convergence failed at  95  side 1    Res =  0.4703E+02
 MRCHDU: Convergence failed at  96  side 1    Res =  0.3222E+02
 MRCHDU: Convergence failed at  97  side 1    Res =  0.2805E+02
 MRCHDU: Convergence failed at  98  side 1    Res =  0.2550E+02
 MRCHDU: Convergence failed at  99  side 1    Res =  0.2399E+02
 MRCHDU: Convergence failed at 100  side 1    Res =  0.2296E+02
 MRCHDU: Convergence failed at 101  side 1    Res =  0.2120E+02
 MRCHDU: Convergence failed at 102  side 1    Res =  0.2164E+02
 MRCHDU: Convergence failed at  74  side 2    Res =  0.1008E+03
 MRCHDU: Convergence failed at  75  side 2    Res =  0.2195E+01
 MRCHDU: Convergence failed at  76  side 2    Res =  0.3749E+01
 MRCHDU: Convergence failed at  77  side 2    Res =  0.1327E+01
 Side 1  free  transition at x/c =  0.2983   63
 Side 2 forced transition at x/c =  1.0000   60

  26   rms: 0.1931E+01   max: 0.9618E+01   D at  102  1   RLX: 0.156
       a = 16.000      CL =  2.3116
      Cm = -0.4737     CD =  0.02887   =>   CDf =  0.00622    CDp =  0.02264

 MRCHDU: Convergence failed at  72  side 2    Res =  0.2951E+01
 Side 1  free  transition at x/c =  0.2839   62
 Side 2 forced transition at x/c =  1.0000   60
 idif Ue xi dudx           1  0.10174086      5.51962852E-03   18.432556    
 Uenew xinew           2  2.88070217E-02  1.56283379E-03

  27   rms: 0.2590E+01   max: 0.1789E+02   T at   62  1   RLX: 0.058
       a = 16.000      CL =  1.7302
      Cm = -0.2698     CD =  0.12766   =>   CDf =  0.00677    CDp =  0.12089

 Side 1  free  transition at x/c =  0.2699   60
 Side 2 forced transition at x/c =  1.0000   61

  28   rms: 0.1413E+01   max: -.9075E+01   T at   60  1   RLX: 0.055
       a = 16.000      CL =  1.7002
      Cm = -0.2335     CD =  0.12246   =>   CDf =  0.00599    CDp =  0.11646

 Side 1  free  transition at x/c =  0.2811   62
 Side 2 forced transition at x/c =  1.0000   60
 idif Ue xi dudx           1  0.12200566      6.53362274E-03   18.673508    
 Uenew xinew           2  4.81184162E-02  2.57682800E-03

  29   rms: 0.2978E+00   max: 0.1237E+01   D at   62  1   RLX: 0.553
       a = 16.000      CL =  1.4107
      Cm = -0.1370     CD =  0.12054   =>   CDf =  0.00678    CDp =  0.11376

 Side 1  free  transition at x/c =  0.2753   61
 Side 2 forced transition at x/c =  1.0000   61
 idif Ue xi dudx           1  0.13867794      7.09295273E-03   19.551510    
 Uenew xinew           2  6.49595410E-02  3.32248211E-03

  30   rms: 0.2011E+00   max: 0.8094E+00   T at   61  1
       a = 16.000      CL =  1.1020
      Cm = -0.0647     CD =  0.14190   =>   CDf =  0.00680    CDp =  0.13510

 Side 1  free  transition at x/c =  0.2686   59
 Side 2 forced transition at x/c =  1.0000   62

  31   rms: 0.2589E+00   max: -.8641E+00   T at   59  1   RLX: 0.579
       a = 16.000      CL =  1.2392
      Cm = -0.0624     CD =  0.11452   =>   CDf =  0.00611    CDp =  0.10841

 MRCHDU: Convergence failed at  62  side 1    Res =  0.4329E+02
 MRCHDU: Convergence failed at  63  side 1    Res =  0.8457E+02
 MRCHDU: Convergence failed at  64  side 1    Res =  0.1364E+02
 MRCHDU: Convergence failed at  65  side 1    Res =  0.2077E+02
 MRCHDU: Convergence failed at  66  side 1    Res =  0.4238E+02
 MRCHDU: Convergence failed at  67  side 1    Res =  0.2599E+03
 MRCHDU: Convergence failed at  68  side 1    Res =  0.2873E+02
 MRCHDU: Convergence failed at  69  side 1    Res =  0.2064E+02
 MRCHDU: Convergence failed at  70  side 1    Res =  0.2859E+02
 MRCHDU: Convergence failed at  71  side 1    Res =  0.5055E+02
 MRCHDU: Convergence failed at  72  side 1    Res =  0.7307E+03
 MRCHDU: Convergence failed at  73  side 1    Res =  0.3305E+03
 MRCHDU: Convergence failed at  74  side 1    Res =  0.4249E+03
 MRCHDU: Convergence failed at  75  side 1    Res =  0.4126E+02
 MRCHDU: Convergence failed at  76  side 1    Res =  0.4039E+02
 MRCHDU: Convergence failed at  77  side 1    Res =  0.4695E+02
 MRCHDU: Convergence failed at  78  side 1    Res =  0.9897E+02
 MRCHDU: Convergence failed at  79  side 1    Res =  0.4659E+03
 MRCHDU: Convergence failed at  80  side 1    Res =  0.1291E+03
 MRCHDU: Convergence failed at  81  side 1    Res =  0.4278E+02
 MRCHDU: Convergence failed at  82  side 1    Res =  0.5830E+02
 MRCHDU: Convergence failed at  83  side 1    Res =  0.6142E+02
 MRCHDU: Convergence failed at  84  side 1    Res =  0.2771E+02
 MRCHDU: Convergence failed at  85  side 1    Res =  0.5082E+02
 MRCHDU: Convergence failed at  86  side 1    Res =  0.7284E+02
 MRCHDU: Convergence failed at  87  side 1    Res =  0.5370E+02
 MRCHDU: Convergence failed at  88  side 1    Res =  0.1319E+03
 MRCHDU: Convergence failed at  89  side 1    Res =  0.5397E+02
 MRCHDU: Convergence failed at  90  side 1    Res =  0.2351E+03
 MRCHDU: Convergence failed at  91  side 1    Res =  0.3508E+02
 MRCHDU: Convergence failed at  92  side 1    Res =  0.9514E+02
 MRCHDU: Convergence failed at  93  side 1    Res =  0.7435E+02
 MRCHDU: Convergence failed at  94  side 1    Res =  0.3564E+02
 MRCHDU: Convergence failed at  95  side 1    Res =  0.2566E+02
 MRCHDU: Convergence failed at  96  side 1    Res =  0.2740E+02
 MRCHDU: Convergence failed at  97  side 1    Res =  0.2514E+02
 MRCHDU: Convergence failed at  98  side 1    Res =  0.4176E+02
 MRCHDU: Convergence failed at  99  side 1    Res =  0.2388E+02
 MRCHDU: Convergence failed at 100  side 1    Res =  0.7666E+02
 MRCHDU: Convergence failed at 101  side 1    Res =  0.4089E+02
 MRCHDU: Convergence failed at  75  side 2    Res =  0.1266E+01
 MRCHDU: Convergence failed at  76  side 2    Res =  0.3094E+01
 MRCHDU: Convergence failed at  77  side 2    Res =  0.3953E+01
 MRCHDU: Convergence failed at  78  side 2    Res =  0.1795E+01
 MRCHDU: Convergence failed at  79  side 2    Res =  0.1555E+01
 Side 1  free  transition at x/c =  0.2853   61
 Side 2 forced transition at x/c =  1.0000   61

  32   rms: 0.2218E+01   max: 0.1095E+02   D at  101  1   RLX: 0.137
       a = 16.000      CL =  2.0429
      Cm = -0.4302     CD =  0.03302   =>   CDf =  0.00621    CDp =  0.02681

 MRCHDU: Convergence failed at  73  side 2    Res =  0.3664E+01
 MRCHDU: Convergence failed at  74  side 2    Res =  0.1548E+02
 Side 1  free  transition at x/c =  0.2753   61
 Side 2 forced transition at x/c =  1.0000   61
 idif Ue xi dudx           1  0.11491796      5.79750538E-03   19.821968    
 Uenew xinew           2  4.01798189E-02  2.02703476E-03

  33   rms: 0.3412E+00   max: 0.1778E+01   D at   75  2   RLX: 0.533
       a = 16.000      CL =  1.3610
      Cm = -0.1612     CD =  0.13324   =>   CDf =  0.00678    CDp =  0.12645

 MRCHDU: Convergence failed at  79  side 2    Res =  0.2206E+01
 MRCHDU: Convergence failed at  80  side 2    Res =  0.1352E+01
 Side 1  free  transition at x/c =  0.2695   59
 Side 2 forced transition at x/c =  1.0000   62
 idif Ue xi dudx           1  0.14041239      6.79123402E-03   20.675533    
 Uenew xinew           2  6.59188181E-02  3.18825245E-03

  34   rms: 0.2023E+01   max: 0.1117E+02   T at   59  1   RLX: 0.090
       a = 16.000      CL =  1.2411
      Cm = -0.1778     CD =  0.18670   =>   CDf =  0.00682    CDp =  0.17988

 Side 1  free  transition at x/c =  0.2650   58
 Side 2 forced transition at x/c =  1.0000   63
 idif Ue xi dudx           2  0.17684543      7.64584541E-03   23.129612    
 Uenew xinew           3  9.69233662E-02  4.19044495E-03

  35   rms: 0.2092E+00   max: 0.7960E+00   D at   58  1
       a = 16.000      CL =  0.8711
      Cm = -0.0804     CD =  0.16061   =>   CDf =  0.00688    CDp =  0.15373

 Side 1  free  transition at x/c =  0.2772   57
 Side 2 forced transition at x/c =  1.0000   65

  36   rms: 0.1056E+00   max: 0.9342E+00   T at   57  1
       a = 16.000      CL =  0.9434
      Cm = -0.0782     CD =  0.17572   =>   CDf =  0.00599    CDp =  0.16973

 Side 1  free  transition at x/c =  0.2596   57
 Side 2 forced transition at x/c =  1.0000   64
 idif Ue xi dudx           1  8.63067582E-02  3.54838371E-03   24.322838    
 Uenew xinew           2  5.41048218E-03  2.22444534E-04

  37   rms: 0.7496E-01   max: -.4379E+00   D at   57  1
       a = 16.000      CL =  0.8995
      Cm = -0.0845     CD =  0.19142   =>   CDf =  0.00644    CDp =  0.18497

 Side 1  free  transition at x/c =  0.2666   56
 Side 2 forced transition at x/c =  1.0000   65

  38   rms: 0.2142E-01   max: 0.2714E+00   D at   56  1
       a = 16.000      CL =  0.9023
      Cm = -0.0840     CD =  0.18738   =>   CDf =  0.00615    CDp =  0.18123

 Side 1  free  transition at x/c =  0.2689   56
 Side 2 forced transition at x/c =  1.0000   65

  39   rms: 0.8734E-02   max: 0.6130E-01   D at   56  1
       a = 16.000      CL =  0.9052
      Cm = -0.0831     CD =  0.18342   =>   CDf =  0.00615    CDp =  0.17727

 Side 1  free  transition at x/c =  0.2685   56
 Side 2 forced transition at x/c =  1.0000   65

  40   rms: 0.1593E-02   max: 0.1258E-01   T at   56  1
       a = 16.000      CL =  0.9055
      Cm = -0.0834     CD =  0.18462   =>   CDf =  0.00616    CDp =  0.17846

 Side 1  free  transition at x/c =  0.2683   56
 Side 2 forced transition at x/c =  1.0000   65

  41   rms: 0.9127E-04   max: -.3806E-03   D at   57  1
       a = 16.000      CL =  0.9055
      Cm = -0.0833     CD =  0.18458   =>   CDf =  0.00615    CDp =  0.17842
 plradd ia,ip,cpol           53           0  4.86195572E-02

 Point added to stored polar  1
 Point written to save file  goe625_Re150k.base.pol                          
 Dump file unspecified or not available

.OPERva   c>  
 Polar accumulation disabled

.OPERv   c>  
 XFOIL   c>  
 XFOIL   c>  