  
       XFOIL         Version 6.99
  
 Calculated polar for: GOE 692 AIRFOIL                                 
  
 1 1 Reynolds number fixed          Mach number fixed         
  
 xtrf =   1.000 (top)        1.000 (bottom)  
 Mach =   0.000     Re =     0.600 e 6     Ncrit =   9.000
  
   alpha    CL        CD       CDp       CM     Top_Xtr  Bot_Xtr
  ------ -------- --------- --------- -------- -------- --------
  16.250   1.6320   0.05746   0.05174  -0.0534   0.1162   1.0000
  16.500   1.6322   0.06012   0.05443  -0.0527   0.1132   1.0000
  16.750   1.6399   0.06202   0.05642  -0.0523   0.1110   1.0000
  17.000   1.6467   0.06403   0.05850  -0.0520   0.1082   1.0000
  17.250   1.6495   0.06650   0.06102  -0.0516   0.1049   1.0000
  17.500   1.6485   0.06941   0.06395  -0.0512   0.1015   1.0000
  17.750   1.6545   0.07156   0.06619  -0.0509   0.0982   1.0000
  18.000   1.6573   0.07407   0.06874  -0.0507   0.0932   1.0000
  18.250   1.6562   0.07710   0.07180  -0.0505   0.0874   1.0000
  18.750   1.6352   0.08554   0.08012  -0.0504   0.0633   1.0000
  19.250   1.6019   0.09577   0.09035  -0.0509   0.0468   1.0000
  19.750   1.5701   0.10630   0.10093  -0.0523   0.0343   1.0000
  20.250   1.5438   0.11640   0.11112  -0.0544   0.0273   1.0000
  20.750   1.5219   0.12626   0.12112  -0.0573   0.0240   1.0000
  21.250   1.4999   0.13636   0.13138  -0.0609   0.0221   1.0000
  21.750   1.4829   0.14596   0.14117  -0.0649   0.0208   1.0000
  22.250   1.4644   0.15610   0.15149  -0.0698   0.0198   1.0000
