
 ===================================================
  XFOIL Version 6.99
  Copyright (C) 2000   Mark Drela, Harold Youngren

  This software comes with ABSOLUTELY NO WARRANTY,
    subject to the GNU General Public License.

  Caveat computor
 ===================================================

 File  xfoil.def  not found

   QUIT    Exit program

  .OPER    Direct operating point(s)
  .MDES    Complex mapping design routine
  .QDES    Surface speed design routine
  .GDES    Geometry design routine

   SAVE f  Write airfoil to labeled coordinate file
   PSAV f  Write airfoil to plain coordinate file
   ISAV f  Write airfoil to ISES coordinate file
   MSAV f  Write airfoil to MSES coordinate file
   REVE    Reverse written-airfoil node ordering

   LOAD f  Read buffer airfoil from coordinate file
   NACA i  Set NACA 4,5-digit airfoil and buffer airfoil
   INTE    Set buffer airfoil by interpolating two airfoils
   NORM    Buffer airfoil normalization toggle
   XYCM rr Change CM reference location, currently  0.25000 0.00000

   BEND    Display structural properties of current airfoil

   PCOP    Set current-airfoil panel nodes directly from buffer airfoil points
   PANE    Set current-airfoil panel nodes ( 160 ) based on curvature
  .PPAR    Show/change paneling

  .PLOP    Plotting options

   WDEF f  Write  current-settings file
   RDEF f  Reread current-settings file
   NAME s  Specify new airfoil name
   NINC    Increment name version number

   Z       Zoom    | (available in all menus)
   U       Unzoom  | 

 XFOIL   c>  
 Labeled airfoil file.  Name:  GOE 681 AIRFOIL                                 

 Number of input coordinate points:  33
 Counterclockwise ordering
 Max thickness =     0.168448  at x =   0.292
 Max camber    =     0.041994  at x =   0.403

  LE  x,y  =  -0.00010   0.00256  |   Chord =   1.00010
  TE  x,y  =   1.00000   0.00000  |

 Current airfoil nodes set from buffer airfoil nodes (  33 )

 WARNING: Poor input coordinate distribution
          Excessive panel angle   48.7  at i =  17
          Repaneling with PANE and/or PPAR suggested
           (doing GDES,CADD before repaneling _may_
            improve excessively coarse LE spacing

 XFOIL   c>  
 XFOIL   c>  
 Sharp trailing edge

 Paneling parameters used...
   Number of panel nodes       160
   Panel bunching parameter    1.000
   TE/LE panel density ratio   0.150
   Refined-area/LE panel density ratio    0.200
   Top    side refined area x/c limits  1.000 1.000
   Bottom side refined area x/c limits  1.000 1.000

 XFOIL   c>  
.OPERi   c>  
 Xtr/c     =  1.0000    top    side
 Xtr/c     =  1.0000    bottom side
 Ncrit     =    9.00   ( 0.070 % turb. level )
 Vacc      =  0.0100

 Klag  =  5.6000     Uxwt  =    1.00
 A     =  6.7000     B     =  0.7500       KCt = 0.01485
 CtiniK=  1.8000     CtiniX=  3.3000

..VPAR   c>  
..VPAR   c>  
.OPERi   c>  
 M  =    0.0000
 Re =    150000

.OPERv   c>  
.OPERv   c>  
.OPERv   c>  
 Polar  1 newly created for accumulation
 Airfoil archived with polar: GOE 681 AIRFOIL                                 

Enter  polar save filename  OR  <return> for no file   s>  
 New polar save file available

Enter  polar dump filename  OR  <return> for no file   s>  
 Polar dump file will NOT be written

 Polar accumulation enabled

.OPERva   c>   Calculating unit vorticity distributions ...
 Calculating wake trajectory ...
 Calculating source influence matrix ...

 Solving BL system ...

 Initializing BL ...
    side            1  ...
 MRCHUE: Inverse mode at  52     Hk =   3.807
 MRCHUE: Inverse mode at  53     Hk =   4.272
 MRCHUE: Inverse mode at  54     Hk =   4.726
 MRCHUE: Inverse mode at  55     Hk =   5.170
 MRCHUE: Inverse mode at  56     Hk =   5.607
 MRCHUE: Inverse mode at  57     Hk =   6.037
 MRCHUE: Inverse mode at  58     Hk =   6.462
 MRCHUE: Inverse mode at  59     Hk =   6.883
 MRCHUE: Inverse mode at  60     Hk =   7.302
 MRCHUE: Inverse mode at  61     Hk =   7.720
 MRCHUE: Inverse mode at  62     Hk =   8.139
 MRCHUE: Inverse mode at  63     Hk =   8.559
 MRCHUE: Inverse mode at  64     Hk =   8.978
 MRCHUE: Inverse mode at  65     Hk =   9.395
 MRCHUE: Inverse mode at  66     Hk =   8.503
 MRCHUE: Inverse mode at  67     Hk =   6.896
 MRCHUE: Inverse mode at  68     Hk =   5.793
 MRCHUE: Inverse mode at  69     Hk =   4.956
 MRCHUE: Inverse mode at  70     Hk =   4.288
 MRCHUE: Inverse mode at  71     Hk =   3.741
 MRCHUE: Inverse mode at  72     Hk =   3.291
 MRCHUE: Inverse mode at  73     Hk =   2.917
 MRCHUE: Inverse mode at  74     Hk =   2.603
 MRCHUE: Inverse mode at  75     Hk =   2.500
 MRCHUE: Inverse mode at  76     Hk =   2.500
 MRCHUE: Convergence failed at  77  side 1    Res =  0.5730E+01
    side            2  ...
 MRCHUE: Inverse mode at  24     Hk =   3.800
 MRCHUE: Inverse mode at  25     Hk =   4.281
 MRCHUE: Inverse mode at  26     Hk =   4.742
 MRCHUE: Inverse mode at  27     Hk =   5.190
 MRCHUE: Inverse mode at  28     Hk =   5.631
 MRCHUE: Inverse mode at  29     Hk =   6.069
 MRCHUE: Inverse mode at  30     Hk =   6.507
 MRCHUE: Inverse mode at  31     Hk =   6.948
 MRCHUE: Inverse mode at  32     Hk =   7.399
 MRCHUE: Inverse mode at  33     Hk =   7.865
 MRCHUE: Inverse mode at  34     Hk =   8.355
 MRCHUE: Inverse mode at  35     Hk =   8.875
 MRCHUE: Inverse mode at  36     Hk =   9.430
 MRCHUE: Inverse mode at  37     Hk =  10.018
 MRCHUE: Inverse mode at  38     Hk =   8.730
 MRCHUE: Inverse mode at  39     Hk =   6.337
 MRCHUE: Inverse mode at  40     Hk =   4.795
 MRCHUE: Inverse mode at  41     Hk =   3.632
 MRCHUE: Inverse mode at  42     Hk =   2.681
 MRCHUE: Inverse mode at  85     Hk =   2.500

 MRCHDU: Convergence failed at  77  side 1    Res =  0.5116E+01
 Side 1  free  transition at x/c =  0.8163   66
 Side 2  free  transition at x/c =  0.0991   38

   1   rms: 0.2509E+00   max: -.1608E+01   T at   38  2   RLX: 0.311
       a = -4.000      CL =  0.0188
      Cm = -0.1056     CD =  0.01592   =>   CDf =  0.00827    CDp =  0.00764

 Side 1  free  transition at x/c =  0.8120   66
 Side 2  free  transition at x/c =  0.1114   39

   2   rms: 0.1790E+00   max: -.1568E+01   T at   39  2   RLX: 0.319
       a = -4.000      CL = -0.0047
      Cm = -0.0973     CD =  0.01607   =>   CDf =  0.00823    CDp =  0.00784

 MRCHDU: Convergence failed at  41  side 2    Res =  0.2752E+01
 MRCHDU: Convergence failed at  42  side 2    Res =  0.1330E+02
 MRCHDU: Convergence failed at  43  side 2    Res =  0.4023E+01
 MRCHDU: Convergence failed at  44  side 2    Res =  0.9941E+01
 MRCHDU: Convergence failed at  45  side 2    Res =  0.2357E+02
 MRCHDU: Convergence failed at  46  side 2    Res =  0.9924E+02
 MRCHDU: Convergence failed at  47  side 2    Res =  0.2871E+03
 MRCHDU: Convergence failed at  48  side 2    Res =  0.7976E+02
 MRCHDU: Convergence failed at  49  side 2    Res =  0.3973E+02
 MRCHDU: Convergence failed at  50  side 2    Res =  0.2722E+02
 MRCHDU: Convergence failed at  51  side 2    Res =  0.2203E+02
 MRCHDU: Convergence failed at  52  side 2    Res =  0.1984E+02
 MRCHDU: Convergence failed at  53  side 2    Res =  0.1790E+02
 MRCHDU: Convergence failed at  54  side 2    Res =  0.1647E+02
 MRCHDU: Convergence failed at  55  side 2    Res =  0.1527E+02
 MRCHDU: Convergence failed at  56  side 2    Res =  0.1036E+02
 MRCHDU: Convergence failed at  57  side 2    Res =  0.1127E+02
 MRCHDU: Convergence failed at  58  side 2    Res =  0.1234E+02
 MRCHDU: Convergence failed at  59  side 2    Res =  0.1311E+02
 MRCHDU: Convergence failed at  60  side 2    Res =  0.1378E+02
 MRCHDU: Convergence failed at  61  side 2    Res =  0.1423E+02
 MRCHDU: Convergence failed at  62  side 2    Res =  0.1460E+02
 MRCHDU: Convergence failed at  63  side 2    Res =  0.1493E+02
 MRCHDU: Convergence failed at  64  side 2    Res =  0.1524E+02
 MRCHDU: Convergence failed at  65  side 2    Res =  0.1553E+02
 MRCHDU: Convergence failed at  66  side 2    Res =  0.1592E+02
 MRCHDU: Convergence failed at  67  side 2    Res =  0.1639E+02
 MRCHDU: Convergence failed at  68  side 2    Res =  0.2009E+02
 MRCHDU: Convergence failed at  69  side 2    Res =  0.2113E+02
 MRCHDU: Convergence failed at  70  side 2    Res =  0.2236E+02
 MRCHDU: Convergence failed at  71  side 2    Res =  0.2008E+02
 MRCHDU: Convergence failed at  72  side 2    Res =  0.2166E+02
 MRCHDU: Convergence failed at  73  side 2    Res =  0.2353E+02
 MRCHDU: Convergence failed at  74  side 2    Res =  0.2579E+02
 MRCHDU: Convergence failed at  75  side 2    Res =  0.2811E+02
 MRCHDU: Convergence failed at  76  side 2    Res =  0.3128E+02
 MRCHDU: Convergence failed at  77  side 2    Res =  0.3600E+02
 MRCHDU: Convergence failed at  78  side 2    Res =  0.4350E+02
 MRCHDU: Convergence failed at  79  side 2    Res =  0.5786E+02
 MRCHDU: Convergence failed at  80  side 2    Res =  0.9456E+02
 MRCHDU: Convergence failed at  81  side 2    Res =  0.4894E+03
 MRCHDU: Convergence failed at  82  side 2    Res =  0.1465E+03
 MRCHDU: Convergence failed at  83  side 2    Res =  0.4038E+02
 MRCHDU: Convergence failed at  84  side 2    Res =  0.2296E+02
 MRCHDU: Convergence failed at  85  side 2    Res =  0.4047E+03
 Side 1  free  transition at x/c =  0.8100   66
 Side 2  free  transition at x/c =  0.1290   41

   3   rms: 0.6254E+00   max: -.3599E+01   T at   41  2   RLX: 0.139
       a = -4.000      CL = -0.6600
      Cm =  0.1534     CD =  0.00867   =>   CDf =  0.00389    CDp =  0.00478

 Side 1  free  transition at x/c =  0.8109   66
 Side 2  free  transition at x/c =  0.1614   43
 idif Ue xi dudx           1  9.68758985E-02  3.00860405E-03   32.199615    
 Uenew xinew           2  4.73670056E-03  1.47104263E-04

   4   rms: 0.3684E+00   max: 0.1083E+01   D at   87  2   RLX: 0.647
       a = -4.000      CL = -0.2482
      Cm = -0.0128     CD =  0.01536   =>   CDf =  0.01147    CDp =  0.00388

 Side 1  free  transition at x/c =  0.8086   65
 Side 2  free  transition at x/c =  0.1749   45

   5   rms: 0.3145E+00   max: 0.2439E+01   T at    2  2   RLX: 0.428
       a = -4.000      CL = -0.2855
      Cm = -0.0170     CD =  0.01725   =>   CDf =  0.00914    CDp =  0.00811

 MRCHDU: Convergence failed at  86  side 2    Res =  0.4722E+00
 Side 1  free  transition at x/c =  0.8034   64
 Side 2  free  transition at x/c =  0.1346   42

   6   rms: 0.2208E+00   max: -.1683E+01   T at   42  2   RLX: 0.297
       a = -4.000      CL = -0.2074
      Cm = -0.0375     CD =  0.01392   =>   CDf =  0.00901    CDp =  0.00491

 MRCHDU: Convergence failed at  45  side 2    Res =  0.7571E+01
 MRCHDU: Convergence failed at  46  side 2    Res =  0.1725E+01
 MRCHDU: Convergence failed at  47  side 2    Res =  0.4622E+01
 MRCHDU: Convergence failed at  48  side 2    Res =  0.6634E+02
 MRCHDU: Convergence failed at  49  side 2    Res =  0.1116E+02
 MRCHDU: Convergence failed at  50  side 2    Res =  0.6559E+01
 MRCHDU: Convergence failed at  51  side 2    Res =  0.6376E+01
 MRCHDU: Convergence failed at  52  side 2    Res =  0.6614E+01
 MRCHDU: Convergence failed at  53  side 2    Res =  0.6857E+01
 MRCHDU: Convergence failed at  54  side 2    Res =  0.7358E+01
 MRCHDU: Convergence failed at  55  side 2    Res =  0.7891E+01
 MRCHDU: Convergence failed at  56  side 2    Res =  0.8392E+01
 MRCHDU: Convergence failed at  57  side 2    Res =  0.9463E+01
 MRCHDU: Convergence failed at  58  side 2    Res =  0.1064E+02
 MRCHDU: Convergence failed at  59  side 2    Res =  0.1288E+02
 MRCHDU: Convergence failed at  60  side 2    Res =  0.1489E+02
 MRCHDU: Convergence failed at  61  side 2    Res =  0.1703E+02
 MRCHDU: Convergence failed at  62  side 2    Res =  0.1915E+02
 MRCHDU: Convergence failed at  63  side 2    Res =  0.2268E+02
 MRCHDU: Convergence failed at  64  side 2    Res =  0.2530E+02
 MRCHDU: Convergence failed at  65  side 2    Res =  0.3116E+02
 MRCHDU: Convergence failed at  66  side 2    Res =  0.3610E+02
 MRCHDU: Convergence failed at  67  side 2    Res =  0.4287E+02
 MRCHDU: Convergence failed at  68  side 2    Res =  0.5149E+02
 MRCHDU: Convergence failed at  69  side 2    Res =  0.5951E+02
 MRCHDU: Convergence failed at  70  side 2    Res =  0.5820E+02
 MRCHDU: Convergence failed at  71  side 2    Res =  0.4090E+02
 MRCHDU: Convergence failed at  72  side 2    Res =  0.1025E+02
 MRCHDU: Convergence failed at  73  side 2    Res =  0.9921E+01
 MRCHDU: Convergence failed at  74  side 2    Res =  0.1490E+02
 MRCHDU: Convergence failed at  75  side 2    Res =  0.1701E+02
 MRCHDU: Convergence failed at  76  side 2    Res =  0.1887E+02
 MRCHDU: Convergence failed at  77  side 2    Res =  0.2029E+02
 MRCHDU: Convergence failed at  78  side 2    Res =  0.2137E+02
 MRCHDU: Convergence failed at  79  side 2    Res =  0.2453E+02
 MRCHDU: Convergence failed at  80  side 2    Res =  0.1711E+02
 MRCHDU: Convergence failed at  81  side 2    Res =  0.1578E+02
 MRCHDU: Convergence failed at  82  side 2    Res =  0.1276E+02
 MRCHDU: Convergence failed at  83  side 2    Res =  0.8864E+01
 MRCHDU: Convergence failed at  84  side 2    Res =  0.8657E+01
 MRCHDU: Convergence failed at  85  side 2    Res =  0.1148E+02
 MRCHDU: Convergence failed at  86  side 2    Res =  0.8479E+01
 Side 1  free  transition at x/c =  0.8046   64
 Side 2  free  transition at x/c =  0.1624   44

   7   rms: 0.8298E+00   max: -.5439E+01   T at   44  2   RLX: 0.092
       a = -4.000      CL = -0.6694
      Cm =  0.1536     CD =  0.01003   =>   CDf =  0.00399    CDp =  0.00604

 Side 1  free  transition at x/c =  0.8144   65
 Side 2  free  transition at x/c =  0.1969   46

   8   rms: 0.3675E+00   max: 0.5356E+00   D at   96  2   RLX: 0.739
       a = -4.000      CL = -0.1810
      Cm = -0.0317     CD =  0.01300   =>   CDf =  0.01136    CDp =  0.00164

 Side 1  free  transition at x/c =  0.8085   66
 Side 2  free  transition at x/c =  0.1972   45

   9   rms: 0.1767E+00   max: -.1592E+01   T at    2  1   RLX: 0.314
       a = -4.000      CL = -0.1121
      Cm = -0.0537     CD =  0.01607   =>   CDf =  0.00878    CDp =  0.00730

 Side 1  free  transition at x/c =  0.8079   66
 Side 2  free  transition at x/c =  0.2044   46

  10   rms: 0.1086E+00   max: 0.4717E+00   D at   46  2
       a = -4.000      CL =  0.0286
      Cm = -0.0976     CD =  0.01872   =>   CDf =  0.00840    CDp =  0.01032

 Side 1  free  transition at x/c =  0.8062   66
 Side 2  free  transition at x/c =  0.2088   46

  11   rms: 0.6736E-02   max: 0.6539E-01   D at   46  2
       a = -4.000      CL =  0.0259
      Cm = -0.0968     CD =  0.01940   =>   CDf =  0.00786    CDp =  0.01155

 Side 1  free  transition at x/c =  0.8061   66
 Side 2  free  transition at x/c =  0.2063   46

  12   rms: 0.3781E-03   max: -.4390E-02   D at   46  2
       a = -4.000      CL =  0.0259
      Cm = -0.0968     CD =  0.01941   =>   CDf =  0.00789    CDp =  0.01151

 Side 1  free  transition at x/c =  0.8061   66
 Side 2  free  transition at x/c =  0.2062   46

  13   rms: 0.3220E-05   max: -.2188E-04   D at   46  2
       a = -4.000      CL =  0.0259
      Cm = -0.0968     CD =  0.01941   =>   CDf =  0.00789    CDp =  0.01151
 plradd ia,ip,cpol            1           0  1.60668641E-02

 Point added to stored polar  1
 Point written to save file  goe681_Re150k.base.pol                          
 Dump file unspecified or not available
 Calculating wake trajectory ...
 Calculating source influence matrix ...

 Solving BL system ...

 Side 1  free  transition at x/c =  0.8061   66
 Side 2  free  transition at x/c =  0.2062   46

   1   rms: 0.1098E+00   max: -.8264E+00   T at   46  2   RLX: 0.605
       a = -3.500      CL =  0.0710
      Cm = -0.0982     CD =  0.01935   =>   CDf =  0.00784    CDp =  0.01150

 Side 1  free  transition at x/c =  0.7997   66
 Side 2  free  transition at x/c =  0.2287   46

   2   rms: 0.5461E-01   max: 0.4238E+00   T at   66  1
       a = -3.500      CL =  0.0332
      Cm = -0.0875     CD =  0.02001   =>   CDf =  0.00790    CDp =  0.01211

 Side 1  free  transition at x/c =  0.7794   65
 Side 2  free  transition at x/c =  0.2264   46

   3   rms: 0.6090E-01   max: -.3434E+00   D at   68  1
       a = -3.500      CL =  0.0817
      Cm = -0.0955     CD =  0.01908   =>   CDf =  0.00796    CDp =  0.01112

 Side 1  free  transition at x/c =  0.7938   66
 Side 2  free  transition at x/c =  0.2366   46

   4   rms: 0.2813E-01   max: 0.2923E+00   D at   67  1
       a = -3.500      CL =  0.0790
      Cm = -0.0954     CD =  0.01923   =>   CDf =  0.00811    CDp =  0.01113

 Side 1  free  transition at x/c =  0.7883   66
 Side 2  free  transition at x/c =  0.2374   47

   5   rms: 0.5349E-02   max: 0.3340E-01   T at   47  2
       a = -3.500      CL =  0.0738
      Cm = -0.0944     CD =  0.01935   =>   CDf =  0.00807    CDp =  0.01128

 Side 1  free  transition at x/c =  0.7876   66
 Side 2  free  transition at x/c =  0.2363   46

   6   rms: 0.1352E-02   max: -.1850E-01   D at   46  2
       a = -3.500      CL =  0.0736
      Cm = -0.0944     CD =  0.01929   =>   CDf =  0.00808    CDp =  0.01121

 Side 1  free  transition at x/c =  0.7876   66
 Side 2  free  transition at x/c =  0.2362   46

   7   rms: 0.6152E-04   max: 0.7614E-03   D at   47  2
       a = -3.500      CL =  0.0736
      Cm = -0.0944     CD =  0.01929   =>   CDf =  0.00807    CDp =  0.01122
 plradd ia,ip,cpol            2           0  1.60668641E-02

 Point added to stored polar  1
 Point written to save file  goe681_Re150k.base.pol                          
 Dump file unspecified or not available
 Calculating wake trajectory ...
 Calculating source influence matrix ...

 Solving BL system ...

 Side 1  free  transition at x/c =  0.7876   66
 Side 2  free  transition at x/c =  0.2361   46

   1   rms: 0.1157E+00   max: 0.1022E+01   C at   46  2   RLX: 0.504
       a = -3.000      CL =  0.1114
      Cm = -0.0952     CD =  0.01931   =>   CDf =  0.00807    CDp =  0.01123

 MRCHDU: Convergence failed at  48  side 2    Res =  0.2257E+01
 MRCHDU: Convergence failed at  49  side 2    Res =  0.5749E+01
 MRCHDU: Convergence failed at  50  side 2    Res =  0.1946E+02
 MRCHDU: Convergence failed at  51  side 2    Res =  0.1488E+03
 MRCHDU: Convergence failed at  52  side 2    Res =  0.9817E+02
 MRCHDU: Convergence failed at  53  side 2    Res =  0.6652E+02
 MRCHDU: Convergence failed at  54  side 2    Res =  0.7386E+02
 MRCHDU: Convergence failed at  55  side 2    Res =  0.8428E+02
 MRCHDU: Convergence failed at  56  side 2    Res =  0.1657E+03
 MRCHDU: Convergence failed at  57  side 2    Res =  0.1088E+06
 MRCHDU: Convergence failed at  58  side 2    Res =  0.1707E+03
 MRCHDU: Convergence failed at  59  side 2    Res =  0.9073E+02
 MRCHDU: Convergence failed at  60  side 2    Res =  0.6542E+02
 MRCHDU: Convergence failed at  61  side 2    Res =  0.5233E+02
 MRCHDU: Convergence failed at  62  side 2    Res =  0.4362E+02
 MRCHDU: Convergence failed at  63  side 2    Res =  0.3788E+02
 MRCHDU: Convergence failed at  64  side 2    Res =  0.3348E+02
 MRCHDU: Convergence failed at  65  side 2    Res =  0.2991E+02
 MRCHDU: Convergence failed at  66  side 2    Res =  0.2688E+02
 MRCHDU: Convergence failed at  67  side 2    Res =  0.2437E+02
 MRCHDU: Convergence failed at  68  side 2    Res =  0.2229E+02
 MRCHDU: Convergence failed at  69  side 2    Res =  0.2043E+02
 MRCHDU: Convergence failed at  70  side 2    Res =  0.1873E+02
 MRCHDU: Convergence failed at  71  side 2    Res =  0.1739E+02
 MRCHDU: Convergence failed at  72  side 2    Res =  0.1619E+02
 MRCHDU: Convergence failed at  73  side 2    Res =  0.1517E+02
 MRCHDU: Convergence failed at  74  side 2    Res =  0.1432E+02
 MRCHDU: Convergence failed at  75  side 2    Res =  0.1346E+02
 MRCHDU: Convergence failed at  76  side 2    Res =  0.1268E+02
 MRCHDU: Convergence failed at  77  side 2    Res =  0.1103E+02
 MRCHDU: Convergence failed at  78  side 2    Res =  0.1216E+02
 MRCHDU: Convergence failed at  79  side 2    Res =  0.1363E+02
 MRCHDU: Convergence failed at  80  side 2    Res =  0.1566E+02
 MRCHDU: Convergence failed at  81  side 2    Res =  0.1859E+02
 MRCHDU: Convergence failed at  82  side 2    Res =  0.2346E+02
 MRCHDU: Convergence failed at  83  side 2    Res =  0.2698E+02
 MRCHDU: Convergence failed at  84  side 2    Res =  0.1159E+03
 Side 1  free  transition at x/c =  0.7822   65
 Side 2  free  transition at x/c =  0.2582   48

   2   rms: 0.4438E+00   max: 0.1420E+01   T at   83  2
       a = -3.000      CL =  0.3043
      Cm = -0.1190     CD =  0.01472   =>   CDf =  0.00461    CDp =  0.01011

 Side 1  free  transition at x/c =  0.7712   67
 Side 2  free  transition at x/c =  0.2980   47
 idif Ue xi dudx           1  0.12824665      3.61394882E-03   35.486572    
 Uenew xinew           2  3.80941145E-02  1.07347965E-03

   3   rms: 0.1923E+00   max: -.8554E+00   D at   77  2   RLX: 0.585
       a = -3.000      CL =  0.2036
      Cm = -0.1070     CD =  0.01935   =>   CDf =  0.00785    CDp =  0.01150

 Side 1  free  transition at x/c =  0.7708   66
 Side 2  free  transition at x/c =  0.2781   47

   4   rms: 0.9490E-01   max: -.4728E+00   C at   47  2
       a = -3.000      CL =  0.1232
      Cm = -0.0926     CD =  0.01822   =>   CDf =  0.00812    CDp =  0.01010

 Side 1  free  transition at x/c =  0.7696   66
 Side 2  free  transition at x/c =  0.2620   47

   5   rms: 0.1691E-01   max: -.1811E+00   D at   48  2
       a = -3.000      CL =  0.1234
      Cm = -0.0924     CD =  0.01884   =>   CDf =  0.00808    CDp =  0.01076

 Side 1  free  transition at x/c =  0.7690   66
 Side 2  free  transition at x/c =  0.2636   47

   6   rms: 0.4765E-03   max: -.8263E-02   D at   48  2
       a = -3.000      CL =  0.1231
      Cm = -0.0924     CD =  0.01884   =>   CDf =  0.00806    CDp =  0.01078

 Side 1  free  transition at x/c =  0.7690   66
 Side 2  free  transition at x/c =  0.2635   47

   7   rms: 0.4017E-05   max: -.5095E-04   D at   48  2
       a = -3.000      CL =  0.1231
      Cm = -0.0924     CD =  0.01884   =>   CDf =  0.00806    CDp =  0.01078
 plradd ia,ip,cpol            3           0  1.60668641E-02

 Point added to stored polar  1
 Point written to save file  goe681_Re150k.base.pol                          
 Dump file unspecified or not available
 Calculating wake trajectory ...
 Calculating source influence matrix ...

 Solving BL system ...

 Side 1  free  transition at x/c =  0.7690   66
 Side 2  free  transition at x/c =  0.2635   47

   1   rms: 0.1016E+00   max: -.8201E+00   T at   47  2   RLX: 0.610
       a = -2.500      CL =  0.1632
      Cm = -0.0930     CD =  0.01840   =>   CDf =  0.00807    CDp =  0.01033

 Side 1  free  transition at x/c =  0.7632   65
 Side 2  free  transition at x/c =  0.2787   47

   2   rms: 0.5898E-01   max: -.3391E+00   D at   47  2
       a = -2.500      CL =  0.1503
      Cm = -0.0866     CD =  0.01953   =>   CDf =  0.00832    CDp =  0.01121

 Side 1  free  transition at x/c =  0.7469   65
 Side 2  free  transition at x/c =  0.2877   48

   3   rms: 0.3906E-01   max: 0.4742E+00   D at   48  2
       a = -2.500      CL =  0.1715
      Cm = -0.0905     CD =  0.01857   =>   CDf =  0.00805    CDp =  0.01051

 Side 1  free  transition at x/c =  0.7522   65
 Side 2  free  transition at x/c =  0.2902   48

   4   rms: 0.4837E-02   max: 0.5388E-01   D at   48  2
       a = -2.500      CL =  0.1714
      Cm = -0.0904     CD =  0.01859   =>   CDf =  0.00805    CDp =  0.01054

 Side 1  free  transition at x/c =  0.7527   65
 Side 2  free  transition at x/c =  0.2900   48

   5   rms: 0.8095E-04   max: 0.7486E-03   D at   49  2
       a = -2.500      CL =  0.1714
      Cm = -0.0904     CD =  0.01859   =>   CDf =  0.00806    CDp =  0.01053
 plradd ia,ip,cpol            4           0  1.60668641E-02

 Point added to stored polar  1
 Point written to save file  goe681_Re150k.base.pol                          
 Dump file unspecified or not available
 Calculating wake trajectory ...
 Calculating source influence matrix ...

 Solving BL system ...

 Side 1  free  transition at x/c =  0.7527   65
 Side 2  free  transition at x/c =  0.2900   48

   1   rms: 0.8543E-01   max: -.6321E+00   T at   48  2   RLX: 0.791
       a = -2.000      CL =  0.2157
      Cm = -0.0898     CD =  0.01828   =>   CDf =  0.00800    CDp =  0.01028

 Side 1  free  transition at x/c =  0.7423   65
 Side 2  free  transition at x/c =  0.3083   48

   2   rms: 0.2233E-01   max: -.1727E+00   T at   48  2
       a = -2.000      CL =  0.2198
      Cm = -0.0885     CD =  0.01824   =>   CDf =  0.00818    CDp =  0.01006

 Side 1  free  transition at x/c =  0.7362   65
 Side 2  free  transition at x/c =  0.3140   48

   3   rms: 0.8591E-02   max: -.5545E-01   D at   48  2
       a = -2.000      CL =  0.2235
      Cm = -0.0891     CD =  0.01822   =>   CDf =  0.00810    CDp =  0.01012

 Side 1  free  transition at x/c =  0.7375   65
 Side 2  free  transition at x/c =  0.3152   48

   4   rms: 0.1550E-03   max: -.1154E-02   D at   66  1
       a = -2.000      CL =  0.2236
      Cm = -0.0891     CD =  0.01821   =>   CDf =  0.00809    CDp =  0.01012

 Side 1  free  transition at x/c =  0.7376   65
 Side 2  free  transition at x/c =  0.3152   48

   5   rms: 0.1999E-05   max: -.1002E-04   D at   78  1
       a = -2.000      CL =  0.2236
      Cm = -0.0891     CD =  0.01821   =>   CDf =  0.00809    CDp =  0.01012
 plradd ia,ip,cpol            5           0  1.60668641E-02

 Point added to stored polar  1
 Point written to save file  goe681_Re150k.base.pol                          
 Dump file unspecified or not available
 Calculating wake trajectory ...
 Calculating source influence matrix ...

 Solving BL system ...

 Side 1  free  transition at x/c =  0.7376   65
 Side 2  free  transition at x/c =  0.3152   48

   1   rms: 0.7315E-01   max: -.4547E+00   T at   48  2
       a = -1.500      CL =  0.2682
      Cm = -0.0864     CD =  0.01804   =>   CDf =  0.00803    CDp =  0.01001

 Side 1  free  transition at x/c =  0.7196   65
 Side 2  free  transition at x/c =  0.3359   48

   2   rms: 0.2575E-01   max: 0.1770E+00   D at   48  2
       a = -1.500      CL =  0.2825
      Cm = -0.0888     CD =  0.01760   =>   CDf =  0.00811    CDp =  0.00949

 Side 1  free  transition at x/c =  0.7237   65
 Side 2  free  transition at x/c =  0.3379   48

   3   rms: 0.2712E-02   max: 0.2092E-01   D at   67  1
       a = -1.500      CL =  0.2808
      Cm = -0.0885     CD =  0.01766   =>   CDf =  0.00816    CDp =  0.00950

 Side 1  free  transition at x/c =  0.7230   65
 Side 2  free  transition at x/c =  0.3378   48

   4   rms: 0.4752E-04   max: -.4074E-03   D at   66  1
       a = -1.500      CL =  0.2808
      Cm = -0.0886     CD =  0.01766   =>   CDf =  0.00815    CDp =  0.00951
 plradd ia,ip,cpol            6           0  1.60668641E-02

 Point added to stored polar  1
 Point written to save file  goe681_Re150k.base.pol                          
 Dump file unspecified or not available
 Calculating wake trajectory ...
 Calculating source influence matrix ...

 Solving BL system ...

 Side 1  free  transition at x/c =  0.7231   65
 Side 2  free  transition at x/c =  0.3378   48

   1   rms: 0.7060E-01   max: 0.4606E+00   T at   65  1
       a = -1.000      CL =  0.3029
      Cm = -0.0822     CD =  0.01792   =>   CDf =  0.00816    CDp =  0.00976

 Side 1  free  transition at x/c =  0.6980   64
 Side 2  free  transition at x/c =  0.3605   49

   2   rms: 0.5857E-01   max: -.3935E+00   D at   67  1
       a = -1.000      CL =  0.3378
      Cm = -0.0878     CD =  0.01714   =>   CDf =  0.00816    CDp =  0.00898

 Side 1  free  transition at x/c =  0.7103   66
 Side 2  free  transition at x/c =  0.3672   49

   3   rms: 0.1576E-01   max: 0.1654E+00   D at   67  1
       a = -1.000      CL =  0.3355
      Cm = -0.0876     CD =  0.01712   =>   CDf =  0.00812    CDp =  0.00900

 Side 1  free  transition at x/c =  0.7069   66
 Side 2  free  transition at x/c =  0.3660   49

   4   rms: 0.1950E-02   max: 0.1218E-01   T at   49  2
       a = -1.000      CL =  0.3338
      Cm = -0.0873     CD =  0.01716   =>   CDf =  0.00812    CDp =  0.00904

 Side 1  free  transition at x/c =  0.7067   66
 Side 2  free  transition at x/c =  0.3655   49

   5   rms: 0.2681E-04   max: -.2465E-03   D at   50  2
       a = -1.000      CL =  0.3337
      Cm = -0.0873     CD =  0.01716   =>   CDf =  0.00814    CDp =  0.00902
 plradd ia,ip,cpol            7           0  0.16025139    

 Point added to stored polar  1
 Point written to save file  goe681_Re150k.base.pol                          
 Dump file unspecified or not available
 Calculating wake trajectory ...
 Calculating source influence matrix ...

 Solving BL system ...

 Side 1  free  transition at x/c =  0.7067   66
 Side 2  free  transition at x/c =  0.3655   49

   1   rms: 0.1052E+00   max: -.6688E+00   T at   49  2   RLX: 0.748
       a = -0.500      CL =  0.3836
      Cm = -0.0882     CD =  0.01630   =>   CDf =  0.00814    CDp =  0.00815

 Side 1  free  transition at x/c =  0.6983   65
 Side 2  free  transition at x/c =  0.3838   49

   2   rms: 0.5578E-01   max: -.5116E+00   D at   50  2   RLX: 0.977
       a = -0.500      CL =  0.3697
      Cm = -0.0830     CD =  0.01753   =>   CDf =  0.00837    CDp =  0.00916

 Side 1  free  transition at x/c =  0.6853   64
 Side 2  free  transition at x/c =  0.4014   50

   3   rms: 0.3650E-01   max: -.2342E+00   D at   66  1
       a = -0.500      CL =  0.3952
      Cm = -0.0874     CD =  0.01649   =>   CDf =  0.00808    CDp =  0.00840

 Side 1  free  transition at x/c =  0.6949   66
 Side 2  free  transition at x/c =  0.4050   49

   4   rms: 0.2572E-01   max: 0.2582E+00   D at   66  1
       a = -0.500      CL =  0.3910
      Cm = -0.0869     CD =  0.01648   =>   CDf =  0.00788    CDp =  0.00860

 Side 1  free  transition at x/c =  0.6903   66
 Side 2  free  transition at x/c =  0.4021   49
 idif Ue xi dudx           1  9.96571556E-02  2.49981880E-03   39.865753    
 Uenew xinew           2  5.38443308E-03  1.35064125E-04

   5   rms: 0.8118E-02   max: -.5444E-01   D at   83  1
       a = -0.500      CL =  0.3825
      Cm = -0.0853     CD =  0.01666   =>   CDf =  0.00801    CDp =  0.00865

 Side 1  free  transition at x/c =  0.6889   65
 Side 2  free  transition at x/c =  0.3996   50

   6   rms: 0.5919E-03   max: -.3434E-02   D at   82  1
       a = -0.500      CL =  0.3819
      Cm = -0.0852     CD =  0.01667   =>   CDf =  0.00798    CDp =  0.00869

 Side 1  free  transition at x/c =  0.6890   65
 Side 2  free  transition at x/c =  0.3995   50

   7   rms: 0.1763E-03   max: -.2295E-02   D at    4  2
       a = -0.500      CL =  0.3819
      Cm = -0.0852     CD =  0.01667   =>   CDf =  0.00797    CDp =  0.00869

 Side 1  free  transition at x/c =  0.6890   65
 Side 2  free  transition at x/c =  0.3995   50

   8   rms: 0.1928E-05   max: 0.2267E-04   D at    4  2
       a = -0.500      CL =  0.3819
      Cm = -0.0852     CD =  0.01667   =>   CDf =  0.00797    CDp =  0.00869
 plradd ia,ip,cpol            8           0  0.16025139    

 Point added to stored polar  1
 Point written to save file  goe681_Re150k.base.pol                          
 Dump file unspecified or not available
 Calculating wake trajectory ...
 Calculating source influence matrix ...

 Solving BL system ...

 Side 1  free  transition at x/c =  0.6890   65
 Side 2  free  transition at x/c =  0.3995   50

   1   rms: 0.9309E-01   max: -.4866E+00   T at   50  2
       a =  0.000      CL =  0.4473
      Cm = -0.0859     CD =  0.01596   =>   CDf =  0.00791    CDp =  0.00805

 Side 1  free  transition at x/c =  0.6756   65
 Side 2  free  transition at x/c =  0.4525   52

   2   rms: 0.3125E-01   max: -.2843E+00   C at   52  2
       a =  0.000      CL =  0.4248
      Cm = -0.0822     CD =  0.01610   =>   CDf =  0.00785    CDp =  0.00824

 Side 1  free  transition at x/c =  0.6692   65
 Side 2  free  transition at x/c =  0.4637   52

   3   rms: 0.7371E-02   max: -.5651E-01   D at   66  1
       a =  0.000      CL =  0.4287
      Cm = -0.0828     CD =  0.01602   =>   CDf =  0.00768    CDp =  0.00833

 Side 1  free  transition at x/c =  0.6708   65
 Side 2  free  transition at x/c =  0.4620   52

   4   rms: 0.2830E-03   max: 0.2291E-02   C at   52  2
       a =  0.000      CL =  0.4285
      Cm = -0.0827     CD =  0.01603   =>   CDf =  0.00767    CDp =  0.00836

 Side 1  free  transition at x/c =  0.6707   65
 Side 2  free  transition at x/c =  0.4618   52

   5   rms: 0.2155E-05   max: -.1314E-04   C at   52  2
       a =  0.000      CL =  0.4285
      Cm = -0.0827     CD =  0.01603   =>   CDf =  0.00767    CDp =  0.00836
 plradd ia,ip,cpol            9           0  0.16025139    

 Point added to stored polar  1
 Point written to save file  goe681_Re150k.base.pol                          
 Dump file unspecified or not available
 Calculating wake trajectory ...
 Calculating source influence matrix ...

 Solving BL system ...

 Side 1  free  transition at x/c =  0.6707   65
 Side 2  free  transition at x/c =  0.4618   52

   1   rms: 0.1257E+00   max: -.1552E+01   C at   52  2   RLX: 0.322
       a =  0.500      CL =  0.4465
      Cm = -0.0824     CD =  0.01570   =>   CDf =  0.00768    CDp =  0.00802

 Side 1  free  transition at x/c =  0.6661   64
 Side 2  free  transition at x/c =  0.5004   54

   2   rms: 0.1098E+00   max: -.1729E+01   C at   54  2   RLX: 0.289
       a =  0.500      CL =  0.4479
      Cm = -0.0806     CD =  0.01567   =>   CDf =  0.00752    CDp =  0.00815

 Side 1  free  transition at x/c =  0.6606   65
 Side 2  free  transition at x/c =  0.5198   54

   3   rms: 0.1104E+00   max: -.1795E+01   C at   54  2   RLX: 0.279
       a =  0.500      CL =  0.4527
      Cm = -0.0801     CD =  0.01559   =>   CDf =  0.00749    CDp =  0.00810

 Side 1  free  transition at x/c =  0.6579   65
 Side 2  free  transition at x/c =  0.5431   55

   4   rms: 0.1204E+00   max: -.2114E+01   C at   55  2   RLX: 0.236
       a =  0.500      CL =  0.4561
      Cm = -0.0798     CD =  0.01548   =>   CDf =  0.00738    CDp =  0.00811

 Side 1  free  transition at x/c =  0.6564   65
 Side 2  free  transition at x/c =  0.5600   56

   5   rms: 0.1220E+00   max: -.2112E+01   C at   56  2   RLX: 0.237
       a =  0.500      CL =  0.4590
      Cm = -0.0797     CD =  0.01537   =>   CDf =  0.00733    CDp =  0.00804

 Side 1  free  transition at x/c =  0.6554   65
 Side 2  free  transition at x/c =  0.5764   57

   6   rms: 0.1172E+00   max: -.1926E+01   C at   57  2   RLX: 0.260
       a =  0.500      CL =  0.4615
      Cm = -0.0796     CD =  0.01526   =>   CDf =  0.00731    CDp =  0.00795

 Side 1  free  transition at x/c =  0.6546   65
 Side 2  free  transition at x/c =  0.5974   57

   7   rms: 0.5227E-01   max: -.7896E+00   C at   57  2   RLX: 0.633
       a =  0.500      CL =  0.4653
      Cm = -0.0791     CD =  0.01514   =>   CDf =  0.00720    CDp =  0.00793

 Side 1  free  transition at x/c =  0.6530   65
 Side 2  free  transition at x/c =  0.7649   65

   8   rms: 0.3277E-01   max: -.4609E+00   C at   65  2
       a =  0.500      CL =  0.4690
      Cm = -0.0782     CD =  0.01464   =>   CDf =  0.00656    CDp =  0.00808

 Side 1  free  transition at x/c =  0.6523   65
 Side 2  free  transition at x/c =  0.8800   71

   9   rms: 0.4021E-01   max: 0.5425E+00   C at   71  2
       a =  0.500      CL =  0.4615
      Cm = -0.0763     CD =  0.01471   =>   CDf =  0.00624    CDp =  0.00847

 Side 1  free  transition at x/c =  0.6526   65
 Side 2  free  transition at x/c =  0.8164   68

  10   rms: 0.1505E+01   max: -.1839E+02   C at   68  2   RLX: 0.027
       a =  0.500      CL =  0.4856
      Cm = -0.0807     CD =  0.01443   =>   CDf =  0.00627    CDp =  0.00816

 Side 1  free  transition at x/c =  0.6519   65
 Side 2  free  transition at x/c =  0.8613   70

  11   rms: 0.5421E-01   max: 0.2853E+00   D at   72  2
       a =  0.500      CL =  0.5407
      Cm = -0.0911     CD =  0.01460   =>   CDf =  0.00619    CDp =  0.00840

 Side 1  free  transition at x/c =  0.6500   65
 Side 2  free  transition at x/c =  0.9033   72

  12   rms: 0.2130E-01   max: -.1326E+00   D at   77  2
       a =  0.500      CL =  0.5215
      Cm = -0.0875     CD =  0.01467   =>   CDf =  0.00625    CDp =  0.00842

 Side 1  free  transition at x/c =  0.6506   65
 Side 2  free  transition at x/c =  0.8884   71

  13   rms: 0.8871E-02   max: -.6018E-01   D at   78  2
       a =  0.500      CL =  0.5157
      Cm = -0.0865     CD =  0.01467   =>   CDf =  0.00623    CDp =  0.00844

 Side 1  free  transition at x/c =  0.6508   65
 Side 2  free  transition at x/c =  0.8854   71

  14   rms: 0.8743E-03   max: -.6252E-02   D at   78  2
       a =  0.500      CL =  0.5149
      Cm = -0.0863     CD =  0.01467   =>   CDf =  0.00622    CDp =  0.00845

 Side 1  free  transition at x/c =  0.6508   65
 Side 2  free  transition at x/c =  0.8849   71

  15   rms: 0.1719E-04   max: -.1136E-03   D at   78  2
       a =  0.500      CL =  0.5149
      Cm = -0.0863     CD =  0.01467   =>   CDf =  0.00622    CDp =  0.00845
 plradd ia,ip,cpol           10           0  0.14852934    

 Point added to stored polar  1
 Point written to save file  goe681_Re150k.base.pol                          
 Dump file unspecified or not available
 Calculating wake trajectory ...
 Calculating source influence matrix ...

 Solving BL system ...

 Side 1  free  transition at x/c =  0.6508   65
 Side 2  free  transition at x/c =  0.8849   71

   1   rms: 0.3035E+00   max: 0.1681E+01   D at   75  2   RLX: 0.892
       a =  1.000      CL =  0.7431
      Cm = -0.1174     CD =  0.01445   =>   CDf =  0.00618    CDp =  0.00827

 Side 1  free  transition at x/c =  0.6283   66
 Side 2  free  transition at x/c =  0.9784   74

   2   rms: 0.6412E-01   max: -.2648E+00   D at   76  2
       a =  1.000      CL =  0.6661
      Cm = -0.1031     CD =  0.01486   =>   CDf =  0.00668    CDp =  0.00818

 Side 1  free  transition at x/c =  0.6258   65
 Side 2  free  transition at x/c =  0.9827   75

   3   rms: 0.1506E-01   max: 0.7334E-01   T at   75  2
       a =  1.000      CL =  0.6489
      Cm = -0.0999     CD =  0.01492   =>   CDf =  0.00662    CDp =  0.00830

 Side 1  free  transition at x/c =  0.6248   65
 Side 2  free  transition at x/c =  0.9773   74

   4   rms: 0.2736E-02   max: -.3289E-01   D at   74  2
       a =  1.000      CL =  0.6508
      Cm = -0.1003     CD =  0.01489   =>   CDf =  0.00656    CDp =  0.00833

 Side 1  free  transition at x/c =  0.6246   65
 Side 2  free  transition at x/c =  0.9768   74

   5   rms: 0.4356E-04   max: -.4266E-03   D at   76  2
       a =  1.000      CL =  0.6508
      Cm = -0.1003     CD =  0.01489   =>   CDf =  0.00656    CDp =  0.00833
 plradd ia,ip,cpol           11           0  0.14852934    

 Point added to stored polar  1
 Point written to save file  goe681_Re150k.base.pol                          
 Dump file unspecified or not available
 Calculating wake trajectory ...
 Calculating source influence matrix ...

 Solving BL system ...

 Side 1  free  transition at x/c =  0.6246   65
 Side 2  free  transition at x/c =  0.9768   74

   1   rms: 0.1247E+00   max: 0.6685E+00   C at   74  2   RLX: 0.829
       a =  1.500      CL =  0.7365
      Cm = -0.1079     CD =  0.01516   =>   CDf =  0.00654    CDp =  0.00862

 Side 1  free  transition at x/c =  0.5948   65
 Side 2 forced transition at x/c =  1.0000   75

   2   rms: 0.3281E-01   max: -.2777E+00   D at   65  1
       a =  1.500      CL =  0.7492
      Cm = -0.1086     CD =  0.01474   =>   CDf =  0.00693    CDp =  0.00781

 Side 1  free  transition at x/c =  0.5960   65
 Side 2 forced transition at x/c =  1.0000   75

   3   rms: 0.3721E-02   max: 0.2452E-01   D at   66  1
       a =  1.500      CL =  0.7464
      Cm = -0.1081     CD =  0.01481   =>   CDf =  0.00683    CDp =  0.00798

 Side 1  free  transition at x/c =  0.5948   65
 Side 2 forced transition at x/c =  1.0000   75

   4   rms: 0.8393E-04   max: -.7617E-03   D at   68  1
       a =  1.500      CL =  0.7464
      Cm = -0.1081     CD =  0.01481   =>   CDf =  0.00685    CDp =  0.00795
 plradd ia,ip,cpol           12           0  0.14852934    

 Point added to stored polar  1
 Point written to save file  goe681_Re150k.base.pol                          
 Dump file unspecified or not available
 Calculating wake trajectory ...
 Calculating source influence matrix ...

 Solving BL system ...

 Side 1  free  transition at x/c =  0.5948   65
 Side 2 forced transition at x/c =  1.0000   75

   1   rms: 0.7438E-01   max: 0.3509E+00   T at   65  1
       a =  2.000      CL =  0.7849
      Cm = -0.1046     CD =  0.01477   =>   CDf =  0.00686    CDp =  0.00791

 Side 1  free  transition at x/c =  0.5720   64
 Side 2 forced transition at x/c =  1.0000   75

   2   rms: 0.1991E-01   max: -.2515E+00   D at   64  1
       a =  2.000      CL =  0.7807
      Cm = -0.1038     CD =  0.01483   =>   CDf =  0.00707    CDp =  0.00775

 Side 1  free  transition at x/c =  0.5687   63
 Side 2 forced transition at x/c =  1.0000   75

   3   rms: 0.3313E-02   max: 0.3852E-01   D at   64  1
       a =  2.000      CL =  0.7785
      Cm = -0.1035     CD =  0.01490   =>   CDf =  0.00713    CDp =  0.00777

 Side 1  free  transition at x/c =  0.5676   63
 Side 2 forced transition at x/c =  1.0000   75

   4   rms: 0.1274E-03   max: 0.7120E-03   D at   66  1
       a =  2.000      CL =  0.7786
      Cm = -0.1035     CD =  0.01489   =>   CDf =  0.00710    CDp =  0.00779

 Side 1  free  transition at x/c =  0.5676   63
 Side 2 forced transition at x/c =  1.0000   75

   5   rms: 0.1468E-05   max: -.5097E-05   D at    4  2
       a =  2.000      CL =  0.7786
      Cm = -0.1035     CD =  0.01489   =>   CDf =  0.00710    CDp =  0.00779
 plradd ia,ip,cpol           13           0  0.14852934    

 Point added to stored polar  1
 Point written to save file  goe681_Re150k.base.pol                          
 Dump file unspecified or not available
 Calculating wake trajectory ...
 Calculating source influence matrix ...

 Solving BL system ...

 Side 1  free  transition at x/c =  0.5676   63
 Side 2 forced transition at x/c =  1.0000   75

   1   rms: 0.6536E-01   max: 0.3679E+00   T at   63  1
       a =  2.500      CL =  0.7960
      Cm = -0.0964     CD =  0.01518   =>   CDf =  0.00707    CDp =  0.00811

 Side 1  free  transition at x/c =  0.5326   62
 Side 2 forced transition at x/c =  1.0000   74

   2   rms: 0.3378E-01   max: -.3634E+00   D at   63  1
       a =  2.500      CL =  0.8141
      Cm = -0.0994     CD =  0.01502   =>   CDf =  0.00748    CDp =  0.00754

 Side 1  free  transition at x/c =  0.5393   63
 Side 2 forced transition at x/c =  1.0000   74

   3   rms: 0.1125E-01   max: 0.1075E+00   D at   63  1
       a =  2.500      CL =  0.8082
      Cm = -0.0983     CD =  0.01506   =>   CDf =  0.00726    CDp =  0.00781

 Side 1  free  transition at x/c =  0.5362   63
 Side 2 forced transition at x/c =  1.0000   74

   4   rms: 0.1142E-02   max: -.1352E-01   D at   66  1
       a =  2.500      CL =  0.8080
      Cm = -0.0983     CD =  0.01509   =>   CDf =  0.00733    CDp =  0.00775

 Side 1  free  transition at x/c =  0.5358   63
 Side 2 forced transition at x/c =  1.0000   74

   5   rms: 0.1768E-04   max: -.1936E-03   D at   66  1
       a =  2.500      CL =  0.8080
      Cm = -0.0983     CD =  0.01509   =>   CDf =  0.00735    CDp =  0.00774
 plradd ia,ip,cpol           14           0  0.13739318    

 Point added to stored polar  1
 Point written to save file  goe681_Re150k.base.pol                          
 Dump file unspecified or not available
 Calculating wake trajectory ...
 Calculating source influence matrix ...

 Solving BL system ...

 Side 1  free  transition at x/c =  0.5358   63
 Side 2 forced transition at x/c =  1.0000   74

   1   rms: 0.7751E-01   max: -.3876E+00   D at   64  1
       a =  3.000      CL =  0.8471
      Cm = -0.0947     CD =  0.01534   =>   CDf =  0.00730    CDp =  0.00804

 Side 1  free  transition at x/c =  0.5088   62
 Side 2 forced transition at x/c =  1.0000   73
 idif Ue xi dudx           1  9.54744816E-02  2.49779224E-03   38.223549    
 Uenew xinew           2  2.43322551E-03  6.36577606E-05

   2   rms: 0.2642E-01   max: -.2934E+00   D at   63  1
       a =  3.000      CL =  0.8331
      Cm = -0.0922     CD =  0.01529   =>   CDf =  0.00759    CDp =  0.00770

 Side 1  free  transition at x/c =  0.5021   61
 Side 2 forced transition at x/c =  1.0000   74

   3   rms: 0.2984E-02   max: 0.3210E-01   T at    2  2
       a =  3.000      CL =  0.8350
      Cm = -0.0926     CD =  0.01544   =>   CDf =  0.00759    CDp =  0.00785

 Side 1  free  transition at x/c =  0.5010   61
 Side 2 forced transition at x/c =  1.0000   74

   4   rms: 0.8401E-03   max: 0.1103E-01   D at    4  2
       a =  3.000      CL =  0.8351
      Cm = -0.0926     CD =  0.01544   =>   CDf =  0.00760    CDp =  0.00784

 Side 1  free  transition at x/c =  0.5011   61
 Side 2 forced transition at x/c =  1.0000   74

   5   rms: 0.9882E-05   max: -.1305E-03   D at    4  2
       a =  3.000      CL =  0.8351
      Cm = -0.0926     CD =  0.01544   =>   CDf =  0.00760    CDp =  0.00784
 plradd ia,ip,cpol           15           0  0.13739318    

 Point added to stored polar  1
 Point written to save file  goe681_Re150k.base.pol                          
 Dump file unspecified or not available
 Calculating wake trajectory ...
 Calculating source influence matrix ...

 Solving BL system ...

 Side 1  free  transition at x/c =  0.5011   61
 Side 2 forced transition at x/c =  1.0000   74

   1   rms: 0.7349E-01   max: -.3437E+00   D at   62  1
       a =  3.500      CL =  0.8662
      Cm = -0.0877     CD =  0.01587   =>   CDf =  0.00754    CDp =  0.00833

 Side 1  free  transition at x/c =  0.4735   60
 Side 2 forced transition at x/c =  1.0000   73

   2   rms: 0.2500E-01   max: -.3161E+00   D at   61  1
       a =  3.500      CL =  0.8622
      Cm = -0.0870     CD =  0.01581   =>   CDf =  0.00786    CDp =  0.00795

 Side 1  free  transition at x/c =  0.4697   60
 Side 2 forced transition at x/c =  1.0000   73

   3   rms: 0.2653E-02   max: 0.2572E-01   C at   60  1
       a =  3.500      CL =  0.8625
      Cm = -0.0871     CD =  0.01596   =>   CDf =  0.00786    CDp =  0.00810

 Side 1  free  transition at x/c =  0.4680   60
 Side 2 forced transition at x/c =  1.0000   73

   4   rms: 0.1321E-03   max: -.1349E-02   C at   60  1
       a =  3.500      CL =  0.8625
      Cm = -0.0871     CD =  0.01596   =>   CDf =  0.00788    CDp =  0.00808

 Side 1  free  transition at x/c =  0.4680   60
 Side 2 forced transition at x/c =  1.0000   73

   5   rms: 0.2805E-05   max: -.1095E-04   D at   86  1
       a =  3.500      CL =  0.8625
      Cm = -0.0871     CD =  0.01596   =>   CDf =  0.00788    CDp =  0.00808
 plradd ia,ip,cpol           16           0  0.13739318    

 Point added to stored polar  1
 Point written to save file  goe681_Re150k.base.pol                          
 Dump file unspecified or not available
 Calculating wake trajectory ...
 Calculating source influence matrix ...

 Solving BL system ...

 Side 1  free  transition at x/c =  0.4680   60
 Side 2 forced transition at x/c =  1.0000   73

   1   rms: 0.6913E-01   max: 0.3175E+00   T at   60  1
       a =  4.000      CL =  0.8898
      Cm = -0.0816     CD =  0.01654   =>   CDf =  0.00781    CDp =  0.00873

 Side 1  free  transition at x/c =  0.4410   59
 Side 2 forced transition at x/c =  1.0000   72

   2   rms: 0.2571E-01   max: -.3376E+00   D at   60  1
       a =  4.000      CL =  0.8941
      Cm = -0.0824     CD =  0.01654   =>   CDf =  0.00825    CDp =  0.00828

 Side 1  free  transition at x/c =  0.4416   60
 Side 2 forced transition at x/c =  1.0000   72

   3   rms: 0.3151E-02   max: -.5674E-01   D at   59  1
       a =  4.000      CL =  0.8934
      Cm = -0.0824     CD =  0.01664   =>   CDf =  0.00830    CDp =  0.00834

 Side 1  free  transition at x/c =  0.4409   59
 Side 2 forced transition at x/c =  1.0000   72

   4   rms: 0.8780E-03   max: 0.1286E-01   D at   60  1
       a =  4.000      CL =  0.8930
      Cm = -0.0823     CD =  0.01663   =>   CDf =  0.00824    CDp =  0.00839

 Side 1  free  transition at x/c =  0.4405   59
 Side 2 forced transition at x/c =  1.0000   72

   5   rms: 0.9997E-05   max: 0.5236E-04   D at   61  1
       a =  4.000      CL =  0.8930
      Cm = -0.0823     CD =  0.01663   =>   CDf =  0.00823    CDp =  0.00839
 plradd ia,ip,cpol           17           0  0.13739318    

 Point added to stored polar  1
 Point written to save file  goe681_Re150k.base.pol                          
 Dump file unspecified or not available
 Calculating wake trajectory ...
 Calculating source influence matrix ...

 Solving BL system ...

 Side 1  free  transition at x/c =  0.4405   59
 Side 2 forced transition at x/c =  1.0000   72

   1   rms: 0.6495E-01   max: 0.3360E+00   T at   59  1
       a =  4.500      CL =  0.9158
      Cm = -0.0761     CD =  0.01727   =>   CDf =  0.00824    CDp =  0.00902

 Side 1  free  transition at x/c =  0.4126   58
 Side 2 forced transition at x/c =  1.0000   72

   2   rms: 0.2900E-01   max: -.2466E+00   D at   58  1
       a =  4.500      CL =  0.9227
      Cm = -0.0774     CD =  0.01726   =>   CDf =  0.00863    CDp =  0.00863

 Side 1  free  transition at x/c =  0.4185   58
 Side 2 forced transition at x/c =  1.0000   72

   3   rms: 0.3003E-02   max: 0.2397E-01   T at   59  1
       a =  4.500      CL =  0.9236
      Cm = -0.0776     CD =  0.01735   =>   CDf =  0.00841    CDp =  0.00894

 Side 1  free  transition at x/c =  0.4168   58
 Side 2 forced transition at x/c =  1.0000   72

   4   rms: 0.1597E-03   max: -.1405E-02   D at   58  1
       a =  4.500      CL =  0.9236
      Cm = -0.0776     CD =  0.01735   =>   CDf =  0.00843    CDp =  0.00892

 Side 1  free  transition at x/c =  0.4168   58
 Side 2 forced transition at x/c =  1.0000   72

   5   rms: 0.5248E-05   max: -.1960E-04   D at   85  1
       a =  4.500      CL =  0.9236
      Cm = -0.0776     CD =  0.01735   =>   CDf =  0.00843    CDp =  0.00892
 plradd ia,ip,cpol           18           0  0.13739318    

 Point added to stored polar  1
 Point written to save file  goe681_Re150k.base.pol                          
 Dump file unspecified or not available
 Calculating wake trajectory ...
 Calculating source influence matrix ...

 Solving BL system ...

 Side 1  free  transition at x/c =  0.4168   58
 Side 2 forced transition at x/c =  1.0000   72

   1   rms: 0.6436E-01   max: 0.3074E+00   T at   58  1
       a =  5.000      CL =  0.9531
      Cm = -0.0727     CD =  0.01807   =>   CDf =  0.00834    CDp =  0.00973

 Side 1  free  transition at x/c =  0.3966   58
 Side 2 forced transition at x/c =  1.0000   71

   2   rms: 0.1945E-01   max: -.1867E+00   D at   58  1
       a =  5.000      CL =  0.9564
      Cm = -0.0733     CD =  0.01809   =>   CDf =  0.00876    CDp =  0.00932

 Side 1  free  transition at x/c =  0.3980   58
 Side 2 forced transition at x/c =  1.0000   71

   3   rms: 0.1544E-02   max: 0.1146E-01   C at   58  1
       a =  5.000      CL =  0.9574
      Cm = -0.0735     CD =  0.01813   =>   CDf =  0.00862    CDp =  0.00951

 Side 1  free  transition at x/c =  0.3974   58
 Side 2 forced transition at x/c =  1.0000   71

   4   rms: 0.3056E-04   max: -.2231E-03   D at   58  1
       a =  5.000      CL =  0.9574
      Cm = -0.0735     CD =  0.01813   =>   CDf =  0.00863    CDp =  0.00950
 plradd ia,ip,cpol           19           0  0.12677632    

 Point added to stored polar  1
 Point written to save file  goe681_Re150k.base.pol                          
 Dump file unspecified or not available
 Calculating wake trajectory ...
 Calculating source influence matrix ...

 Solving BL system ...

 Side 1  free  transition at x/c =  0.3974   58
 Side 2 forced transition at x/c =  1.0000   71

   1   rms: 0.6506E-01   max: 0.2935E+00   T at   58  1
       a =  5.500      CL =  0.9907
      Cm = -0.0694     CD =  0.01891   =>   CDf =  0.00853    CDp =  0.01038

 Side 1  free  transition at x/c =  0.3822   58
 Side 2 forced transition at x/c =  1.0000   70

   2   rms: 0.1492E-01   max: -.1197E+00   D at   58  1
       a =  5.500      CL =  0.9942
      Cm = -0.0701     CD =  0.01897   =>   CDf =  0.00892    CDp =  0.01005

 Side 1  free  transition at x/c =  0.3822   58
 Side 2 forced transition at x/c =  1.0000   70

   3   rms: 0.1045E-02   max: -.4816E-02   D at    4  1
       a =  5.500      CL =  0.9953
      Cm = -0.0704     CD =  0.01900   =>   CDf =  0.00882    CDp =  0.01018

 Side 1  free  transition at x/c =  0.3819   58
 Side 2 forced transition at x/c =  1.0000   70

   4   rms: 0.2282E-04   max: 0.7043E-04   D at   77  2
       a =  5.500      CL =  0.9953
      Cm = -0.0704     CD =  0.01900   =>   CDf =  0.00882    CDp =  0.01017
 plradd ia,ip,cpol           20           0  0.12677632    

 Point added to stored polar  1
 Point written to save file  goe681_Re150k.base.pol                          
 Dump file unspecified or not available
 Calculating wake trajectory ...
 Calculating source influence matrix ...

 Solving BL system ...

 Side 1  free  transition at x/c =  0.3819   58
 Side 2 forced transition at x/c =  1.0000   70

   1   rms: 0.6382E-01   max: 0.2579E+00   T at   58  1
       a =  6.000      CL =  1.0295
      Cm = -0.0665     CD =  0.01982   =>   CDf =  0.00883    CDp =  0.01099

 Side 1  free  transition at x/c =  0.3682   57
 Side 2 forced transition at x/c =  1.0000   70

   2   rms: 0.2132E-01   max: -.1701E+00   D at   58  1
       a =  6.000      CL =  1.0390
      Cm = -0.0683     CD =  0.01993   =>   CDf =  0.00911    CDp =  0.01081

 Side 1  free  transition at x/c =  0.3690   57
 Side 2 forced transition at x/c =  1.0000   70

   3   rms: 0.1152E-02   max: 0.1388E-01   D at   58  1
       a =  6.000      CL =  1.0397
      Cm = -0.0685     CD =  0.01997   =>   CDf =  0.00907    CDp =  0.01090

 Side 1  free  transition at x/c =  0.3689   57
 Side 2 forced transition at x/c =  1.0000   70

   4   rms: 0.6122E-04   max: 0.2245E-03   D at   78  2
       a =  6.000      CL =  1.0396
      Cm = -0.0685     CD =  0.01997   =>   CDf =  0.00906    CDp =  0.01090
 plradd ia,ip,cpol           21           0  0.12677632    

 Point added to stored polar  1
 Point written to save file  goe681_Re150k.base.pol                          
 Dump file unspecified or not available
 Calculating wake trajectory ...
 Calculating source influence matrix ...

 Solving BL system ...

 Side 1  free  transition at x/c =  0.3689   57
 Side 2 forced transition at x/c =  1.0000   70

   1   rms: 0.6103E-01   max: 0.2627E+00   T at   57  1
       a =  6.500      CL =  1.0662
      Cm = -0.0633     CD =  0.02076   =>   CDf =  0.00894    CDp =  0.01182

 Side 1  free  transition at x/c =  0.3562   58
 Side 2 forced transition at x/c =  1.0000   69

   2   rms: 0.1997E-01   max: -.1068E+00   D at   58  1
       a =  6.500      CL =  1.0744
      Cm = -0.0648     CD =  0.02079   =>   CDf =  0.00912    CDp =  0.01167

 Side 1  free  transition at x/c =  0.3574   58
 Side 2 forced transition at x/c =  1.0000   69

   3   rms: 0.1137E-02   max: 0.5875E-02   C at   69  2
       a =  6.500      CL =  1.0756
      Cm = -0.0650     CD =  0.02084   =>   CDf =  0.00904    CDp =  0.01180

 Side 1  free  transition at x/c =  0.3573   58
 Side 2 forced transition at x/c =  1.0000   69

   4   rms: 0.9915E-05   max: 0.2389E-04   D at   71  2
       a =  6.500      CL =  1.0756
      Cm = -0.0650     CD =  0.02084   =>   CDf =  0.00905    CDp =  0.01179
 plradd ia,ip,cpol           22           0  0.12677632    

 Point added to stored polar  1
 Point written to save file  goe681_Re150k.base.pol                          
 Dump file unspecified or not available
 Calculating wake trajectory ...
 Calculating source influence matrix ...

 Solving BL system ...

 Side 1  free  transition at x/c =  0.3573   58
 Side 2 forced transition at x/c =  1.0000   69

   1   rms: 0.6809E-01   max: 0.2956E+00   T at   58  1
       a =  7.000      CL =  1.1197
      Cm = -0.0632     CD =  0.02179   =>   CDf =  0.00891    CDp =  0.01289

 Side 1  free  transition at x/c =  0.3481   58
 Side 2 forced transition at x/c =  1.0000   68

   2   rms: 0.9375E-02   max: -.8663E-01   D at   58  1
       a =  7.000      CL =  1.1182
      Cm = -0.0630     CD =  0.02190   =>   CDf =  0.00920    CDp =  0.01271

 Side 1  free  transition at x/c =  0.3472   58
 Side 2 forced transition at x/c =  1.0000   68

   3   rms: 0.8418E-03   max: 0.4826E-02   D at    4  1
       a =  7.000      CL =  1.1191
      Cm = -0.0632     CD =  0.02191   =>   CDf =  0.00913    CDp =  0.01277

 Side 1  free  transition at x/c =  0.3471   58
 Side 2 forced transition at x/c =  1.0000   68

   4   rms: 0.2082E-04   max: 0.6624E-04   D at   88  1
       a =  7.000      CL =  1.1191
      Cm = -0.0632     CD =  0.02191   =>   CDf =  0.00913    CDp =  0.01277
 plradd ia,ip,cpol           23           0  0.11664220    

 Point added to stored polar  1
 Point written to save file  goe681_Re150k.base.pol                          
 Dump file unspecified or not available
 Calculating wake trajectory ...
 Calculating source influence matrix ...

 Solving BL system ...

 Side 1  free  transition at x/c =  0.3471   58
 Side 2 forced transition at x/c =  1.0000   68

   1   rms: 0.6207E-01   max: -.1037E+00   C at   68  2
       a =  7.500      CL =  1.1524
      Cm = -0.0594     CD =  0.02288   =>   CDf =  0.00915    CDp =  0.01374

 Side 1  free  transition at x/c =  0.3379   58
 Side 2 forced transition at x/c =  1.0000   68

   2   rms: 0.1476E-01   max: -.7424E-01   D at   58  1
       a =  7.500      CL =  1.1603
      Cm = -0.0609     CD =  0.02289   =>   CDf =  0.00919    CDp =  0.01370

 Side 1  free  transition at x/c =  0.3382   58
 Side 2 forced transition at x/c =  1.0000   68

   3   rms: 0.3827E-03   max: 0.2228E-02   C at   68  2
       a =  7.500      CL =  1.1607
      Cm = -0.0610     CD =  0.02292   =>   CDf =  0.00916    CDp =  0.01376

 Side 1  free  transition at x/c =  0.3382   58
 Side 2 forced transition at x/c =  1.0000   68

   4   rms: 0.6776E-05   max: -.1585E-04   D at   67  2
       a =  7.500      CL =  1.1607
      Cm = -0.0610     CD =  0.02292   =>   CDf =  0.00916    CDp =  0.01376
 plradd ia,ip,cpol           24           0  0.11664220    

 Point added to stored polar  1
 Point written to save file  goe681_Re150k.base.pol                          
 Dump file unspecified or not available
 Calculating wake trajectory ...
 Calculating source influence matrix ...

 Solving BL system ...

 Side 1  free  transition at x/c =  0.3382   58
 Side 2 forced transition at x/c =  1.0000   68

   1   rms: 0.7145E-01   max: 0.5927E-01   D at   85  2
       a =  8.000      CL =  1.2127
      Cm = -0.0607     CD =  0.02402   =>   CDf =  0.00900    CDp =  0.01503

 Side 1  free  transition at x/c =  0.3316   58
 Side 2 forced transition at x/c =  1.0000   67

   2   rms: 0.7113E-02   max: 0.5015E-01   D at   59  1
       a =  8.000      CL =  1.2084
      Cm = -0.0601     CD =  0.02422   =>   CDf =  0.00925    CDp =  0.01497

 Side 1  free  transition at x/c =  0.3308   58
 Side 2 forced transition at x/c =  1.0000   67

   3   rms: 0.8456E-03   max: -.7112E-02   D at    4  1
       a =  8.000      CL =  1.2089
      Cm = -0.0602     CD =  0.02422   =>   CDf =  0.00920    CDp =  0.01501

 Side 1  free  transition at x/c =  0.3308   58
 Side 2 forced transition at x/c =  1.0000   67

   4   rms: 0.2675E-04   max: 0.8223E-04   D at   90  1
       a =  8.000      CL =  1.2089
      Cm = -0.0602     CD =  0.02421   =>   CDf =  0.00920    CDp =  0.01501
 plradd ia,ip,cpol           25           0  0.11664220    

 Point added to stored polar  1
 Point written to save file  goe681_Re150k.base.pol                          
 Dump file unspecified or not available
 Calculating wake trajectory ...
 Calculating source influence matrix ...

 Solving BL system ...

 Side 1  free  transition at x/c =  0.3308   58
 Side 2 forced transition at x/c =  1.0000   67

   1   rms: 0.6088E-01   max: -.9780E-01   C at   67  2
       a =  8.500      CL =  1.2388
      Cm = -0.0561     CD =  0.02535   =>   CDf =  0.00902    CDp =  0.01633

 Side 1  free  transition at x/c =  0.3233   59
 Side 2 forced transition at x/c =  1.0000   66

   2   rms: 0.1404E-01   max: -.8439E-01   D at   60  1
       a =  8.500      CL =  1.2434
      Cm = -0.0569     CD =  0.02533   =>   CDf =  0.00908    CDp =  0.01625

 Side 1  free  transition at x/c =  0.3236   59
 Side 2 forced transition at x/c =  1.0000   66

   3   rms: 0.6145E-03   max: -.4623E-02   D at    4  1
       a =  8.500      CL =  1.2440
      Cm = -0.0570     CD =  0.02535   =>   CDf =  0.00907    CDp =  0.01628

 Side 1  free  transition at x/c =  0.3236   59
 Side 2 forced transition at x/c =  1.0000   66

   4   rms: 0.1783E-04   max: 0.5332E-04   D at   90  1
       a =  8.500      CL =  1.2440
      Cm = -0.0570     CD =  0.02535   =>   CDf =  0.00907    CDp =  0.01628
 plradd ia,ip,cpol           26           0  0.11664220    

 Point added to stored polar  1
 Point written to save file  goe681_Re150k.base.pol                          
 Dump file unspecified or not available
 Calculating wake trajectory ...
 Calculating source influence matrix ...

 Solving BL system ...

 Side 1  free  transition at x/c =  0.3236   59
 Side 2 forced transition at x/c =  1.0000   66

   1   rms: 0.6533E-01   max: -.6004E-01   C at   66  2
       a =  9.000      CL =  1.2864
      Cm = -0.0552     CD =  0.02650   =>   CDf =  0.00908    CDp =  0.01742

 Side 1  free  transition at x/c =  0.3167   59
 Side 2 forced transition at x/c =  1.0000   66

   2   rms: 0.2097E-01   max: -.1077E+00   D at   59  1
       a =  9.000      CL =  1.2982
      Cm = -0.0574     CD =  0.02660   =>   CDf =  0.00918    CDp =  0.01741

 Side 1  free  transition at x/c =  0.3167   59
 Side 2 forced transition at x/c =  1.0000   66

   3   rms: 0.5388E-03   max: 0.3673E-02   D at   59  1
       a =  9.000      CL =  1.2979
      Cm = -0.0573     CD =  0.02666   =>   CDf =  0.00919    CDp =  0.01747

 Side 1  free  transition at x/c =  0.3167   59
 Side 2 forced transition at x/c =  1.0000   66

   4   rms: 0.2443E-04   max: 0.8840E-04   D at   73  2
       a =  9.000      CL =  1.2979
      Cm = -0.0573     CD =  0.02666   =>   CDf =  0.00919    CDp =  0.01747
 plradd ia,ip,cpol           27           0  0.10697623    

 Point added to stored polar  1
 Point written to save file  goe681_Re150k.base.pol                          
 Dump file unspecified or not available
 Calculating wake trajectory ...
 Calculating source influence matrix ...

 Solving BL system ...

 Side 1  free  transition at x/c =  0.3167   59
 Side 2 forced transition at x/c =  1.0000   66

   1   rms: 0.8748E-01   max: 0.3420E+00   T at   59  1
       a =  9.500      CL =  1.3726
      Cm = -0.0615     CD =  0.02866   =>   CDf =  0.00899    CDp =  0.01967

 Side 1  free  transition at x/c =  0.3118   59
 Side 2 forced transition at x/c =  1.0000   65

   2   rms: 0.3957E-01   max: 0.1804E+00   D at   60  1
       a =  9.500      CL =  1.3335
      Cm = -0.0547     CD =  0.02823   =>   CDf =  0.00902    CDp =  0.01921

 Side 1  free  transition at x/c =  0.3114   59
 Side 2 forced transition at x/c =  1.0000   65

   3   rms: 0.5284E-02   max: 0.3295E-01   D at   60  1
       a =  9.500      CL =  1.3304
      Cm = -0.0541     CD =  0.02819   =>   CDf =  0.00899    CDp =  0.01920

 Side 1  free  transition at x/c =  0.3114   59
 Side 2 forced transition at x/c =  1.0000   65

   4   rms: 0.2606E-03   max: 0.1039E-02   D at   72  2
       a =  9.500      CL =  1.3302
      Cm = -0.0541     CD =  0.02818   =>   CDf =  0.00898    CDp =  0.01920

 Side 1  free  transition at x/c =  0.3114   59
 Side 2 forced transition at x/c =  1.0000   65

   5   rms: 0.2934E-05   max: 0.8472E-05   D at   90  1
       a =  9.500      CL =  1.3302
      Cm = -0.0541     CD =  0.02818   =>   CDf =  0.00898    CDp =  0.01920
 plradd ia,ip,cpol           28           0  0.10697623    

 Point added to stored polar  1
 Point written to save file  goe681_Re150k.base.pol                          
 Dump file unspecified or not available
 Calculating wake trajectory ...
 Calculating source influence matrix ...

 Solving BL system ...

 Side 1  free  transition at x/c =  0.3114   59
 Side 2 forced transition at x/c =  1.0000   65

   1   rms: 0.5972E-01   max: 0.8484E-01   D at   75  2
       a = 10.000      CL =  1.3573
      Cm = -0.0499     CD =  0.02967   =>   CDf =  0.00899    CDp =  0.02068

 Side 1  free  transition at x/c =  0.3058   59
 Side 2 forced transition at x/c =  1.0000   65

   2   rms: 0.9216E-02   max: -.5549E-01   D at   60  1
       a = 10.000      CL =  1.3605
      Cm = -0.0505     CD =  0.02962   =>   CDf =  0.00879    CDp =  0.02084

 Side 1  free  transition at x/c =  0.3059   59
 Side 2 forced transition at x/c =  1.0000   65

   3   rms: 0.3797E-03   max: 0.2083E-02   D at   60  1
       a = 10.000      CL =  1.3609
      Cm = -0.0506     CD =  0.02964   =>   CDf =  0.00880    CDp =  0.02084

 Side 1  free  transition at x/c =  0.3059   59
 Side 2 forced transition at x/c =  1.0000   65

   4   rms: 0.1542E-04   max: 0.4468E-04   D at   90  1
       a = 10.000      CL =  1.3609
      Cm = -0.0506     CD =  0.02964   =>   CDf =  0.00879    CDp =  0.02084
 plradd ia,ip,cpol           29           0  0.10697623    

 Point added to stored polar  1
 Point written to save file  goe681_Re150k.base.pol                          
 Dump file unspecified or not available

.OPERva   c>  
 Solving BL system ...

 Side 1  free  transition at x/c =  0.3059   59
 Side 2 forced transition at x/c =  1.0000   65

   1   rms: 0.3653E-06   max: 0.2774E-05   T at   59  1
       a = 10.000      CL =  1.3609
      Cm = -0.0506     CD =  0.02964   =>   CDf =  0.00879    CDp =  0.02084
 plradd ia,ip,cpol           30         182  0.10697623    

 Point added to stored polar  1
 Point written to save file  goe681_Re150k.base.pol                          
 Dump file unspecified or not available
 Calculating wake trajectory ...
 Calculating source influence matrix ...

 Solving BL system ...

 Side 1  free  transition at x/c =  0.3059   59
 Side 2 forced transition at x/c =  1.0000   65

   1   rms: 0.3146E-01   max: 0.3381E-01   D at   77  2
       a = 10.250      CL =  1.3794
      Cm = -0.0494     CD =  0.03036   =>   CDf =  0.00856    CDp =  0.02179

 Side 1  free  transition at x/c =  0.3030   60
 Side 2 forced transition at x/c =  1.0000   64

   2   rms: 0.4727E-02   max: -.2178E-01   D at   60  1
       a = 10.250      CL =  1.3810
      Cm = -0.0497     CD =  0.03032   =>   CDf =  0.00876    CDp =  0.02156

 Side 1  free  transition at x/c =  0.3031   60
 Side 2 forced transition at x/c =  1.0000   64

   3   rms: 0.5098E-03   max: -.5628E-02   D at    4  1
       a = 10.250      CL =  1.3812
      Cm = -0.0497     CD =  0.03032   =>   CDf =  0.00876    CDp =  0.02156

 Side 1  free  transition at x/c =  0.3031   60
 Side 2 forced transition at x/c =  1.0000   64

   4   rms: 0.1027E-05   max: 0.3974E-05   D at   77  2
       a = 10.250      CL =  1.3812
      Cm = -0.0497     CD =  0.03032   =>   CDf =  0.00876    CDp =  0.02156
 plradd ia,ip,cpol           31           0  9.77758765E-02

 Point added to stored polar  1
 Point written to save file  goe681_Re150k.base.pol                          
 Dump file unspecified or not available
 Calculating wake trajectory ...
 Calculating source influence matrix ...

 Solving BL system ...

 Side 1  free  transition at x/c =  0.3031   60
 Side 2 forced transition at x/c =  1.0000   64

   1   rms: 0.3360E-01   max: 0.2796E-01   D at   80  2
       a = 10.500      CL =  1.4045
      Cm = -0.0493     CD =  0.03100   =>   CDf =  0.00877    CDp =  0.02223

 Side 1  free  transition at x/c =  0.3000   60
 Side 2 forced transition at x/c =  1.0000   64

   2   rms: 0.9413E-02   max: -.4786E-01   D at   60  1
       a = 10.500      CL =  1.4084
      Cm = -0.0500     CD =  0.03099   =>   CDf =  0.00880    CDp =  0.02219

 Side 1  free  transition at x/c =  0.3001   60
 Side 2 forced transition at x/c =  1.0000   64

   3   rms: 0.2856E-03   max: -.1207E-02   D at   72  2
       a = 10.500      CL =  1.4087
      Cm = -0.0500     CD =  0.03100   =>   CDf =  0.00881    CDp =  0.02219

 Side 1  free  transition at x/c =  0.3001   60
 Side 2 forced transition at x/c =  1.0000   64

   4   rms: 0.3146E-05   max: 0.8775E-05   D at   91  1
       a = 10.500      CL =  1.4087
      Cm = -0.0500     CD =  0.03100   =>   CDf =  0.00881    CDp =  0.02219
 plradd ia,ip,cpol           32           0  9.77758765E-02

 Point added to stored polar  1
 Point written to save file  goe681_Re150k.base.pol                          
 Dump file unspecified or not available
 Calculating wake trajectory ...
 Calculating source influence matrix ...

 Solving BL system ...

 Side 1  free  transition at x/c =  0.3001   60
 Side 2 forced transition at x/c =  1.0000   64

   1   rms: 0.3993E-01   max: 0.1514E+00   T at   60  1
       a = 10.750      CL =  1.4415
      Cm = -0.0513     CD =  0.03184   =>   CDf =  0.00882    CDp =  0.02302

 Side 1  free  transition at x/c =  0.2973   59
 Side 2 forced transition at x/c =  1.0000   64

   2   rms: 0.2543E-02   max: 0.1387E-01   D at   60  1
       a = 10.750      CL =  1.4389
      Cm = -0.0511     CD =  0.03213   =>   CDf =  0.00886    CDp =  0.02327

 Side 1  free  transition at x/c =  0.2971   59
 Side 2 forced transition at x/c =  1.0000   64

   3   rms: 0.7100E-04   max: 0.2697E-03   D at   76  2
       a = 10.750      CL =  1.4389
      Cm = -0.0511     CD =  0.03213   =>   CDf =  0.00885    CDp =  0.02328
 plradd ia,ip,cpol           33           0  5.34086600E-02

 Point added to stored polar  1
 Point written to save file  goe681_Re150k.base.pol                          
 Dump file unspecified or not available
 Calculating wake trajectory ...
 Calculating source influence matrix ...

 Solving BL system ...

 Side 1  free  transition at x/c =  0.2971   59
 Side 2 forced transition at x/c =  1.0000   64

   1   rms: 0.2726E-01   max: 0.1114E+00   T at   59  1
       a = 11.000      CL =  1.4400
      Cm = -0.0471     CD =  0.03288   =>   CDf =  0.00860    CDp =  0.02428

 Side 1  free  transition at x/c =  0.2948   60
 Side 2 forced transition at x/c =  1.0000   63

   2   rms: 0.4913E-02   max: -.7456E-01   D at    2  1
       a = 11.000      CL =  1.4398
      Cm = -0.0471     CD =  0.03290   =>   CDf =  0.00864    CDp =  0.02426

 Side 1  free  transition at x/c =  0.2948   60
 Side 2 forced transition at x/c =  1.0000   63

   3   rms: 0.2434E-02   max: -.3277E-01   D at    4  1
       a = 11.000      CL =  1.4399
      Cm = -0.0471     CD =  0.03290   =>   CDf =  0.00864    CDp =  0.02426

 Side 1  free  transition at x/c =  0.2948   60
 Side 2 forced transition at x/c =  1.0000   63

   4   rms: 0.2082E-04   max: 0.2577E-03   D at    8  1
       a = 11.000      CL =  1.4399
      Cm = -0.0471     CD =  0.03290   =>   CDf =  0.00864    CDp =  0.02426
 plradd ia,ip,cpol           34           0  5.34086600E-02

 Point added to stored polar  1
 Point written to save file  goe681_Re150k.base.pol                          
 Dump file unspecified or not available
 Calculating wake trajectory ...
 Calculating source influence matrix ...

 Solving BL system ...

 Side 1  free  transition at x/c =  0.2948   60
 Side 2 forced transition at x/c =  1.0000   63

   1   rms: 0.3081E-01   max: -.1788E+00   D at    4  1
       a = 11.250      CL =  1.4419
      Cm = -0.0435     CD =  0.03378   =>   CDf =  0.00865    CDp =  0.02513

 Side 1  free  transition at x/c =  0.2921   60
 Side 2 forced transition at x/c =  1.0000   63

   2   rms: 0.2743E-02   max: 0.1767E-01   D at    6  1
       a = 11.250      CL =  1.4414
      Cm = -0.0434     CD =  0.03372   =>   CDf =  0.00848    CDp =  0.02524

 Side 1  free  transition at x/c =  0.2922   60
 Side 2 forced transition at x/c =  1.0000   63

   3   rms: 0.1226E-03   max: -.5532E-03   D at   99  1
       a = 11.250      CL =  1.4416
      Cm = -0.0434     CD =  0.03373   =>   CDf =  0.00849    CDp =  0.02524

 Side 1  free  transition at x/c =  0.2922   60
 Side 2 forced transition at x/c =  1.0000   63

   4   rms: 0.1175E-05   max: 0.5130E-05   D at   60  1
       a = 11.250      CL =  1.4416
      Cm = -0.0434     CD =  0.03373   =>   CDf =  0.00849    CDp =  0.02524
 plradd ia,ip,cpol           35           0  5.34086600E-02

 Point added to stored polar  1
 Point written to save file  goe681_Re150k.base.pol                          
 Dump file unspecified or not available
 Calculating wake trajectory ...
 Calculating source influence matrix ...

 Solving BL system ...

 Side 1  free  transition at x/c =  0.2922   60
 Side 2 forced transition at x/c =  1.0000   63

   1   rms: 0.2860E-01   max: -.1243E+00   D at    3  1
       a = 11.500      CL =  1.4449
      Cm = -0.0400     CD =  0.03466   =>   CDf =  0.00850    CDp =  0.02616

 Side 1  free  transition at x/c =  0.2894   60
 Side 2 forced transition at x/c =  1.0000   63

   2   rms: 0.3858E-02   max: -.2096E-01   D at   61  1
       a = 11.500      CL =  1.4455
      Cm = -0.0401     CD =  0.03458   =>   CDf =  0.00836    CDp =  0.02621

 Side 1  free  transition at x/c =  0.2895   60
 Side 2 forced transition at x/c =  1.0000   63

   3   rms: 0.2839E-03   max: -.1218E-02   D at   98  1
       a = 11.500      CL =  1.4458
      Cm = -0.0401     CD =  0.03458   =>   CDf =  0.00837    CDp =  0.02621

 Side 1  free  transition at x/c =  0.2895   60
 Side 2 forced transition at x/c =  1.0000   63

   4   rms: 0.1098E-05   max: 0.1152E-04   C at   63  2
       a = 11.500      CL =  1.4458
      Cm = -0.0401     CD =  0.03458   =>   CDf =  0.00837    CDp =  0.02621
 plradd ia,ip,cpol           36           0  5.34086600E-02

 Point added to stored polar  1
 Point written to save file  goe681_Re150k.base.pol                          
 Dump file unspecified or not available
 Calculating wake trajectory ...
 Calculating source influence matrix ...

 Solving BL system ...

 Side 1  free  transition at x/c =  0.2895   60
 Side 2 forced transition at x/c =  1.0000   63

   1   rms: 0.2742E-01   max: 0.1015E+00   T at   60  1   RLX: 0.958
       a = 11.750      CL =  1.4521
      Cm = -0.0375     CD =  0.03541   =>   CDf =  0.00838    CDp =  0.02703

 Side 1  free  transition at x/c =  0.2866   60
 Side 2 forced transition at x/c =  1.0000   63

   2   rms: 0.5494E-02   max: -.2705E-01   D at   61  1
       a = 11.750      CL =  1.4547
      Cm = -0.0377     CD =  0.03533   =>   CDf =  0.00830    CDp =  0.02703

 Side 1  free  transition at x/c =  0.2866   60
 Side 2 forced transition at x/c =  1.0000   63

   3   rms: 0.4659E-03   max: -.1852E-02   D at   97  1
       a = 11.750      CL =  1.4552
      Cm = -0.0378     CD =  0.03533   =>   CDf =  0.00830    CDp =  0.02703

 Side 1  free  transition at x/c =  0.2865   60
 Side 2 forced transition at x/c =  1.0000   63

   4   rms: 0.3811E-05   max: -.1482E-04   D at   78  2
       a = 11.750      CL =  1.4552
      Cm = -0.0378     CD =  0.03533   =>   CDf =  0.00830    CDp =  0.02703
 plradd ia,ip,cpol           37           0  9.80782509E-03

 Point added to stored polar  1
 Point written to save file  goe681_Re150k.base.pol                          
 Dump file unspecified or not available
 Calculating wake trajectory ...
 Calculating source influence matrix ...

 Solving BL system ...

 Side 1  free  transition at x/c =  0.2865   60
 Side 2 forced transition at x/c =  1.0000   63

   1   rms: 0.2896E-01   max: 0.1214E+00   T at   60  1   RLX: 0.934
       a = 12.000      CL =  1.4679
      Cm = -0.0362     CD =  0.03594   =>   CDf =  0.00803    CDp =  0.02791

 Side 1  free  transition at x/c =  0.2835   61
 Side 2 forced transition at x/c =  1.0000   62

   2   rms: 0.1227E-01   max: -.3949E-01   D at   97  1
       a = 12.000      CL =  1.4780
      Cm = -0.0374     CD =  0.03579   =>   CDf =  0.00831    CDp =  0.02748

 Side 1  free  transition at x/c =  0.2832   61
 Side 2 forced transition at x/c =  1.0000   62

   3   rms: 0.8912E-03   max: -.3356E-02   D at   71  2
       a = 12.000      CL =  1.4789
      Cm = -0.0375     CD =  0.03581   =>   CDf =  0.00834    CDp =  0.02747

 Side 1  free  transition at x/c =  0.2832   61
 Side 2 forced transition at x/c =  1.0000   62

   4   rms: 0.1289E-04   max: -.4607E-04   D at   71  2
       a = 12.000      CL =  1.4789
      Cm = -0.0375     CD =  0.03581   =>   CDf =  0.00834    CDp =  0.02747
 plradd ia,ip,cpol           38           0  9.80782509E-03

 Point added to stored polar  1
 Point written to save file  goe681_Re150k.base.pol                          
 Dump file unspecified or not available
 Calculating wake trajectory ...
 Calculating source influence matrix ...

 Solving BL system ...

 Side 1  free  transition at x/c =  0.2832   61
 Side 2 forced transition at x/c =  1.0000   62

   1   rms: 0.4142E-01   max: 0.1753E+00   T at   61  1   RLX: 0.960
       a = 12.250      CL =  1.5120
      Cm = -0.0388     CD =  0.03623   =>   CDf =  0.00835    CDp =  0.02788

 Side 1  free  transition at x/c =  0.2802   61
 Side 2 forced transition at x/c =  1.0000   62

   2   rms: 0.2026E-01   max: 0.7895E-01   T at   61  1
       a = 12.250      CL =  1.5355
      Cm = -0.0427     CD =  0.03693   =>   CDf =  0.00844    CDp =  0.02849

 Side 1  free  transition at x/c =  0.2792   60
 Side 2 forced transition at x/c =  1.0000   62

   3   rms: 0.1756E-01   max: 0.8207E-01   D at  100  1
       a = 12.250      CL =  1.5212
      Cm = -0.0404     CD =  0.03681   =>   CDf =  0.00845    CDp =  0.02837

 Side 1  free  transition at x/c =  0.2795   60
 Side 2 forced transition at x/c =  1.0000   62

   4   rms: 0.2300E-02   max: 0.1241E-01   D at   99  1
       a = 12.250      CL =  1.5192
      Cm = -0.0401     CD =  0.03680   =>   CDf =  0.00844    CDp =  0.02836

 Side 1  free  transition at x/c =  0.2795   60
 Side 2 forced transition at x/c =  1.0000   62

   5   rms: 0.2617E-04   max: 0.2852E-03   D at   99  1
       a = 12.250      CL =  1.5192
      Cm = -0.0401     CD =  0.03680   =>   CDf =  0.00845    CDp =  0.02836
 plradd ia,ip,cpol           39           0  9.80782509E-03

 Point added to stored polar  1
 Point written to save file  goe681_Re150k.base.pol                          
 Dump file unspecified or not available
 Calculating wake trajectory ...
 Calculating source influence matrix ...

 Solving BL system ...

 Side 1  free  transition at x/c =  0.2795   60
 Side 2 forced transition at x/c =  1.0000   62

   1   rms: 0.2744E-01   max: 0.1006E+00   T at   60  1   RLX: 0.894
       a = 12.500      CL =  1.5069
      Cm = -0.0348     CD =  0.03767   =>   CDf =  0.00845    CDp =  0.02922

 Side 1  free  transition at x/c =  0.2780   60
 Side 2 forced transition at x/c =  1.0000   62

   2   rms: 0.2930E-02   max: 0.2096E-01   D at   98  1
       a = 12.500      CL =  1.5063
      Cm = -0.0346     CD =  0.03786   =>   CDf =  0.00825    CDp =  0.02961

 Side 1  free  transition at x/c =  0.2777   60
 Side 2 forced transition at x/c =  1.0000   62

   3   rms: 0.4940E-04   max: 0.4793E-03   D at   66  2
       a = 12.500      CL =  1.5063
      Cm = -0.0346     CD =  0.03785   =>   CDf =  0.00823    CDp =  0.02962
 plradd ia,ip,cpol           40           0  9.80782509E-03

 Point added to stored polar  1
 Point written to save file  goe681_Re150k.base.pol                          
 Dump file unspecified or not available
 Calculating wake trajectory ...
 Calculating source influence matrix ...

 Solving BL system ...

 Side 1  free  transition at x/c =  0.2777   60
 Side 2 forced transition at x/c =  1.0000   62

   1   rms: 0.2941E-01   max: 0.1341E+00   D at    3  2   RLX: 0.836
[...]
 idif Ue xi dudx           1  8.24844316E-02  5.96475601E-03   13.828634    
 Uenew xinew           2  2.21047588E-02  1.59847736E-03

 100   rms: 0.1308E+00   max: 0.5090E+00   D at   85  1
       a = 16.000      CL =  1.4007
      Cm = -0.0044     CD =  0.06882   =>   CDf =  0.00705    CDp =  0.06176

 Side 1  free  transition at x/c =  0.2391   60
 Side 2 forced transition at x/c =  1.0000   60

 101   rms: 0.3195E+00   max: -.1083E+01   D at   75  1   RLX: 0.462
       a = 16.000      CL =  1.5310
      Cm = -0.0055     CD =  0.05151   =>   CDf =  0.00608    CDp =  0.04542

 Side 1  free  transition at x/c =  0.2390   61
 Side 2 forced transition at x/c =  1.0000   59
 idif Ue xi dudx           1  7.85334408E-02  5.74529171E-03   13.669183    
 Uenew xinew           2  1.88499819E-02  1.37901306E-03

 102   rms: 0.1351E+00   max: 0.5366E+00   D at   86  1
       a = 16.000      CL =  1.4093
      Cm = -0.0043     CD =  0.06789   =>   CDf =  0.00709    CDp =  0.06080

 Side 1  free  transition at x/c =  0.2392   60
 Side 2 forced transition at x/c =  1.0000   60

 103   rms: 0.6030E+00   max: -.1970E+01   D at   76  1   RLX: 0.254
       a = 16.000      CL =  1.5463
      Cm = -0.0065     CD =  0.05028   =>   CDf =  0.00611    CDp =  0.04417

 Side 1  free  transition at x/c =  0.2388   61
 Side 2 forced transition at x/c =  1.0000   59
 idif Ue xi dudx           1  7.16459751E-02  5.35333157E-03   13.383437    
 Uenew xinew           2  1.32101607E-02  9.87052917E-04

 104   rms: 0.1333E+00   max: 0.5644E+00   D at   86  1
       a = 16.000      CL =  1.4245
      Cm = -0.0043     CD =  0.06635   =>   CDf =  0.00712    CDp =  0.05923

 Side 1  free  transition at x/c =  0.2390   60
 Side 2 forced transition at x/c =  1.0000   60

 105   rms: 0.2294E+01   max: -.8495E+01   T at    2  2   RLX: 0.059
       a = 16.000      CL =  1.3234
      Cm = -0.0093     CD =  0.07821   =>   CDf =  0.00649    CDp =  0.07172

 Side 1  free  transition at x/c =  0.2394   60
 Side 2 forced transition at x/c =  1.0000   60

 106   rms: 0.1089E+00   max: -.4677E+00   D at   72  1
       a = 16.000      CL =  1.4012
      Cm = -0.0019     CD =  0.06327   =>   CDf =  0.00623    CDp =  0.05704

 Side 1  free  transition at x/c =  0.2409   60
 Side 2 forced transition at x/c =  1.0000   60

 107   rms: 0.5781E+00   max: -.1950E+01   D at   76  1   RLX: 0.256
       a = 16.000      CL =  1.5371
      Cm = -0.0050     CD =  0.05122   =>   CDf =  0.00613    CDp =  0.04509

 Side 1  free  transition at x/c =  0.2403   61
 Side 2 forced transition at x/c =  1.0000   59
 idif Ue xi dudx           1  7.41112158E-02  5.49137592E-03   13.495929    
 Uenew xinew           2  1.51842330E-02  1.12509727E-03

 108   rms: 0.1276E+00   max: 0.4790E+00   D at   86  1
       a = 16.000      CL =  1.4191
      Cm = -0.0045     CD =  0.06689   =>   CDf =  0.00713    CDp =  0.05977

 Side 1  free  transition at x/c =  0.2393   60
 Side 2 forced transition at x/c =  1.0000   60

 109   rms: 0.3786E+01   max: 0.1227E+02   T at    2  2   RLX: 0.042
       a = 16.000      CL =  1.5616
      Cm = -0.0079     CD =  0.04902   =>   CDf =  0.00613    CDp =  0.04289

 Side 1  free  transition at x/c =  0.2387   61
 Side 2 forced transition at x/c =  1.0000   59
 idif Ue xi dudx           1  6.90601692E-02  5.20157814E-03   13.276772    
 Uenew xinew           2  1.10900812E-02  8.35299492E-04

 110   rms: 0.1423E+00   max: 0.5722E+00   D at   86  1
       a = 16.000      CL =  1.4303
      Cm = -0.0042     CD =  0.06568   =>   CDf =  0.00715    CDp =  0.05853

 Side 1  free  transition at x/c =  0.2392   60
 Side 2 forced transition at x/c =  1.0000   60

 111   rms: 0.6724E+00   max: -.3014E+01   D at    2  2   RLX: 0.166
       a = 16.000      CL =  1.3481
      Cm = -0.0082     CD =  0.07502   =>   CDf =  0.00652    CDp =  0.06850

 Side 1  free  transition at x/c =  0.2394   60
 Side 2 forced transition at x/c =  1.0000   60

 112   rms: 0.1145E+00   max: -.4729E+00   D at   73  1
       a = 16.000      CL =  1.4332
      Cm = -0.0019     CD =  0.06019   =>   CDf =  0.00628    CDp =  0.05391

 Side 1  free  transition at x/c =  0.2404   60
 Side 2 forced transition at x/c =  1.0000   60
 idif Ue xi dudx           2  0.18694040      1.12818480E-02   16.570017    
 Uenew xinew           3  0.11895059      7.17866421E-03

 113   rms: 0.4441E+00   max: 0.1465E+01   D at   81  1
       a = 16.000      CL =  1.0716
      Cm = -0.0084     CD =  0.11067   =>   CDf =  0.00716    CDp =  0.10351

 MRCHDU: Convergence failed at  66  side 1    Res =  0.3244E+01
 MRCHDU: Convergence failed at  67  side 1    Res =  0.2782E+01
 MRCHDU: Convergence failed at  68  side 1    Res =  0.3947E+01
 MRCHDU: Convergence failed at  69  side 1    Res =  0.9906E+01
 MRCHDU: Convergence failed at  70  side 1    Res =  0.1171E+02
 MRCHDU: Convergence failed at  71  side 1    Res =  0.3459E+01
 MRCHDU: Convergence failed at  72  side 1    Res =  0.1985E+01
 MRCHDU: Convergence failed at  73  side 1    Res =  0.2779E+01
 MRCHDU: Convergence failed at  74  side 1    Res =  0.6932E+01
 MRCHDU: Convergence failed at  75  side 1    Res =  0.9109E+01
 MRCHDU: Convergence failed at  76  side 1    Res =  0.2773E+01
 MRCHDU: Convergence failed at  77  side 1    Res =  0.1675E+01
 MRCHDU: Convergence failed at  78  side 1    Res =  0.2474E+01
 MRCHDU: Convergence failed at  79  side 1    Res =  0.2456E+02
 Side 1  free  transition at x/c =  0.2437   58
 Side 2 forced transition at x/c =  1.0000   62
 idif Ue xi dudx           1  9.24624056E-02  5.06639481E-03   18.250137    
 Uenew xinew           2  2.67161950E-02  1.46389008E-03

 114   rms: 0.1265E+01   max: 0.6190E+01   D at   79  1   RLX: 0.242
       a = 16.000      CL =  1.1738
      Cm = -0.0719     CD =  0.12197   =>   CDf =  0.00667    CDp =  0.11530

 Side 1  free  transition at x/c =  0.2285   56
 Side 2 forced transition at x/c =  1.0000   63

 115   rms: 0.2063E+00   max: -.6792E+00   D at   59  1   RLX: 0.736
       a = 16.000      CL =  1.1519
      Cm = -0.0186     CD =  0.10329   =>   CDf =  0.00573    CDp =  0.09756

 Side 1  free  transition at x/c =  0.2412   58
 Side 2 forced transition at x/c =  1.0000   62

 116   rms: 0.5012E+00   max: -.6969E+00   D at   78  2   RLX: 0.625
       a = 16.000      CL =  1.4790
      Cm = -0.0070     CD =  0.04636   =>   CDf =  0.00631    CDp =  0.04006

 Side 1  free  transition at x/c =  0.2434   61
 Side 2 forced transition at x/c =  1.0000   59

 117   rms: 0.1524E+00   max: 0.1266E+01   T at    2  1   RLX: 0.915
       a = 16.000      CL =  1.6015
      Cm = -0.0088     CD =  0.04764   =>   CDf =  0.00670    CDp =  0.04095

 Side 1  free  transition at x/c =  0.2396   62
 Side 2 forced transition at x/c =  1.0000   58
 idif Ue xi dudx           1  0.11445516      8.96358490E-03   12.768905    
 Uenew xinew           2  5.52122258E-02  4.32395935E-03

 118   rms: 0.1778E+00   max: 0.6544E+00   D at   91  1
       a = 16.000      CL =  1.4575
      Cm = -0.0045     CD =  0.06277   =>   CDf =  0.00719    CDp =  0.05558

 Side 1  free  transition at x/c =  0.2397   61
 Side 2 forced transition at x/c =  1.0000   59
 idif Ue xi dudx           1  9.67612937E-02  6.72483444E-03   14.388651    
 Uenew xinew           2  3.39364372E-02  2.35855579E-03

 119   rms: 0.1209E+00   max: 0.4585E+00   D at   86  1
       a = 16.000      CL =  1.3686
      Cm = -0.0049     CD =  0.07285   =>   CDf =  0.00698    CDp =  0.06587

 Side 1  free  transition at x/c =  0.2391   60
 Side 2 forced transition at x/c =  1.0000   60

 120   rms: 0.1466E+00   max: -.5662E+00   D at   74  1   RLX: 0.883
       a = 16.000      CL =  1.4765
      Cm = -0.0030     CD =  0.05623   =>   CDf =  0.00600    CDp =  0.05023

 Side 1  free  transition at x/c =  0.2400   61
 Side 2 forced transition at x/c =  1.0000   59
 idif Ue xi dudx           1  7.11319074E-02  5.22160530E-03   13.622613    
 Uenew xinew           2  1.16517842E-02  8.55326653E-04

 121   rms: 0.1764E+00   max: -.1360E+01   T at    2  1   RLX: 0.368
       a = 16.000      CL =  1.4359
      Cm = -0.0082     CD =  0.06569   =>   CDf =  0.00696    CDp =  0.05873

 Side 1  free  transition at x/c =  0.2398   60
 Side 2 forced transition at x/c =  1.0000   60

 122   rms: 0.2523E+01   max: -.1096E+02   D at    2  2   RLX: 0.046
       a = 16.000      CL =  1.3458
      Cm = -0.0106     CD =  0.07651   =>   CDf =  0.00649    CDp =  0.07002

 Side 1  free  transition at x/c =  0.2399   60
 Side 2 forced transition at x/c =  1.0000   60

 123   rms: 0.1031E+00   max: -.4686E+00   D at   73  1
       a = 16.000      CL =  1.4109
      Cm = -0.0020     CD =  0.06261   =>   CDf =  0.00626    CDp =  0.05635

 Side 1  free  transition at x/c =  0.2405   60
 Side 2 forced transition at x/c =  1.0000   60

 124   rms: 0.1329E+01   max: -.4330E+01   D at   77  1   RLX: 0.115
       a = 16.000      CL =  1.5543
      Cm = -0.0063     CD =  0.05013   =>   CDf =  0.00614    CDp =  0.04398

 Side 1  free  transition at x/c =  0.2400   61
 Side 2 forced transition at x/c =  1.0000   59
 idif Ue xi dudx           1  6.92366287E-02  5.21230698E-03   13.283298    
 Uenew xinew           2  1.12380469E-02  8.46028328E-04

 125   rms: 0.1304E+00   max: 0.4887E+00   D at   86  1
       a = 16.000      CL =  1.4299
      Cm = -0.0044     CD =  0.06574   =>   CDf =  0.00716    CDp =  0.05858

 Side 1  free  transition at x/c =  0.2393   60
 Side 2 forced transition at x/c =  1.0000   60

 126   rms: 0.8447E+00   max: -.3827E+01   T at    2  2   RLX: 0.131
       a = 16.000      CL =  1.3497
      Cm = -0.0090     CD =  0.07498   =>   CDf =  0.00650    CDp =  0.06848

 Side 1  free  transition at x/c =  0.2394   60
 Side 2 forced transition at x/c =  1.0000   60

 127   rms: 0.1109E+00   max: -.4575E+00   D at   73  1
       a = 16.000      CL =  1.4297
      Cm = -0.0020     CD =  0.06065   =>   CDf =  0.00627    CDp =  0.05438

 Side 1  free  transition at x/c =  0.2404   60
 Side 2 forced transition at x/c =  1.0000   60
 idif Ue xi dudx           3  0.19391941      1.16922855E-02   16.585243    
 Uenew xinew           4  0.12586710      7.58910179E-03

 128   rms: 0.5613E+00   max: 0.1838E+01   D at   81  1   RLX: 0.816
       a = 16.000      CL =  1.0603
      Cm = -0.0097     CD =  0.11282   =>   CDf =  0.00744    CDp =  0.10537

 MRCHDU: Convergence failed at  65  side 1    Res =  0.3562E+01
 MRCHDU: Convergence failed at  66  side 1    Res =  0.3375E+01
 MRCHDU: Convergence failed at  67  side 1    Res =  0.5247E+01
 MRCHDU: Convergence failed at  68  side 1    Res =  0.2080E+02
 MRCHDU: Convergence failed at  69  side 1    Res =  0.7970E+01
 MRCHDU: Convergence failed at  70  side 1    Res =  0.3154E+01
 MRCHDU: Convergence failed at  71  side 1    Res =  0.2156E+01
 MRCHDU: Convergence failed at  72  side 1    Res =  0.3275E+01
 MRCHDU: Convergence failed at  73  side 1    Res =  0.1431E+02
 MRCHDU: Convergence failed at  74  side 1    Res =  0.4962E+01
 MRCHDU: Convergence failed at  75  side 1    Res =  0.2152E+01
 MRCHDU: Convergence failed at  76  side 1    Res =  0.1795E+01
 MRCHDU: Convergence failed at  77  side 1    Res =  0.3527E+01
 MRCHDU: Convergence failed at  78  side 1    Res =  0.1808E+01
 Side 1  free  transition at x/c =  0.2440   57
 Side 2 forced transition at x/c =  1.0000   63

 129   rms: 0.3789E+01   max: -.2118E+02   T at    2  2   RLX: 0.024
       a = 16.000      CL =  1.2281
      Cm = -0.0814     CD =  0.10224   =>   CDf =  0.00643    CDp =  0.09581

 Side 1  free  transition at x/c =  0.2369   57
 Side 2 forced transition at x/c =  1.0000   63

 130   rms: 0.5502E+00   max: -.1393E+01   D at   63  1   RLX: 0.359
       a = 16.000      CL =  1.3296
      Cm = -0.0401     CD =  0.06684   =>   CDf =  0.00631    CDp =  0.06053

 Side 1  free  transition at x/c =  0.2444   59
 Side 2 forced transition at x/c =  1.0000   61

 131   rms: 0.3812E+00   max: -.7305E+00   D at   80  2   RLX: 0.629
       a = 16.000      CL =  1.5403
      Cm = -0.0213     CD =  0.04948   =>   CDf =  0.00657    CDp =  0.04292

 Side 1  free  transition at x/c =  0.2391   61
 Side 2 forced transition at x/c =  1.0000   59

 132   rms: 0.9793E-01   max: 0.4646E+00   D at   82  1
       a = 16.000      CL =  1.5803
      Cm = -0.0081     CD =  0.05188   =>   CDf =  0.00707    CDp =  0.04481

 Side 1  free  transition at x/c =  0.2352   61
 Side 2 forced transition at x/c =  1.0000   59
 idif Ue xi dudx           1  6.97588250E-02  5.26428223E-03   13.251346    
 Uenew xinew           2  1.18997553E-02  8.98003578E-04

 133   rms: 0.1708E+00   max: 0.5801E+00   D at   89  1
       a = 16.000      CL =  1.4284
      Cm = -0.0041     CD =  0.06544   =>   CDf =  0.00718    CDp =  0.05826

 Side 1  free  transition at x/c =  0.2388   60
 Side 2 forced transition at x/c =  1.0000   60

 134   rms: 0.1942E+02   max: 0.7809E+02   D at    2  2   RLX: 0.009
       a = 16.000      CL =  1.5784
      Cm = -0.0089     CD =  0.04844   =>   CDf =  0.00614    CDp =  0.04230

 Side 1  free  transition at x/c =  0.2381   61
 Side 2 forced transition at x/c =  1.0000   59
 idif Ue xi dudx           1  6.62394762E-02  5.03242016E-03   13.162549    
 Uenew xinew           2  8.76811985E-03  6.66141510E-04

 135   rms: 0.1465E+00   max: 0.6255E+00   D at   88  1
       a = 16.000      CL =  1.4366
      Cm = -0.0037     CD =  0.06481   =>   CDf =  0.00719    CDp =  0.05761

 Side 1  free  transition at x/c =  0.2392   60
 Side 2 forced transition at x/c =  1.0000   60

 136   rms: 0.4367E+00   max: -.2456E+01   D at    2  2   RLX: 0.204
       a = 16.000      CL =  1.3746
      Cm = -0.0074     CD =  0.07166   =>   CDf =  0.00655    CDp =  0.06511

 Side 1  free  transition at x/c =  0.2394   60
 Side 2 forced transition at x/c =  1.0000   60

 137   rms: 0.1444E+00   max: -.5479E+00   D at   74  1   RLX: 0.913
       a = 16.000      CL =  1.4784
      Cm = -0.0025     CD =  0.05582   =>   CDf =  0.00601    CDp =  0.04981

 Side 1  free  transition at x/c =  0.2400   61
 Side 2 forced transition at x/c =  1.0000   59
 idif Ue xi dudx           1  7.59038478E-02  5.46681881E-03   13.884464    
 Uenew xinew           2  1.52804106E-02  1.10054016E-03

 138   rms: 0.1482E+00   max: -.9578E+00   T at    2  1   RLX: 0.522
       a = 16.000      CL =  1.4247
      Cm = -0.0073     CD =  0.06681   =>   CDf =  0.00698    CDp =  0.05984

 Side 1  free  transition at x/c =  0.2396   60
 Side 2 forced transition at x/c =  1.0000   60

 139   rms: 0.1070E+01   max: -.3445E+01   D at   76  1   RLX: 0.145
       a = 16.000      CL =  1.5569
      Cm = -0.0074     CD =  0.04960   =>   CDf =  0.00612    CDp =  0.04348

 Side 1  free  transition at x/c =  0.2391   61
 Side 2 forced transition at x/c =  1.0000   59
 idif Ue xi dudx           1  7.03208074E-02  5.27298450E-03   13.336054    
 Uenew xinew           2  1.20918779E-02  9.06705856E-04

 140   rms: 0.1372E+00   max: 0.5037E+00   D at   87  1
       a = 16.000      CL =  1.4275
      Cm = -0.0044     CD =  0.06598   =>   CDf =  0.00715    CDp =  0.05884

 Side 1  free  transition at x/c =  0.2392   60
 Side 2 forced transition at x/c =  1.0000   60

 141   rms: 0.1041E+01   max: -.4261E+01   D at    2  2   RLX: 0.117
       a = 16.000      CL =  1.3369
      Cm = -0.0089     CD =  0.07657   =>   CDf =  0.00650    CDp =  0.07006

 Side 1  free  transition at x/c =  0.2394   60
 Side 2 forced transition at x/c =  1.0000   60

 142   rms: 0.1082E+00   max: -.4609E+00   D at   73  1
       a = 16.000      CL =  1.4148
      Cm = -0.0019     CD =  0.06205   =>   CDf =  0.00625    CDp =  0.05580

 Side 1  free  transition at x/c =  0.2406   60
 Side 2 forced transition at x/c =  1.0000   60

 143   rms: 0.1416E+02   max: -.4571E+02   D at   78  1   RLX: 0.011
       a = 16.000      CL =  1.5604
      Cm = -0.0066     CD =  0.04949   =>   CDf =  0.00615    CDp =  0.04334

 Side 1  free  transition at x/c =  0.2402   61
 Side 2 forced transition at x/c =  1.0000   59
 idif Ue xi dudx           1  6.77450746E-02  5.12599945E-03   13.215974    
 Uenew xinew           2  1.00404499E-02  7.59720802E-04

 144   rms: 0.1334E+00   max: 0.5035E+00   D at   86  1
       a = 16.000      CL =  1.4332
      Cm = -0.0044     CD =  0.06538   =>   CDf =  0.00718    CDp =  0.05821

 Side 1  free  transition at x/c =  0.2393   60
 Side 2 forced transition at x/c =  1.0000   60

 145   rms: 0.5562E+00   max: -.2826E+01   T at    2  2   RLX: 0.177
       a = 16.000      CL =  1.3628
      Cm = -0.0084     CD =  0.07330   =>   CDf =  0.00652    CDp =  0.06679

 Side 1  free  transition at x/c =  0.2395   60
 Side 2 forced transition at x/c =  1.0000   60

 146   rms: 0.1207E+00   max: -.4792E+00   D at   74  1
       a = 16.000      CL =  1.4529
      Cm = -0.0020     CD =  0.05829   =>   CDf =  0.00631    CDp =  0.05199

 Side 1  free  transition at x/c =  0.2402   60
 Side 2 forced transition at x/c =  1.0000   60
 idif Ue xi dudx           1  8.86478722E-02  5.17165661E-03   17.141098    
 Uenew xinew           2  1.83147974E-02  1.06847286E-03

 147   rms: 0.2173E+00   max: 0.7386E+00   D at   82  1
       a = 16.000      CL =  1.2717
      Cm = -0.0055     CD =  0.08418   =>   CDf =  0.00691    CDp =  0.07727

 Side 1  free  transition at x/c =  0.2400   59
 Side 2 forced transition at x/c =  1.0000   61

 148   rms: 0.1145E+00   max: -.4817E+00   D at   70  1
       a = 16.000      CL =  1.3687
      Cm = -0.0021     CD =  0.06629   =>   CDf =  0.00590    CDp =  0.06040

 Side 1  free  transition at x/c =  0.2415   60
 Side 2 forced transition at x/c =  1.0000   60

 149   rms: 0.1827E+00   max: -.6902E+00   D at   73  1   RLX: 0.724
       a = 16.000      CL =  1.4846
      Cm = -0.0030     CD =  0.05542   =>   CDf =  0.00606    CDp =  0.04935

 Side 1  free  transition at x/c =  0.2402   61
 Side 2 forced transition at x/c =  1.0000   59
 idif Ue xi dudx           1  7.76190013E-02  5.59043884E-03   13.884241    
 Uenew xinew           2  1.69965345E-02  1.22416019E-03

 150   rms: 0.1401E+00   max: -.8213E+00   T at    2  1   RLX: 0.609
       a = 16.000      CL =  1.4190
      Cm = -0.0068     CD =  0.06751   =>   CDf =  0.00699    CDp =  0.06052

 Side 1  free  transition at x/c =  0.2397   60
 Side 2 forced transition at x/c =  1.0000   60

 151   rms: 0.6170E+00   max: -.2041E+01   D at   76  1   RLX: 0.245
       a = 16.000      CL =  1.5479
      Cm = -0.0069     CD =  0.05043   =>   CDf =  0.00611    CDp =  0.04432

 Side 1  free  transition at x/c =  0.2392   61
 Side 2 forced transition at x/c =  1.0000   59
 idif Ue xi dudx           1  7.29361922E-02  5.42247295E-03   13.450725    
 Uenew xinew           2  1.42065790E-02  1.05619431E-03

 152   rms: 0.1344E+00   max: 0.4826E+00   D at   85  1
       a = 16.000      CL =  1.4218
      Cm = -0.0044     CD =  0.06660   =>   CDf =  0.00712    CDp =  0.05948

 Side 1  free  transition at x/c =  0.2392   60
 Side 2 forced transition at x/c =  1.0000   60
 idif Ue xi dudx           1  6.99660778E-02  4.29940224E-03   16.273443    
 Uenew xinew           2  3.19315051E-03  1.96218491E-04

 153   rms: 0.1486E+02   max: -.5048E+02   T at    2  2   RLX: 0.010
       a = 16.000      CL =  1.3114
      Cm = -0.0100     CD =  0.07997   =>   CDf =  0.00680    CDp =  0.07318

 Side 1  free  transition at x/c =  0.2395   59
 Side 2 forced transition at x/c =  1.0000   61

 154   rms: 0.1089E+00   max: -.4652E+00   D at   71  1
       a = 16.000      CL =  1.3868
      Cm = -0.0020     CD =  0.06469   =>   CDf =  0.00589    CDp =  0.05880

 Side 1  free  transition at x/c =  0.2411   60
 Side 2 forced transition at x/c =  1.0000   60

 155   rms: 0.2674E+00   max: -.9606E+00   D at   74  1   RLX: 0.521
       a = 16.000      CL =  1.5110
      Cm = -0.0039     CD =  0.05332   =>   CDf =  0.00610    CDp =  0.04723
 VISCAL:  Convergence failed

.OPERva   c>  
 Polar accumulation disabled

.OPERv   c>  
 XFOIL   c>  
 XFOIL   c>  