
 ===================================================
  XFOIL Version 6.99
  Copyright (C) 2000   Mark Drela, Harold Youngren

  This software comes with ABSOLUTELY NO WARRANTY,
    subject to the GNU General Public License.

  Caveat computor
 ===================================================

 File  xfoil.def  not found

   QUIT    Exit program

  .OPER    Direct operating point(s)
  .MDES    Complex mapping design routine
  .QDES    Surface speed design routine
  .GDES    Geometry design routine

   SAVE f  Write airfoil to labeled coordinate file
   PSAV f  Write airfoil to plain coordinate file
   ISAV f  Write airfoil to ISES coordinate file
   MSAV f  Write airfoil to MSES coordinate file
   REVE    Reverse written-airfoil node ordering

   LOAD f  Read buffer airfoil from coordinate file
   NACA i  Set NACA 4,5-digit airfoil and buffer airfoil
   INTE    Set buffer airfoil by interpolating two airfoils
   NORM    Buffer airfoil normalization toggle
   XYCM rr Change CM reference location, currently  0.25000 0.00000

   BEND    Display structural properties of current airfoil

   PCOP    Set current-airfoil panel nodes directly from buffer airfoil points
   PANE    Set current-airfoil panel nodes ( 160 ) based on curvature
  .PPAR    Show/change paneling

  .PLOP    Plotting options

   WDEF f  Write  current-settings file
   RDEF f  Reread current-settings file
   NAME s  Specify new airfoil name
   NINC    Increment name version number

   Z       Zoom    | (available in all menus)
   U       Unzoom  | 

 XFOIL   c>  
 Labeled airfoil file.  Name:  GOE 614 AIRFOIL                                 

 Number of input coordinate points:  33
 Counterclockwise ordering
 Max thickness =     0.187860  at x =   0.291
 Max camber    =     0.060549  at x =   0.402

  LE  x,y  =  -0.00010   0.00219  |   Chord =   1.00010
  TE  x,y  =   1.00000   0.00000  |

 Current airfoil nodes set from buffer airfoil nodes (  33 )

 WARNING: Poor input coordinate distribution
          Excessive panel angle   53.7  at i =  17
          Repaneling with PANE and/or PPAR suggested
           (doing GDES,CADD before repaneling _may_
            improve excessively coarse LE spacing

 XFOIL   c>  
 XFOIL   c>  
 Sharp trailing edge

 Paneling parameters used...
   Number of panel nodes       160
   Panel bunching parameter    1.000
   TE/LE panel density ratio   0.150
   Refined-area/LE panel density ratio    0.200
   Top    side refined area x/c limits  1.000 1.000
   Bottom side refined area x/c limits  1.000 1.000

 XFOIL   c>  
.OPERi   c>  
 Xtr/c     =  1.0000    top    side
 Xtr/c     =  1.0000    bottom side
 Ncrit     =    9.00   ( 0.070 % turb. level )
 Vacc      =  0.0100

 Klag  =  5.6000     Uxwt  =    1.00
 A     =  6.7000     B     =  0.7500       KCt = 0.01485
 CtiniK=  1.8000     CtiniX=  3.3000

..VPAR   c>  
..VPAR   c>  
.OPERi   c>  
 M  =    0.0000
 Re =    500000

.OPERv   c>  
.OPERv   c>  
.OPERv   c>  
 Polar  1 newly created for accumulation
 Airfoil archived with polar: GOE 614 AIRFOIL                                 

Enter  polar save filename  OR  <return> for no file   s>  
 New polar save file available

Enter  polar dump filename  OR  <return> for no file   s>  
 Polar dump file will NOT be written

 Polar accumulation enabled

.OPERva   c>   Calculating unit vorticity distributions ...
 Calculating wake trajectory ...
 Calculating source influence matrix ...

 Solving BL system ...

 Initializing BL ...
    side            1  ...
 MRCHUE: Inverse mode at  46     Hk =   4.501
 MRCHUE: Inverse mode at  47     Hk =   5.478
 MRCHUE: Inverse mode at  48     Hk =   6.432
 MRCHUE: Inverse mode at  49     Hk =   7.370
 MRCHUE: Inverse mode at  50     Hk =   8.297
 MRCHUE: Inverse mode at  51     Hk =   6.210
 MRCHUE: Inverse mode at  52     Hk =   3.020
 MRCHUE: Inverse mode at  76     Hk =   2.500
 MRCHUE: Convergence failed at  77  side 1    Res =  0.4129E+01
    side            2  ...
 MRCHUE: Inverse mode at  21     Hk =   3.800
 MRCHUE: Inverse mode at  22     Hk =   4.762
 MRCHUE: Inverse mode at  23     Hk =   5.678
 MRCHUE: Convergence failed at  24  side 2    Res =  0.4450E+01
 MRCHUE: Inverse mode at  25     Hk =   6.622
 MRCHUE: Inverse mode at  26     Hk =   7.559
 MRCHUE: Inverse mode at  27     Hk =   8.501
 MRCHUE: Inverse mode at  28     Hk =   9.452
 MRCHUE: Inverse mode at  29     Hk =   4.757
 MRCHUE: Inverse mode at  30     Hk =   2.652
 MRCHUE: Inverse mode at  85     Hk =   2.500

 MRCHDU: Convergence failed at  77  side 1    Res =  0.3570E+01
 MRCHDU: Convergence failed at  29  side 2    Res =  0.1323E+02
 MRCHDU: Convergence failed at  30  side 2    Res =  0.2741E+02
 Side 1  free  transition at x/c =  0.5494   51
 Side 2  free  transition at x/c =  0.0482   29
 idif Ue xi dudx           1  0.10870116      3.92508507E-03   27.693964    
 Uenew xinew           2  2.61601172E-02  9.44614410E-04

   1   rms: 0.3195E+00   max: 0.2350E+01   T at   29  2   RLX: 0.472
       a = -4.000      CL =  0.2180
      Cm = -0.1372     CD =  0.01029   =>   CDf =  0.00794    CDp =  0.00235

 Side 1  free  transition at x/c =  0.5674   51
 Side 2  free  transition at x/c =  0.0430   29

   2   rms: 0.1281E+00   max: -.8920E+00   T at   51  1   RLX: 0.561
       a = -4.000      CL =  0.1823
      Cm = -0.1267     CD =  0.01138   =>   CDf =  0.00781    CDp =  0.00357

 Side 1  free  transition at x/c =  0.5892   52
 Side 2  free  transition at x/c =  0.0427   29

   3   rms: 0.8719E-01   max: -.8531E+00   C at   52  1   RLX: 0.586
       a = -4.000      CL =  0.2101
      Cm = -0.1317     CD =  0.01172   =>   CDf =  0.00763    CDp =  0.00409

 Side 1  free  transition at x/c =  0.6025   53
 Side 2  free  transition at x/c =  0.0431   29

   4   rms: 0.4366E-01   max: -.3994E+00   C at   53  1
       a = -4.000      CL =  0.2270
      Cm = -0.1347     CD =  0.01193   =>   CDf =  0.00760    CDp =  0.00433

 Side 1  free  transition at x/c =  0.6215   54
 Side 2  free  transition at x/c =  0.0433   29

   5   rms: 0.1017E-01   max: -.1214E+00   C at   54  1
       a = -4.000      CL =  0.2333
      Cm = -0.1361     CD =  0.01205   =>   CDf =  0.00749    CDp =  0.00456

 Side 1  free  transition at x/c =  0.6251   54
 Side 2  free  transition at x/c =  0.0434   29

   6   rms: 0.6082E-03   max: -.7861E-02   C at   54  1
       a = -4.000      CL =  0.2336
      Cm = -0.1361     CD =  0.01206   =>   CDf =  0.00745    CDp =  0.00461

 Side 1  free  transition at x/c =  0.6252   54
 Side 2  free  transition at x/c =  0.0434   29

   7   rms: 0.6934E-05   max: -.3022E-04   D at   74  1
       a = -4.000      CL =  0.2336
      Cm = -0.1361     CD =  0.01206   =>   CDf =  0.00744    CDp =  0.00461
 plradd ia,ip,cpol            1           0  1.18386196E-02

 Point added to stored polar  1
 Point written to save file  goe614_Re500k.base.pol                          
 Dump file unspecified or not available
 Calculating wake trajectory ...
 Calculating source influence matrix ...

 Solving BL system ...

 Side 1  free  transition at x/c =  0.6252   54
 Side 2  free  transition at x/c =  0.0434   29

   1   rms: 0.7514E-01   max: -.2421E+00   T at   29  2
       a = -3.500      CL =  0.2785
      Cm = -0.1338     CD =  0.01174   =>   CDf =  0.00754    CDp =  0.00421

 Side 1  free  transition at x/c =  0.6064   54
 Side 2  free  transition at x/c =  0.0459   28

   2   rms: 0.9815E-02   max: -.9345E-01   D at   54  1
       a = -3.500      CL =  0.2787
      Cm = -0.1338     CD =  0.01184   =>   CDf =  0.00761    CDp =  0.00423

 Side 1  free  transition at x/c =  0.6070   54
 Side 2  free  transition at x/c =  0.0460   28

   3   rms: 0.5643E-03   max: 0.4979E-02   C at   54  1
       a = -3.500      CL =  0.2790
      Cm = -0.1339     CD =  0.01184   =>   CDf =  0.00759    CDp =  0.00425

 Side 1  free  transition at x/c =  0.6068   54
 Side 2  free  transition at x/c =  0.0460   28

   4   rms: 0.2441E-05   max: -.9990E-05   C at   36  2
       a = -3.500      CL =  0.2790
      Cm = -0.1339     CD =  0.01184   =>   CDf =  0.00759    CDp =  0.00425
 plradd ia,ip,cpol            2           0  1.18386196E-02

 Point added to stored polar  1
 Point written to save file  goe614_Re500k.base.pol                          
 Dump file unspecified or not available
 Calculating wake trajectory ...
 Calculating source influence matrix ...

 Solving BL system ...

 Side 1  free  transition at x/c =  0.6068   54
 Side 2  free  transition at x/c =  0.0460   28

   1   rms: 0.7327E-01   max: -.2783E+00   C at   28  2
       a = -3.000      CL =  0.3249
      Cm = -0.1317     CD =  0.01165   =>   CDf =  0.00767    CDp =  0.00398

 Side 1  free  transition at x/c =  0.5892   54
 Side 2  free  transition at x/c =  0.0491   28

   2   rms: 0.2764E-01   max: -.4262E+00   C at   28  2
       a = -3.000      CL =  0.3240
      Cm = -0.1315     CD =  0.01164   =>   CDf =  0.00774    CDp =  0.00390

 Side 1  free  transition at x/c =  0.5900   54
 Side 2  free  transition at x/c =  0.0526   28

   3   rms: 0.2737E-01   max: -.6015E+00   C at   28  2   RLX: 0.831
       a = -3.000      CL =  0.3242
      Cm = -0.1316     CD =  0.01164   =>   CDf =  0.00769    CDp =  0.00395

 Side 1  free  transition at x/c =  0.5898   54
 Side 2  free  transition at x/c =  0.0524   28

   4   rms: 0.2697E-01   max: -.5790E+00   C at   28  2   RLX: 0.864
       a = -3.000      CL =  0.3243
      Cm = -0.1316     CD =  0.01164   =>   CDf =  0.00769    CDp =  0.00395

 Side 1  free  transition at x/c =  0.5898   54
 Side 2  free  transition at x/c =  0.0524   28

   5   rms: 0.2719E-01   max: -.5861E+00   C at   28  2   RLX: 0.853
       a = -3.000      CL =  0.3243
      Cm = -0.1316     CD =  0.01164   =>   CDf =  0.00769    CDp =  0.00395

 Side 1  free  transition at x/c =  0.5898   54
 Side 2  free  transition at x/c =  0.0524   28

   6   rms: 0.2721E-01   max: -.5865E+00   C at   28  2   RLX: 0.852
       a = -3.000      CL =  0.3243
      Cm = -0.1316     CD =  0.01164   =>   CDf =  0.00769    CDp =  0.00395

 Side 1  free  transition at x/c =  0.5898   54
 Side 2  free  transition at x/c =  0.0524   28

   7   rms: 0.2722E-01   max: -.5867E+00   C at   28  2   RLX: 0.852
       a = -3.000      CL =  0.3243
      Cm = -0.1316     CD =  0.01164   =>   CDf =  0.00769    CDp =  0.00395

 Side 1  free  transition at x/c =  0.5898   54
 Side 2  free  transition at x/c =  0.0524   28

   8   rms: 0.2722E-01   max: -.5867E+00   C at   28  2   RLX: 0.852
       a = -3.000      CL =  0.3243
      Cm = -0.1316     CD =  0.01164   =>   CDf =  0.00769    CDp =  0.00395

 Side 1  free  transition at x/c =  0.5898   54
 Side 2  free  transition at x/c =  0.0524   28

   9   rms: 0.2722E-01   max: -.5867E+00   C at   28  2   RLX: 0.852
       a = -3.000      CL =  0.3243
      Cm = -0.1316     CD =  0.01164   =>   CDf =  0.00769    CDp =  0.00395

 Side 1  free  transition at x/c =  0.5898   54
 Side 2  free  transition at x/c =  0.0524   28

  10   rms: 0.2722E-01   max: -.5867E+00   C at   28  2   RLX: 0.852
       a = -3.000      CL =  0.3243
      Cm = -0.1316     CD =  0.01164   =>   CDf =  0.00769    CDp =  0.00395

 Side 1  free  transition at x/c =  0.5898   54
 Side 2  free  transition at x/c =  0.0524   28

  11   rms: 0.2722E-01   max: -.5867E+00   C at   28  2   RLX: 0.852
       a = -3.000      CL =  0.3243
      Cm = -0.1316     CD =  0.01164   =>   CDf =  0.00769    CDp =  0.00395

 Side 1  free  transition at x/c =  0.5898   54
 Side 2  free  transition at x/c =  0.0524   28

  12   rms: 0.2722E-01   max: -.5867E+00   C at   28  2   RLX: 0.852
       a = -3.000      CL =  0.3243
      Cm = -0.1316     CD =  0.01164   =>   CDf =  0.00769    CDp =  0.00395

 Side 1  free  transition at x/c =  0.5898   54
 Side 2  free  transition at x/c =  0.0524   28

  13   rms: 0.2722E-01   max: -.5867E+00   C at   28  2   RLX: 0.852
       a = -3.000      CL =  0.3243
      Cm = -0.1316     CD =  0.01164   =>   CDf =  0.00769    CDp =  0.00395

 Side 1  free  transition at x/c =  0.5898   54
 Side 2  free  transition at x/c =  0.0524   28

  14   rms: 0.2722E-01   max: -.5867E+00   C at   28  2   RLX: 0.852
       a = -3.000      CL =  0.3243
      Cm = -0.1316     CD =  0.01164   =>   CDf =  0.00769    CDp =  0.00395

 Side 1  free  transition at x/c =  0.5898   54
 Side 2  free  transition at x/c =  0.0524   28

  15   rms: 0.2722E-01   max: -.5867E+00   C at   28  2   RLX: 0.852
       a = -3.000      CL =  0.3243
      Cm = -0.1316     CD =  0.01164   =>   CDf =  0.00769    CDp =  0.00395

 Side 1  free  transition at x/c =  0.5898   54
 Side 2  free  transition at x/c =  0.0524   28

  16   rms: 0.2722E-01   max: -.5867E+00   C at   28  2   RLX: 0.852
       a = -3.000      CL =  0.3243
      Cm = -0.1316     CD =  0.01164   =>   CDf =  0.00769    CDp =  0.00395

 Side 1  free  transition at x/c =  0.5898   54
 Side 2  free  transition at x/c =  0.0524   28

  17   rms: 0.2722E-01   max: -.5867E+00   C at   28  2   RLX: 0.852
       a = -3.000      CL =  0.3243
      Cm = -0.1316     CD =  0.01164   =>   CDf =  0.00769    CDp =  0.00395

 Side 1  free  transition at x/c =  0.5898   54
 Side 2  free  transition at x/c =  0.0524   28

  18   rms: 0.2722E-01   max: -.5867E+00   C at   28  2   RLX: 0.852
       a = -3.000      CL =  0.3243
      Cm = -0.1316     CD =  0.01164   =>   CDf =  0.00769    CDp =  0.00395

 Side 1  free  transition at x/c =  0.5898   54
 Side 2  free  transition at x/c =  0.0524   28

  19   rms: 0.2722E-01   max: -.5867E+00   C at   28  2   RLX: 0.852
       a = -3.000      CL =  0.3243
      Cm = -0.1316     CD =  0.01164   =>   CDf =  0.00769    CDp =  0.00395

 Side 1  free  transition at x/c =  0.5898   54
 Side 2  free  transition at x/c =  0.0524   28

  20   rms: 0.2722E-01   max: -.5867E+00   C at   28  2   RLX: 0.852
       a = -3.000      CL =  0.3243
      Cm = -0.1316     CD =  0.01164   =>   CDf =  0.00769    CDp =  0.00395

 Side 1  free  transition at x/c =  0.5898   54
 Side 2  free  transition at x/c =  0.0524   28

  21   rms: 0.2722E-01   max: -.5867E+00   C at   28  2   RLX: 0.852
       a = -3.000      CL =  0.3243
      Cm = -0.1316     CD =  0.01164   =>   CDf =  0.00769    CDp =  0.00395

 Side 1  free  transition at x/c =  0.5898   54
 Side 2  free  transition at x/c =  0.0524   28

  22   rms: 0.2722E-01   max: -.5867E+00   C at   28  2   RLX: 0.852
       a = -3.000      CL =  0.3243
      Cm = -0.1316     CD =  0.01164   =>   CDf =  0.00769    CDp =  0.00395

 Side 1  free  transition at x/c =  0.5898   54
 Side 2  free  transition at x/c =  0.0524   28

  23   rms: 0.2722E-01   max: -.5867E+00   C at   28  2   RLX: 0.852
       a = -3.000      CL =  0.3243
      Cm = -0.1316     CD =  0.01164   =>   CDf =  0.00769    CDp =  0.00395

 Side 1  free  transition at x/c =  0.5898   54
 Side 2  free  transition at x/c =  0.0524   28

  24   rms: 0.2722E-01   max: -.5867E+00   C at   28  2   RLX: 0.852
       a = -3.000      CL =  0.3243
      Cm = -0.1316     CD =  0.01164   =>   CDf =  0.00769    CDp =  0.00395

 Side 1  free  transition at x/c =  0.5898   54
 Side 2  free  transition at x/c =  0.0524   28

  25   rms: 0.2722E-01   max: -.5867E+00   C at   28  2   RLX: 0.852
       a = -3.000      CL =  0.3243
      Cm = -0.1316     CD =  0.01164   =>   CDf =  0.00769    CDp =  0.00395

 Side 1  free  transition at x/c =  0.5898   54
 Side 2  free  transition at x/c =  0.0524   28

  26   rms: 0.2722E-01   max: -.5867E+00   C at   28  2   RLX: 0.852
       a = -3.000      CL =  0.3243
      Cm = -0.1316     CD =  0.01164   =>   CDf =  0.00769    CDp =  0.00395

 Side 1  free  transition at x/c =  0.5898   54
 Side 2  free  transition at x/c =  0.0524   28

  27   rms: 0.2722E-01   max: -.5867E+00   C at   28  2   RLX: 0.852
       a = -3.000      CL =  0.3243
      Cm = -0.1316     CD =  0.01164   =>   CDf =  0.00769    CDp =  0.00395

 Side 1  free  transition at x/c =  0.5898   54
 Side 2  free  transition at x/c =  0.0524   28

  28   rms: 0.2722E-01   max: -.5867E+00   C at   28  2   RLX: 0.852
       a = -3.000      CL =  0.3243
      Cm = -0.1316     CD =  0.01164   =>   CDf =  0.00769    CDp =  0.00395

 Side 1  free  transition at x/c =  0.5898   54
 Side 2  free  transition at x/c =  0.0524   28

  29   rms: 0.2722E-01   max: -.5867E+00   C at   28  2   RLX: 0.852
       a = -3.000      CL =  0.3243
      Cm = -0.1316     CD =  0.01164   =>   CDf =  0.00769    CDp =  0.00395

 Side 1  free  transition at x/c =  0.5898   54
 Side 2  free  transition at x/c =  0.0524   28

  30   rms: 0.2722E-01   max: -.5867E+00   C at   28  2   RLX: 0.852
       a = -3.000      CL =  0.3243
      Cm = -0.1316     CD =  0.01164   =>   CDf =  0.00769    CDp =  0.00395

 Side 1  free  transition at x/c =  0.5898   54
 Side 2  free  transition at x/c =  0.0524   28

  31   rms: 0.2722E-01   max: -.5867E+00   C at   28  2   RLX: 0.852
       a = -3.000      CL =  0.3243
      Cm = -0.1316     CD =  0.01164   =>   CDf =  0.00769    CDp =  0.00395

 Side 1  free  transition at x/c =  0.5898   54
 Side 2  free  transition at x/c =  0.0524   28

  32   rms: 0.2722E-01   max: -.5867E+00   C at   28  2   RLX: 0.852
       a = -3.000      CL =  0.3243
      Cm = -0.1316     CD =  0.01164   =>   CDf =  0.00769    CDp =  0.00395

 Side 1  free  transition at x/c =  0.5898   54
 Side 2  free  transition at x/c =  0.0524   28

  33   rms: 0.2722E-01   max: -.5867E+00   C at   28  2   RLX: 0.852
       a = -3.000      CL =  0.3243
      Cm = -0.1316     CD =  0.01164   =>   CDf =  0.00769    CDp =  0.00395

 Side 1  free  transition at x/c =  0.5898   54
 Side 2  free  transition at x/c =  0.0524   28

  34   rms: 0.2722E-01   max: -.5867E+00   C at   28  2   RLX: 0.852
       a = -3.000      CL =  0.3243
      Cm = -0.1316     CD =  0.01164   =>   CDf =  0.00769    CDp =  0.00395

 Side 1  free  transition at x/c =  0.5898   54
 Side 2  free  transition at x/c =  0.0524   28

  35   rms: 0.2722E-01   max: -.5867E+00   C at   28  2   RLX: 0.852
       a = -3.000      CL =  0.3243
      Cm = -0.1316     CD =  0.01164   =>   CDf =  0.00769    CDp =  0.00395

 Side 1  free  transition at x/c =  0.5898   54
 Side 2  free  transition at x/c =  0.0524   28

  36   rms: 0.2722E-01   max: -.5867E+00   C at   28  2   RLX: 0.852
       a = -3.000      CL =  0.3243
      Cm = -0.1316     CD =  0.01164   =>   CDf =  0.00769    CDp =  0.00395

 Side 1  free  transition at x/c =  0.5898   54
 Side 2  free  transition at x/c =  0.0524   28

  37   rms: 0.2722E-01   max: -.5867E+00   C at   28  2   RLX: 0.852
       a = -3.000      CL =  0.3243
      Cm = -0.1316     CD =  0.01164   =>   CDf =  0.00769    CDp =  0.00395

 Side 1  free  transition at x/c =  0.5898   54
 Side 2  free  transition at x/c =  0.0524   28

  38   rms: 0.2722E-01   max: -.5867E+00   C at   28  2   RLX: 0.852
       a = -3.000      CL =  0.3243
      Cm = -0.1316     CD =  0.01164   =>   CDf =  0.00769    CDp =  0.00395

 Side 1  free  transition at x/c =  0.5898   54
 Side 2  free  transition at x/c =  0.0524   28

  39   rms: 0.2722E-01   max: -.5867E+00   C at   28  2   RLX: 0.852
       a = -3.000      CL =  0.3243
      Cm = -0.1316     CD =  0.01164   =>   CDf =  0.00769    CDp =  0.00395

 Side 1  free  transition at x/c =  0.5898   54
 Side 2  free  transition at x/c =  0.0524   28

  40   rms: 0.2722E-01   max: -.5867E+00   C at   28  2   RLX: 0.852
       a = -3.000      CL =  0.3243
      Cm = -0.1316     CD =  0.01164   =>   CDf =  0.00769    CDp =  0.00395

 Side 1  free  transition at x/c =  0.5898   54
 Side 2  free  transition at x/c =  0.0524   28

  41   rms: 0.2722E-01   max: -.5867E+00   C at   28  2   RLX: 0.852
       a = -3.000      CL =  0.3243
      Cm = -0.1316     CD =  0.01164   =>   CDf =  0.00769    CDp =  0.00395

 Side 1  free  transition at x/c =  0.5898   54
 Side 2  free  transition at x/c =  0.0524   28

  42   rms: 0.2722E-01   max: -.5867E+00   C at   28  2   RLX: 0.852
       a = -3.000      CL =  0.3243
      Cm = -0.1316     CD =  0.01164   =>   CDf =  0.00769    CDp =  0.00395

 Side 1  free  transition at x/c =  0.5898   54
 Side 2  free  transition at x/c =  0.0524   28

  43   rms: 0.2722E-01   max: -.5867E+00   C at   28  2   RLX: 0.852
       a = -3.000      CL =  0.3243
      Cm = -0.1316     CD =  0.01164   =>   CDf =  0.00769    CDp =  0.00395

 Side 1  free  transition at x/c =  0.5898   54
 Side 2  free  transition at x/c =  0.0524   28

  44   rms: 0.2722E-01   max: -.5867E+00   C at   28  2   RLX: 0.852
       a = -3.000      CL =  0.3243
      Cm = -0.1316     CD =  0.01164   =>   CDf =  0.00769    CDp =  0.00395

 Side 1  free  transition at x/c =  0.5898   54
 Side 2  free  transition at x/c =  0.0524   28

  45   rms: 0.2722E-01   max: -.5867E+00   C at   28  2   RLX: 0.852
       a = -3.000      CL =  0.3243
      Cm = -0.1316     CD =  0.01164   =>   CDf =  0.00769    CDp =  0.00395

 Side 1  free  transition at x/c =  0.5898   54
 Side 2  free  transition at x/c =  0.0524   28

  46   rms: 0.2722E-01   max: -.5867E+00   C at   28  2   RLX: 0.852
       a = -3.000      CL =  0.3243
      Cm = -0.1316     CD =  0.01164   =>   CDf =  0.00769    CDp =  0.00395

 Side 1  free  transition at x/c =  0.5898   54
 Side 2  free  transition at x/c =  0.0524   28

  47   rms: 0.2722E-01   max: -.5867E+00   C at   28  2   RLX: 0.852
       a = -3.000      CL =  0.3243
      Cm = -0.1316     CD =  0.01164   =>   CDf =  0.00769    CDp =  0.00395

 Side 1  free  transition at x/c =  0.5898   54
 Side 2  free  transition at x/c =  0.0524   28

  48   rms: 0.2722E-01   max: -.5867E+00   C at   28  2   RLX: 0.852
       a = -3.000      CL =  0.3243
      Cm = -0.1316     CD =  0.01164   =>   CDf =  0.00769    CDp =  0.00395

 Side 1  free  transition at x/c =  0.5898   54
 Side 2  free  transition at x/c =  0.0524   28

  49   rms: 0.2722E-01   max: -.5867E+00   C at   28  2   RLX: 0.852
       a = -3.000      CL =  0.3243
      Cm = -0.1316     CD =  0.01164   =>   CDf =  0.00769    CDp =  0.00395

 Side 1  free  transition at x/c =  0.5898   54
 Side 2  free  transition at x/c =  0.0524   28

  50   rms: 0.2722E-01   max: -.5867E+00   C at   28  2   RLX: 0.852
       a = -3.000      CL =  0.3243
      Cm = -0.1316     CD =  0.01164   =>   CDf =  0.00769    CDp =  0.00395

 Side 1  free  transition at x/c =  0.5898   54
 Side 2  free  transition at x/c =  0.0524   28

  51   rms: 0.2722E-01   max: -.5867E+00   C at   28  2   RLX: 0.852
       a = -3.000      CL =  0.3243
      Cm = -0.1316     CD =  0.01164   =>   CDf =  0.00769    CDp =  0.00395

 Side 1  free  transition at x/c =  0.5898   54
 Side 2  free  transition at x/c =  0.0524   28

  52   rms: 0.2722E-01   max: -.5867E+00   C at   28  2   RLX: 0.852
       a = -3.000      CL =  0.3243
      Cm = -0.1316     CD =  0.01164   =>   CDf =  0.00769    CDp =  0.00395

 Side 1  free  transition at x/c =  0.5898   54
 Side 2  free  transition at x/c =  0.0524   28

  53   rms: 0.2722E-01   max: -.5867E+00   C at   28  2   RLX: 0.852
       a = -3.000      CL =  0.3243
      Cm = -0.1316     CD =  0.01164   =>   CDf =  0.00769    CDp =  0.00395

 Side 1  free  transition at x/c =  0.5898   54
 Side 2  free  transition at x/c =  0.0524   28

  54   rms: 0.2722E-01   max: -.5867E+00   C at   28  2   RLX: 0.852
       a = -3.000      CL =  0.3243
      Cm = -0.1316     CD =  0.01164   =>   CDf =  0.00769    CDp =  0.00395

 Side 1  free  transition at x/c =  0.5898   54
 Side 2  free  transition at x/c =  0.0524   28

  55   rms: 0.2722E-01   max: -.5867E+00   C at   28  2   RLX: 0.852
       a = -3.000      CL =  0.3243
      Cm = -0.1316     CD =  0.01164   =>   CDf =  0.00769    CDp =  0.00395

 Side 1  free  transition at x/c =  0.5898   54
 Side 2  free  transition at x/c =  0.0524   28

  56   rms: 0.2722E-01   max: -.5867E+00   C at   28  2   RLX: 0.852
       a = -3.000      CL =  0.3243
      Cm = -0.1316     CD =  0.01164   =>   CDf =  0.00769    CDp =  0.00395

 Side 1  free  transition at x/c =  0.5898   54
 Side 2  free  transition at x/c =  0.0524   28

  57   rms: 0.2722E-01   max: -.5867E+00   C at   28  2   RLX: 0.852
       a = -3.000      CL =  0.3243
      Cm = -0.1316     CD =  0.01164   =>   CDf =  0.00769    CDp =  0.00395

 Side 1  free  transition at x/c =  0.5898   54
 Side 2  free  transition at x/c =  0.0524   28

  58   rms: 0.2722E-01   max: -.5867E+00   C at   28  2   RLX: 0.852
       a = -3.000      CL =  0.3243
      Cm = -0.1316     CD =  0.01164   =>   CDf =  0.00769    CDp =  0.00395

 Side 1  free  transition at x/c =  0.5898   54
 Side 2  free  transition at x/c =  0.0524   28

  59   rms: 0.2722E-01   max: -.5867E+00   C at   28  2   RLX: 0.852
       a = -3.000      CL =  0.3243
      Cm = -0.1316     CD =  0.01164   =>   CDf =  0.00769    CDp =  0.00395

 Side 1  free  transition at x/c =  0.5898   54
 Side 2  free  transition at x/c =  0.0524   28

  60   rms: 0.2722E-01   max: -.5867E+00   C at   28  2   RLX: 0.852
       a = -3.000      CL =  0.3243
      Cm = -0.1316     CD =  0.01164   =>   CDf =  0.00769    CDp =  0.00395

 Side 1  free  transition at x/c =  0.5898   54
 Side 2  free  transition at x/c =  0.0524   28

  61   rms: 0.2722E-01   max: -.5867E+00   C at   28  2   RLX: 0.852
       a = -3.000      CL =  0.3243
      Cm = -0.1316     CD =  0.01164   =>   CDf =  0.00769    CDp =  0.00395

 Side 1  free  transition at x/c =  0.5898   54
 Side 2  free  transition at x/c =  0.0524   28

  62   rms: 0.2722E-01   max: -.5867E+00   C at   28  2   RLX: 0.852
       a = -3.000      CL =  0.3243
      Cm = -0.1316     CD =  0.01164   =>   CDf =  0.00769    CDp =  0.00395

 Side 1  free  transition at x/c =  0.5898   54
 Side 2  free  transition at x/c =  0.0524   28

  63   rms: 0.2722E-01   max: -.5867E+00   C at   28  2   RLX: 0.852
       a = -3.000      CL =  0.3243
      Cm = -0.1316     CD =  0.01164   =>   CDf =  0.00769    CDp =  0.00395

 Side 1  free  transition at x/c =  0.5898   54
 Side 2  free  transition at x/c =  0.0524   28

  64   rms: 0.2722E-01   max: -.5867E+00   C at   28  2   RLX: 0.852
       a = -3.000      CL =  0.3243
      Cm = -0.1316     CD =  0.01164   =>   CDf =  0.00769    CDp =  0.00395

 Side 1  free  transition at x/c =  0.5898   54
 Side 2  free  transition at x/c =  0.0524   28

  65   rms: 0.2722E-01   max: -.5867E+00   C at   28  2   RLX: 0.852
       a = -3.000      CL =  0.3243
      Cm = -0.1316     CD =  0.01164   =>   CDf =  0.00769    CDp =  0.00395

 Side 1  free  transition at x/c =  0.5898   54
 Side 2  free  transition at x/c =  0.0524   28

  66   rms: 0.2722E-01   max: -.5867E+00   C at   28  2   RLX: 0.852
       a = -3.000      CL =  0.3243
      Cm = -0.1316     CD =  0.01164   =>   CDf =  0.00769    CDp =  0.00395

 Side 1  free  transition at x/c =  0.5898   54
 Side 2  free  transition at x/c =  0.0524   28

  67   rms: 0.2722E-01   max: -.5867E+00   C at   28  2   RLX: 0.852
       a = -3.000      CL =  0.3243
      Cm = -0.1316     CD =  0.01164   =>   CDf =  0.00769    CDp =  0.00395

 Side 1  free  transition at x/c =  0.5898   54
 Side 2  free  transition at x/c =  0.0524   28

  68   rms: 0.2722E-01   max: -.5867E+00   C at   28  2   RLX: 0.852
       a = -3.000      CL =  0.3243
      Cm = -0.1316     CD =  0.01164   =>   CDf =  0.00769    CDp =  0.00395

 Side 1  free  transition at x/c =  0.5898   54
 Side 2  free  transition at x/c =  0.0524   28

  69   rms: 0.2722E-01   max: -.5867E+00   C at   28  2   RLX: 0.852
       a = -3.000      CL =  0.3243
      Cm = -0.1316     CD =  0.01164   =>   CDf =  0.00769    CDp =  0.00395

 Side 1  free  transition at x/c =  0.5898   54
 Side 2  free  transition at x/c =  0.0524   28

  70   rms: 0.2722E-01   max: -.5867E+00   C at   28  2   RLX: 0.852
       a = -3.000      CL =  0.3243
      Cm = -0.1316     CD =  0.01164   =>   CDf =  0.00769    CDp =  0.00395

 Side 1  free  transition at x/c =  0.5898   54
 Side 2  free  transition at x/c =  0.0524   28

  71   rms: 0.2722E-01   max: -.5867E+00   C at   28  2   RLX: 0.852
       a = -3.000      CL =  0.3243
      Cm = -0.1316     CD =  0.01164   =>   CDf =  0.00769    CDp =  0.00395

 Side 1  free  transition at x/c =  0.5898   54
 Side 2  free  transition at x/c =  0.0524   28

  72   rms: 0.2722E-01   max: -.5867E+00   C at   28  2   RLX: 0.852
       a = -3.000      CL =  0.3243
      Cm = -0.1316     CD =  0.01164   =>   CDf =  0.00769    CDp =  0.00395

 Side 1  free  transition at x/c =  0.5898   54
 Side 2  free  transition at x/c =  0.0524   28

  73   rms: 0.2722E-01   max: -.5867E+00   C at   28  2   RLX: 0.852
       a = -3.000      CL =  0.3243
      Cm = -0.1316     CD =  0.01164   =>   CDf =  0.00769    CDp =  0.00395

 Side 1  free  transition at x/c =  0.5898   54
 Side 2  free  transition at x/c =  0.0524   28

  74   rms: 0.2722E-01   max: -.5867E+00   C at   28  2   RLX: 0.852
       a = -3.000      CL =  0.3243
      Cm = -0.1316     CD =  0.01164   =>   CDf =  0.00769    CDp =  0.00395

 Side 1  free  transition at x/c =  0.5898   54
 Side 2  free  transition at x/c =  0.0524   28

  75   rms: 0.2722E-01   max: -.5867E+00   C at   28  2   RLX: 0.852
       a = -3.000      CL =  0.3243
      Cm = -0.1316     CD =  0.01164   =>   CDf =  0.00769    CDp =  0.00395

 Side 1  free  transition at x/c =  0.5898   54
 Side 2  free  transition at x/c =  0.0524   28

  76   rms: 0.2722E-01   max: -.5867E+00   C at   28  2   RLX: 0.852
       a = -3.000      CL =  0.3243
      Cm = -0.1316     CD =  0.01164   =>   CDf =  0.00769    CDp =  0.00395

 Side 1  free  transition at x/c =  0.5898   54
 Side 2  free  transition at x/c =  0.0524   28

  77   rms: 0.2722E-01   max: -.5867E+00   C at   28  2   RLX: 0.852
       a = -3.000      CL =  0.3243
      Cm = -0.1316     CD =  0.01164   =>   CDf =  0.00769    CDp =  0.00395

 Side 1  free  transition at x/c =  0.5898   54
 Side 2  free  transition at x/c =  0.0524   28

  78   rms: 0.2722E-01   max: -.5867E+00   C at   28  2   RLX: 0.852
       a = -3.000      CL =  0.3243
      Cm = -0.1316     CD =  0.01164   =>   CDf =  0.00769    CDp =  0.00395

 Side 1  free  transition at x/c =  0.5898   54
 Side 2  free  transition at x/c =  0.0524   28

  79   rms: 0.2722E-01   max: -.5867E+00   C at   28  2   RLX: 0.852
       a = -3.000      CL =  0.3243
      Cm = -0.1316     CD =  0.01164   =>   CDf =  0.00769    CDp =  0.00395

 Side 1  free  transition at x/c =  0.5898   54
 Side 2  free  transition at x/c =  0.0524   28

  80   rms: 0.2722E-01   max: -.5867E+00   C at   28  2   RLX: 0.852
       a = -3.000      CL =  0.3243
      Cm = -0.1316     CD =  0.01164   =>   CDf =  0.00769    CDp =  0.00395

 Side 1  free  transition at x/c =  0.5898   54
 Side 2  free  transition at x/c =  0.0524   28

  81   rms: 0.2722E-01   max: -.5867E+00   C at   28  2   RLX: 0.852
       a = -3.000      CL =  0.3243
      Cm = -0.1316     CD =  0.01164   =>   CDf =  0.00769    CDp =  0.00395

 Side 1  free  transition at x/c =  0.5898   54
 Side 2  free  transition at x/c =  0.0524   28

  82   rms: 0.2722E-01   max: -.5867E+00   C at   28  2   RLX: 0.852
       a = -3.000      CL =  0.3243
      Cm = -0.1316     CD =  0.01164   =>   CDf =  0.00769    CDp =  0.00395

 Side 1  free  transition at x/c =  0.5898   54
 Side 2  free  transition at x/c =  0.0524   28

  83   rms: 0.2722E-01   max: -.5867E+00   C at   28  2   RLX: 0.852
       a = -3.000      CL =  0.3243
      Cm = -0.1316     CD =  0.01164   =>   CDf =  0.00769    CDp =  0.00395

 Side 1  free  transition at x/c =  0.5898   54
 Side 2  free  transition at x/c =  0.0524   28

  84   rms: 0.2722E-01   max: -.5867E+00   C at   28  2   RLX: 0.852
       a = -3.000      CL =  0.3243
      Cm = -0.1316     CD =  0.01164   =>   CDf =  0.00769    CDp =  0.00395

 Side 1  free  transition at x/c =  0.5898   54
 Side 2  free  transition at x/c =  0.0524   28

  85   rms: 0.2722E-01   max: -.5867E+00   C at   28  2   RLX: 0.852
       a = -3.000      CL =  0.3243
      Cm = -0.1316     CD =  0.01164   =>   CDf =  0.00769    CDp =  0.00395

 Side 1  free  transition at x/c =  0.5898   54
 Side 2  free  transition at x/c =  0.0524   28

  86   rms: 0.2722E-01   max: -.5867E+00   C at   28  2   RLX: 0.852
       a = -3.000      CL =  0.3243
      Cm = -0.1316     CD =  0.01164   =>   CDf =  0.00769    CDp =  0.00395

 Side 1  free  transition at x/c =  0.5898   54
 Side 2  free  transition at x/c =  0.0524   28

  87   rms: 0.2722E-01   max: -.5867E+00   C at   28  2   RLX: 0.852
       a = -3.000      CL =  0.3243
      Cm = -0.1316     CD =  0.01164   =>   CDf =  0.00769    CDp =  0.00395

 Side 1  free  transition at x/c =  0.5898   54
 Side 2  free  transition at x/c =  0.0524   28

  88   rms: 0.2722E-01   max: -.5867E+00   C at   28  2   RLX: 0.852
       a = -3.000      CL =  0.3243
      Cm = -0.1316     CD =  0.01164   =>   CDf =  0.00769    CDp =  0.00395

 Side 1  free  transition at x/c =  0.5898   54
 Side 2  free  transition at x/c =  0.0524   28

  89   rms: 0.2722E-01   max: -.5867E+00   C at   28  2   RLX: 0.852
       a = -3.000      CL =  0.3243
      Cm = -0.1316     CD =  0.01164   =>   CDf =  0.00769    CDp =  0.00395

 Side 1  free  transition at x/c =  0.5898   54
 Side 2  free  transition at x/c =  0.0524   28

  90   rms: 0.2722E-01   max: -.5867E+00   C at   28  2   RLX: 0.852
       a = -3.000      CL =  0.3243
      Cm = -0.1316     CD =  0.01164   =>   CDf =  0.00769    CDp =  0.00395

 Side 1  free  transition at x/c =  0.5898   54
 Side 2  free  transition at x/c =  0.0524   28

  91   rms: 0.2722E-01   max: -.5867E+00   C at   28  2   RLX: 0.852
       a = -3.000      CL =  0.3243
      Cm = -0.1316     CD =  0.01164   =>   CDf =  0.00769    CDp =  0.00395

 Side 1  free  transition at x/c =  0.5898   54
 Side 2  free  transition at x/c =  0.0524   28

  92   rms: 0.2722E-01   max: -.5867E+00   C at   28  2   RLX: 0.852
       a = -3.000      CL =  0.3243
      Cm = -0.1316     CD =  0.01164   =>   CDf =  0.00769    CDp =  0.00395

 Side 1  free  transition at x/c =  0.5898   54
 Side 2  free  transition at x/c =  0.0524   28

  93   rms: 0.2722E-01   max: -.5867E+00   C at   28  2   RLX: 0.852
       a = -3.000      CL =  0.3243
      Cm = -0.1316     CD =  0.01164   =>   CDf =  0.00769    CDp =  0.00395

 Side 1  free  transition at x/c =  0.5898   54
 Side 2  free  transition at x/c =  0.0524   28

  94   rms: 0.2722E-01   max: -.5867E+00   C at   28  2   RLX: 0.852
       a = -3.000      CL =  0.3243
      Cm = -0.1316     CD =  0.01164   =>   CDf =  0.00769    CDp =  0.00395

 Side 1  free  transition at x/c =  0.5898   54
 Side 2  free  transition at x/c =  0.0524   28

  95   rms: 0.2722E-01   max: -.5867E+00   C at   28  2   RLX: 0.852
       a = -3.000      CL =  0.3243
      Cm = -0.1316     CD =  0.01164   =>   CDf =  0.00769    CDp =  0.00395

 Side 1  free  transition at x/c =  0.5898   54
 Side 2  free  transition at x/c =  0.0524   28

  96   rms: 0.2722E-01   max: -.5867E+00   C at   28  2   RLX: 0.852
       a = -3.000      CL =  0.3243
      Cm = -0.1316     CD =  0.01164   =>   CDf =  0.00769    CDp =  0.00395

 Side 1  free  transition at x/c =  0.5898   54
 Side 2  free  transition at x/c =  0.0524   28

  97   rms: 0.2722E-01   max: -.5867E+00   C at   28  2   RLX: 0.852
       a = -3.000      CL =  0.3243
      Cm = -0.1316     CD =  0.01164   =>   CDf =  0.00769    CDp =  0.00395

 Side 1  free  transition at x/c =  0.5898   54
 Side 2  free  transition at x/c =  0.0524   28

  98   rms: 0.2722E-01   max: -.5867E+00   C at   28  2   RLX: 0.852
       a = -3.000      CL =  0.3243
      Cm = -0.1316     CD =  0.01164   =>   CDf =  0.00769    CDp =  0.00395

 Side 1  free  transition at x/c =  0.5898   54
 Side 2  free  transition at x/c =  0.0524   28

  99   rms: 0.2722E-01   max: -.5867E+00   C at   28  2   RLX: 0.852
       a = -3.000      CL =  0.3243
      Cm = -0.1316     CD =  0.01164   =>   CDf =  0.00769    CDp =  0.00395

 Side 1  free  transition at x/c =  0.5898   54
 Side 2  free  transition at x/c =  0.0524   28

 100   rms: 0.2722E-01   max: -.5867E+00   C at   28  2   RLX: 0.852
       a = -3.000      CL =  0.3243
      Cm = -0.1316     CD =  0.01164   =>   CDf =  0.00769    CDp =  0.00395

 Side 1  free  transition at x/c =  0.5898   54
 Side 2  free  transition at x/c =  0.0524   28

 101   rms: 0.2722E-01   max: -.5867E+00   C at   28  2   RLX: 0.852
       a = -3.000      CL =  0.3243
      Cm = -0.1316     CD =  0.01164   =>   CDf =  0.00769    CDp =  0.00395

 Side 1  free  transition at x/c =  0.5898   54
 Side 2  free  transition at x/c =  0.0524   28

 102   rms: 0.2722E-01   max: -.5867E+00   C at   28  2   RLX: 0.852
       a = -3.000      CL =  0.3243
      Cm = -0.1316     CD =  0.01164   =>   CDf =  0.00769    CDp =  0.00395

 Side 1  free  transition at x/c =  0.5898   54
 Side 2  free  transition at x/c =  0.0524   28

 103   rms: 0.2722E-01   max: -.5867E+00   C at   28  2   RLX: 0.852
       a = -3.000      CL =  0.3243
      Cm = -0.1316     CD =  0.01164   =>   CDf =  0.00769    CDp =  0.00395

 Side 1  free  transition at x/c =  0.5898   54
 Side 2  free  transition at x/c =  0.0524   28

 104   rms: 0.2722E-01   max: -.5867E+00   C at   28  2   RLX: 0.852
       a = -3.000      CL =  0.3243
      Cm = -0.1316     CD =  0.01164   =>   CDf =  0.00769    CDp =  0.00395

 Side 1  free  transition at x/c =  0.5898   54
 Side 2  free  transition at x/c =  0.0524   28

 105   rms: 0.2722E-01   max: -.5867E+00   C at   28  2   RLX: 0.852
       a = -3.000      CL =  0.3243
      Cm = -0.1316     CD =  0.01164   =>   CDf =  0.00769    CDp =  0.00395

 Side 1  free  transition at x/c =  0.5898   54
 Side 2  free  transition at x/c =  0.0524   28

 106   rms: 0.2722E-01   max: -.5867E+00   C at   28  2   RLX: 0.852
       a = -3.000      CL =  0.3243
      Cm = -0.1316     CD =  0.01164   =>   CDf =  0.00769    CDp =  0.00395

 Side 1  free  transition at x/c =  0.5898   54
 Side 2  free  transition at x/c =  0.0524   28

 107   rms: 0.2722E-01   max: -.5867E+00   C at   28  2   RLX: 0.852
       a = -3.000      CL =  0.3243
      Cm = -0.1316     CD =  0.01164   =>   CDf =  0.00769    CDp =  0.00395

 Side 1  free  transition at x/c =  0.5898   54
 Side 2  free  transition at x/c =  0.0524   28

 108   rms: 0.2722E-01   max: -.5867E+00   C at   28  2   RLX: 0.852
       a = -3.000      CL =  0.3243
      Cm = -0.1316     CD =  0.01164   =>   CDf =  0.00769    CDp =  0.00395

 Side 1  free  transition at x/c =  0.5898   54
 Side 2  free  transition at x/c =  0.0524   28

 109   rms: 0.2722E-01   max: -.5867E+00   C at   28  2   RLX: 0.852
       a = -3.000      CL =  0.3243
      Cm = -0.1316     CD =  0.01164   =>   CDf =  0.00769    CDp =  0.00395

 Side 1  free  transition at x/c =  0.5898   54
 Side 2  free  transition at x/c =  0.0524   28

 110   rms: 0.2722E-01   max: -.5867E+00   C at   28  2   RLX: 0.852
       a = -3.000      CL =  0.3243
      Cm = -0.1316     CD =  0.01164   =>   CDf =  0.00769    CDp =  0.00395

 Side 1  free  transition at x/c =  0.5898   54
 Side 2  free  transition at x/c =  0.0524   28

 111   rms: 0.2722E-01   max: -.5867E+00   C at   28  2   RLX: 0.852
       a = -3.000      CL =  0.3243
      Cm = -0.1316     CD =  0.01164   =>   CDf =  0.00769    CDp =  0.00395

 Side 1  free  transition at x/c =  0.5898   54
 Side 2  free  transition at x/c =  0.0524   28

 112   rms: 0.2722E-01   max: -.5867E+00   C at   28  2   RLX: 0.852
       a = -3.000      CL =  0.3243
      Cm = -0.1316     CD =  0.01164   =>   CDf =  0.00769    CDp =  0.00395

 Side 1  free  transition at x/c =  0.5898   54
 Side 2  free  transition at x/c =  0.0524   28

 113   rms: 0.2722E-01   max: -.5867E+00   C at   28  2   RLX: 0.852
       a = -3.000      CL =  0.3243
      Cm = -0.1316     CD =  0.01164   =>   CDf =  0.00769    CDp =  0.00395

 Side 1  free  transition at x/c =  0.5898   54
 Side 2  free  transition at x/c =  0.0524   28

 114   rms: 0.2722E-01   max: -.5867E+00   C at   28  2   RLX: 0.852
       a = -3.000      CL =  0.3243
      Cm = -0.1316     CD =  0.01164   =>   CDf =  0.00769    CDp =  0.00395

 Side 1  free  transition at x/c =  0.5898   54
 Side 2  free  transition at x/c =  0.0524   28

 115   rms: 0.2722E-01   max: -.5867E+00   C at   28  2   RLX: 0.852
       a = -3.000      CL =  0.3243
      Cm = -0.1316     CD =  0.01164   =>   CDf =  0.00769    CDp =  0.00395

 Side 1  free  transition at x/c =  0.5898   54
 Side 2  free  transition at x/c =  0.0524   28

 116   rms: 0.2722E-01   max: -.5867E+00   C at   28  2   RLX: 0.852
       a = -3.000      CL =  0.3243
      Cm = -0.1316     CD =  0.01164   =>   CDf =  0.00769    CDp =  0.00395

 Side 1  free  transition at x/c =  0.5898   54
 Side 2  free  transition at x/c =  0.0524   28

 117   rms: 0.2722E-01   max: -.5867E+00   C at   28  2   RLX: 0.852
       a = -3.000      CL =  0.3243
      Cm = -0.1316     CD =  0.01164   =>   CDf =  0.00769    CDp =  0.00395

 Side 1  free  transition at x/c =  0.5898   54
 Side 2  free  transition at x/c =  0.0524   28

 118   rms: 0.2722E-01   max: -.5867E+00   C at   28  2   RLX: 0.852
       a = -3.000      CL =  0.3243
      Cm = -0.1316     CD =  0.01164   =>   CDf =  0.00769    CDp =  0.00395

 Side 1  free  transition at x/c =  0.5898   54
 Side 2  free  transition at x/c =  0.0524   28

 119   rms: 0.2722E-01   max: -.5867E+00   C at   28  2   RLX: 0.852
       a = -3.000      CL =  0.3243
      Cm = -0.1316     CD =  0.01164   =>   CDf =  0.00769    CDp =  0.00395

 Side 1  free  transition at x/c =  0.5898   54
 Side 2  free  transition at x/c =  0.0524   28

 120   rms: 0.2722E-01   max: -.5867E+00   C at   28  2   RLX: 0.852
       a = -3.000      CL =  0.3243
      Cm = -0.1316     CD =  0.01164   =>   CDf =  0.00769    CDp =  0.00395

 Side 1  free  transition at x/c =  0.5898   54
 Side 2  free  transition at x/c =  0.0524   28

 121   rms: 0.2722E-01   max: -.5867E+00   C at   28  2   RLX: 0.852
       a = -3.000      CL =  0.3243
      Cm = -0.1316     CD =  0.01164   =>   CDf =  0.00769    CDp =  0.00395

 Side 1  free  transition at x/c =  0.5898   54
 Side 2  free  transition at x/c =  0.0524   28

 122   rms: 0.2722E-01   max: -.5867E+00   C at   28  2   RLX: 0.852
       a = -3.000      CL =  0.3243
      Cm = -0.1316     CD =  0.01164   =>   CDf =  0.00769    CDp =  0.00395

 Side 1  free  transition at x/c =  0.5898   54
 Side 2  free  transition at x/c =  0.0524   28

 123   rms: 0.2722E-01   max: -.5867E+00   C at   28  2   RLX: 0.852
       a = -3.000      CL =  0.3243
      Cm = -0.1316     CD =  0.01164   =>   CDf =  0.00769    CDp =  0.00395

 Side 1  free  transition at x/c =  0.5898   54
 Side 2  free  transition at x/c =  0.0524   28

 124   rms: 0.2722E-01   max: -.5867E+00   C at   28  2   RLX: 0.852
       a = -3.000      CL =  0.3243
      Cm = -0.1316     CD =  0.01164   =>   CDf =  0.00769    CDp =  0.00395

 Side 1  free  transition at x/c =  0.5898   54
 Side 2  free  transition at x/c =  0.0524   28

 125   rms: 0.2722E-01   max: -.5867E+00   C at   28  2   RLX: 0.852
       a = -3.000      CL =  0.3243
      Cm = -0.1316     CD =  0.01164   =>   CDf =  0.00769    CDp =  0.00395

 Side 1  free  transition at x/c =  0.5898   54
 Side 2  free  transition at x/c =  0.0524   28

 126   rms: 0.2722E-01   max: -.5867E+00   C at   28  2   RLX: 0.852
       a = -3.000      CL =  0.3243
      Cm = -0.1316     CD =  0.01164   =>   CDf =  0.00769    CDp =  0.00395

 Side 1  free  transition at x/c =  0.5898   54
 Side 2  free  transition at x/c =  0.0524   28

 127   rms: 0.2722E-01   max: -.5867E+00   C at   28  2   RLX: 0.852
       a = -3.000      CL =  0.3243
      Cm = -0.1316     CD =  0.01164   =>   CDf =  0.00769    CDp =  0.00395

 Side 1  free  transition at x/c =  0.5898   54
 Side 2  free  transition at x/c =  0.0524   28

 128   rms: 0.2722E-01   max: -.5867E+00   C at   28  2   RLX: 0.852
       a = -3.000      CL =  0.3243
      Cm = -0.1316     CD =  0.01164   =>   CDf =  0.00769    CDp =  0.00395

 Side 1  free  transition at x/c =  0.5898   54
 Side 2  free  transition at x/c =  0.0524   28

 129   rms: 0.2722E-01   max: -.5867E+00   C at   28  2   RLX: 0.852
       a = -3.000      CL =  0.3243
      Cm = -0.1316     CD =  0.01164   =>   CDf =  0.00769    CDp =  0.00395

 Side 1  free  transition at x/c =  0.5898   54
 Side 2  free  transition at x/c =  0.0524   28

 130   rms: 0.2722E-01   max: -.5867E+00   C at   28  2   RLX: 0.852
       a = -3.000      CL =  0.3243
      Cm = -0.1316     CD =  0.01164   =>   CDf =  0.00769    CDp =  0.00395

 Side 1  free  transition at x/c =  0.5898   54
 Side 2  free  transition at x/c =  0.0524   28

 131   rms: 0.2722E-01   max: -.5867E+00   C at   28  2   RLX: 0.852
       a = -3.000      CL =  0.3243
      Cm = -0.1316     CD =  0.01164   =>   CDf =  0.00769    CDp =  0.00395

 Side 1  free  transition at x/c =  0.5898   54
 Side 2  free  transition at x/c =  0.0524   28

 132   rms: 0.2722E-01   max: -.5867E+00   C at   28  2   RLX: 0.852
       a = -3.000      CL =  0.3243
      Cm = -0.1316     CD =  0.01164   =>   CDf =  0.00769    CDp =  0.00395

 Side 1  free  transition at x/c =  0.5898   54
 Side 2  free  transition at x/c =  0.0524   28

 133   rms: 0.2722E-01   max: -.5867E+00   C at   28  2   RLX: 0.852
       a = -3.000      CL =  0.3243
      Cm = -0.1316     CD =  0.01164   =>   CDf =  0.00769    CDp =  0.00395

 Side 1  free  transition at x/c =  0.5898   54
 Side 2  free  transition at x/c =  0.0524   28

 134   rms: 0.2722E-01   max: -.5867E+00   C at   28  2   RLX: 0.852
       a = -3.000      CL =  0.3243
      Cm = -0.1316     CD =  0.01164   =>   CDf =  0.00769    CDp =  0.00395

 Side 1  free  transition at x/c =  0.5898   54
 Side 2  free  transition at x/c =  0.0524   28

 135   rms: 0.2722E-01   max: -.5867E+00   C at   28  2   RLX: 0.852
       a = -3.000      CL =  0.3243
      Cm = -0.1316     CD =  0.01164   =>   CDf =  0.00769    CDp =  0.00395

 Side 1  free  transition at x/c =  0.5898   54
 Side 2  free  transition at x/c =  0.0524   28

 136   rms: 0.2722E-01   max: -.5867E+00   C at   28  2   RLX: 0.852
       a = -3.000      CL =  0.3243
      Cm = -0.1316     CD =  0.01164   =>   CDf =  0.00769    CDp =  0.00395

 Side 1  free  transition at x/c =  0.5898   54
 Side 2  free  transition at x/c =  0.0524   28

 137   rms: 0.2722E-01   max: -.5867E+00   C at   28  2   RLX: 0.852
       a = -3.000      CL =  0.3243
      Cm = -0.1316     CD =  0.01164   =>   CDf =  0.00769    CDp =  0.00395

 Side 1  free  transition at x/c =  0.5898   54
 Side 2  free  transition at x/c =  0.0524   28

 138   rms: 0.2722E-01   max: -.5867E+00   C at   28  2   RLX: 0.852
       a = -3.000      CL =  0.3243
      Cm = -0.1316     CD =  0.01164   =>   CDf =  0.00769    CDp =  0.00395

 Side 1  free  transition at x/c =  0.5898   54
 Side 2  free  transition at x/c =  0.0524   28

 139   rms: 0.2722E-01   max: -.5867E+00   C at   28  2   RLX: 0.852
       a = -3.000      CL =  0.3243
      Cm = -0.1316     CD =  0.01164   =>   CDf =  0.00769    CDp =  0.00395

 Side 1  free  transition at x/c =  0.5898   54
 Side 2  free  transition at x/c =  0.0524   28

 140   rms: 0.2722E-01   max: -.5867E+00   C at   28  2   RLX: 0.852
       a = -3.000      CL =  0.3243
      Cm = -0.1316     CD =  0.01164   =>   CDf =  0.00769    CDp =  0.00395

 Side 1  free  transition at x/c =  0.5898   54
 Side 2  free  transition at x/c =  0.0524   28

 141   rms: 0.2722E-01   max: -.5867E+00   C at   28  2   RLX: 0.852
       a = -3.000      CL =  0.3243
      Cm = -0.1316     CD =  0.01164   =>   CDf =  0.00769    CDp =  0.00395

 Side 1  free  transition at x/c =  0.5898   54
 Side 2  free  transition at x/c =  0.0524   28

 142   rms: 0.2722E-01   max: -.5867E+00   C at   28  2   RLX: 0.852
       a = -3.000      CL =  0.3243
      Cm = -0.1316     CD =  0.01164   =>   CDf =  0.00769    CDp =  0.00395

 Side 1  free  transition at x/c =  0.5898   54
 Side 2  free  transition at x/c =  0.0524   28

 143   rms: 0.2722E-01   max: -.5867E+00   C at   28  2   RLX: 0.852
       a = -3.000      CL =  0.3243
      Cm = -0.1316     CD =  0.01164   =>   CDf =  0.00769    CDp =  0.00395

 Side 1  free  transition at x/c =  0.5898   54
 Side 2  free  transition at x/c =  0.0524   28

 144   rms: 0.2722E-01   max: -.5867E+00   C at   28  2   RLX: 0.852
       a = -3.000      CL =  0.3243
      Cm = -0.1316     CD =  0.01164   =>   CDf =  0.00769    CDp =  0.00395

 Side 1  free  transition at x/c =  0.5898   54
 Side 2  free  transition at x/c =  0.0524   28

 145   rms: 0.2722E-01   max: -.5867E+00   C at   28  2   RLX: 0.852
       a = -3.000      CL =  0.3243
      Cm = -0.1316     CD =  0.01164   =>   CDf =  0.00769    CDp =  0.00395

 Side 1  free  transition at x/c =  0.5898   54
 Side 2  free  transition at x/c =  0.0524   28

 146   rms: 0.2722E-01   max: -.5867E+00   C at   28  2   RLX: 0.852
       a = -3.000      CL =  0.3243
      Cm = -0.1316     CD =  0.01164   =>   CDf =  0.00769    CDp =  0.00395

 Side 1  free  transition at x/c =  0.5898   54
 Side 2  free  transition at x/c =  0.0524   28

 147   rms: 0.2722E-01   max: -.5867E+00   C at   28  2   RLX: 0.852
       a = -3.000      CL =  0.3243
      Cm = -0.1316     CD =  0.01164   =>   CDf =  0.00769    CDp =  0.00395

 Side 1  free  transition at x/c =  0.5898   54
 Side 2  free  transition at x/c =  0.0524   28

 148   rms: 0.2722E-01   max: -.5867E+00   C at   28  2   RLX: 0.852
       a = -3.000      CL =  0.3243
      Cm = -0.1316     CD =  0.01164   =>   CDf =  0.00769    CDp =  0.00395

 Side 1  free  transition at x/c =  0.5898   54
 Side 2  free  transition at x/c =  0.0524   28

 149   rms: 0.2722E-01   max: -.5867E+00   C at   28  2   RLX: 0.852
       a = -3.000      CL =  0.3243
      Cm = -0.1316     CD =  0.01164   =>   CDf =  0.00769    CDp =  0.00395

 Side 1  free  transition at x/c =  0.5898   54
 Side 2  free  transition at x/c =  0.0524   28

 150   rms: 0.2722E-01   max: -.5867E+00   C at   28  2   RLX: 0.852
       a = -3.000      CL =  0.3243
      Cm = -0.1316     CD =  0.01164   =>   CDf =  0.00769    CDp =  0.00395

 Side 1  free  transition at x/c =  0.5898   54
 Side 2  free  transition at x/c =  0.0524   28

 151   rms: 0.2722E-01   max: -.5867E+00   C at   28  2   RLX: 0.852
       a = -3.000      CL =  0.3243
      Cm = -0.1316     CD =  0.01164   =>   CDf =  0.00769    CDp =  0.00395

 Side 1  free  transition at x/c =  0.5898   54
 Side 2  free  transition at x/c =  0.0524   28

 152   rms: 0.2722E-01   max: -.5867E+00   C at   28  2   RLX: 0.852
       a = -3.000      CL =  0.3243
      Cm = -0.1316     CD =  0.01164   =>   CDf =  0.00769    CDp =  0.00395

 Side 1  free  transition at x/c =  0.5898   54
 Side 2  free  transition at x/c =  0.0524   28

 153   rms: 0.2722E-01   max: -.5867E+00   C at   28  2   RLX: 0.852
       a = -3.000      CL =  0.3243
      Cm = -0.1316     CD =  0.01164   =>   CDf =  0.00769    CDp =  0.00395

 Side 1  free  transition at x/c =  0.5898   54
 Side 2  free  transition at x/c =  0.0524   28

 154   rms: 0.2722E-01   max: -.5867E+00   C at   28  2   RLX: 0.852
       a = -3.000      CL =  0.3243
      Cm = -0.1316     CD =  0.01164   =>   CDf =  0.00769    CDp =  0.00395

 Side 1  free  transition at x/c =  0.5898   54
 Side 2  free  transition at x/c =  0.0524   28

 155   rms: 0.2722E-01   max: -.5867E+00   C at   28  2   RLX: 0.852
       a = -3.000      CL =  0.3243
      Cm = -0.1316     CD =  0.01164   =>   CDf =  0.00769    CDp =  0.00395
 VISCAL:  Convergence failed
 Calculating wake trajectory ...
 Calculating source influence matrix ...

 Solving BL system ...

 Side 1  free  transition at x/c =  0.5898   54
 Side 2  free  transition at x/c =  0.0524   28

   1   rms: 0.8628E-01   max: -.9349E+00   C at   28  2   RLX: 0.535
       a = -2.500      CL =  0.3493
      Cm = -0.1304     CD =  0.01157   =>   CDf =  0.00770    CDp =  0.00387

 Side 1  free  transition at x/c =  0.5799   54
 Side 2  free  transition at x/c =  0.1079   35

   2   rms: 0.4405E-01   max: -.4492E+00   C at   35  2
       a = -2.500      CL =  0.3669
      Cm = -0.1291     CD =  0.01126   =>   CDf =  0.00751    CDp =  0.00374

 Side 1  free  transition at x/c =  0.5744   53
 Side 2  free  transition at x/c =  0.1133   35

   3   rms: 0.9311E-02   max: -.1857E+00   C at   35  2
       a = -2.500      CL =  0.3677
      Cm = -0.1292     CD =  0.01130   =>   CDf =  0.00754    CDp =  0.00376

 Side 1  free  transition at x/c =  0.5739   53
 Side 2  free  transition at x/c =  0.1141   35

   4   rms: 0.6317E-03   max: 0.1393E-01   C at   35  2
       a = -2.500      CL =  0.3678
      Cm = -0.1292     CD =  0.01130   =>   CDf =  0.00752    CDp =  0.00378

 Side 1  free  transition at x/c =  0.5739   53
 Side 2  free  transition at x/c =  0.1140   35

   5   rms: 0.2159E-05   max: -.3819E-04   D at   36  2
       a = -2.500      CL =  0.3678
      Cm = -0.1292     CD =  0.01130   =>   CDf =  0.00752    CDp =  0.00378
 plradd ia,ip,cpol            3           0  1.43870777E-02

 Point added to stored polar  1
 Point written to save file  goe614_Re500k.base.pol                          
 Dump file unspecified or not available
 Calculating wake trajectory ...
 Calculating source influence matrix ...

 Solving BL system ...

 Side 1  free  transition at x/c =  0.5739   53
 Side 2  free  transition at x/c =  0.1140   35

   1   rms: 0.7828E-01   max: -.3427E+00   D at   26  2
       a = -2.000      CL =  0.4153
      Cm = -0.1273     CD =  0.01121   =>   CDf =  0.00753    CDp =  0.00367

 Side 1  free  transition at x/c =  0.5577   53
 Side 2  free  transition at x/c =  0.1388   36

   2   rms: 0.6760E-01   max: -.1572E+01   C at   36  2   RLX: 0.318
       a = -2.000      CL =  0.4137
      Cm = -0.1271     CD =  0.01118   =>   CDf =  0.00757    CDp =  0.00361

 Side 1  free  transition at x/c =  0.5581   53
 Side 2  free  transition at x/c =  0.1406   36

   3   rms: 0.3346E-01   max: -.7322E+00   C at   36  2   RLX: 0.683
       a = -2.000      CL =  0.4129
      Cm = -0.1269     CD =  0.01118   =>   CDf =  0.00756    CDp =  0.00361

 Side 1  free  transition at x/c =  0.5580   53
 Side 2  free  transition at x/c =  0.1550   37

   4   rms: 0.3720E-01   max: -.8620E+00   C at   37  2   RLX: 0.580
       a = -2.000      CL =  0.4119
      Cm = -0.1267     CD =  0.01113   =>   CDf =  0.00750    CDp =  0.00363

 Side 1  free  transition at x/c =  0.5582   53
 Side 2  free  transition at x/c =  0.1659   38

   5   rms: 0.1603E-01   max: -.3340E+00   C at   38  2
       a = -2.000      CL =  0.4109
      Cm = -0.1267     CD =  0.01106   =>   CDf =  0.00744    CDp =  0.00362

 Side 1  free  transition at x/c =  0.5584   53
 Side 2  free  transition at x/c =  0.1708   38

   6   rms: 0.6449E-02   max: -.1077E+00   C at   53  1
       a = -2.000      CL =  0.4110
      Cm = -0.1267     CD =  0.01107   =>   CDf =  0.00743    CDp =  0.00364

 Side 1  free  transition at x/c =  0.5584   53
 Side 2  free  transition at x/c =  0.1741   39

   7   rms: 0.7843E-02   max: -.1079E+00   C at   53  1
       a = -2.000      CL =  0.4110
      Cm = -0.1267     CD =  0.01107   =>   CDf =  0.00740    CDp =  0.00366

 Side 1  free  transition at x/c =  0.5584   53
 Side 2  free  transition at x/c =  0.1717   39

   8   rms: 0.6088E-02   max: -.1079E+00   C at   53  1
       a = -2.000      CL =  0.4110
      Cm = -0.1267     CD =  0.01107   =>   CDf =  0.00742    CDp =  0.00365

 Side 1  free  transition at x/c =  0.5584   53
 Side 2  free  transition at x/c =  0.1718   39

   9   rms: 0.6083E-02   max: -.1079E+00   C at   53  1
       a = -2.000      CL =  0.4110
      Cm = -0.1267     CD =  0.01107   =>   CDf =  0.00742    CDp =  0.00365

 Side 1  free  transition at x/c =  0.5584   53
 Side 2  free  transition at x/c =  0.1718   39

  10   rms: 0.6083E-02   max: -.1079E+00   C at   53  1
       a = -2.000      CL =  0.4110
      Cm = -0.1267     CD =  0.01107   =>   CDf =  0.00742    CDp =  0.00365

 Side 1  free  transition at x/c =  0.5584   53
 Side 2  free  transition at x/c =  0.1718   39

  11   rms: 0.6083E-02   max: -.1079E+00   C at   53  1
       a = -2.000      CL =  0.4110
      Cm = -0.1267     CD =  0.01107   =>   CDf =  0.00742    CDp =  0.00365

 Side 1  free  transition at x/c =  0.5584   53
 Side 2  free  transition at x/c =  0.1718   39

  12   rms: 0.6083E-02   max: -.1079E+00   C at   53  1
       a = -2.000      CL =  0.4110
      Cm = -0.1267     CD =  0.01107   =>   CDf =  0.00742    CDp =  0.00365

 Side 1  free  transition at x/c =  0.5584   53
 Side 2  free  transition at x/c =  0.1718   39

  13   rms: 0.6082E-02   max: -.1079E+00   C at   53  1
       a = -2.000      CL =  0.4110
      Cm = -0.1267     CD =  0.01107   =>   CDf =  0.00742    CDp =  0.00365

 Side 1  free  transition at x/c =  0.5584   53
 Side 2  free  transition at x/c =  0.1718   39

  14   rms: 0.6083E-02   max: -.1079E+00   C at   53  1
       a = -2.000      CL =  0.4110
      Cm = -0.1267     CD =  0.01107   =>   CDf =  0.00742    CDp =  0.00365

 Side 1  free  transition at x/c =  0.5584   53
 Side 2  free  transition at x/c =  0.1718   39

  15   rms: 0.6083E-02   max: -.1079E+00   C at   53  1
       a = -2.000      CL =  0.4110
      Cm = -0.1267     CD =  0.01107   =>   CDf =  0.00742    CDp =  0.00365

 Side 1  free  transition at x/c =  0.5584   53
 Side 2  free  transition at x/c =  0.1718   39

  16   rms: 0.6083E-02   max: -.1079E+00   C at   53  1
       a = -2.000      CL =  0.4110
      Cm = -0.1267     CD =  0.01107   =>   CDf =  0.00742    CDp =  0.00365

 Side 1  free  transition at x/c =  0.5584   53
 Side 2  free  transition at x/c =  0.1718   39

  17   rms: 0.6083E-02   max: -.1079E+00   C at   53  1
       a = -2.000      CL =  0.4110
      Cm = -0.1267     CD =  0.01107   =>   CDf =  0.00742    CDp =  0.00365

 Side 1  free  transition at x/c =  0.5584   53
 Side 2  free  transition at x/c =  0.1718   39

  18   rms: 0.6083E-02   max: -.1079E+00   C at   53  1
       a = -2.000      CL =  0.4110
      Cm = -0.1267     CD =  0.01107   =>   CDf =  0.00742    CDp =  0.00365

 Side 1  free  transition at x/c =  0.5584   53
 Side 2  free  transition at x/c =  0.1718   39

  19   rms: 0.6083E-02   max: -.1079E+00   C at   53  1
       a = -2.000      CL =  0.4110
      Cm = -0.1267     CD =  0.01107   =>   CDf =  0.00742    CDp =  0.00365

 Side 1  free  transition at x/c =  0.5584   53
 Side 2  free  transition at x/c =  0.1718   39

  20   rms: 0.6083E-02   max: -.1079E+00   C at   53  1
       a = -2.000      CL =  0.4110
      Cm = -0.1267     CD =  0.01107   =>   CDf =  0.00742    CDp =  0.00365

 Side 1  free  transition at x/c =  0.5584   53
 Side 2  free  transition at x/c =  0.1718   39

  21   rms: 0.6082E-02   max: -.1079E+00   C at   53  1
       a = -2.000      CL =  0.4110
      Cm = -0.1267     CD =  0.01107   =>   CDf =  0.00742    CDp =  0.00365

 Side 1  free  transition at x/c =  0.5584   53
 Side 2  free  transition at x/c =  0.1718   39

  22   rms: 0.6082E-02   max: -.1079E+00   C at   53  1
       a = -2.000      CL =  0.4110
      Cm = -0.1267     CD =  0.01107   =>   CDf =  0.00742    CDp =  0.00365

 Side 1  free  transition at x/c =  0.5584   53
 Side 2  free  transition at x/c =  0.1718   39

  23   rms: 0.6083E-02   max: -.1079E+00   C at   53  1
       a = -2.000      CL =  0.4110
      Cm = -0.1267     CD =  0.01107   =>   CDf =  0.00742    CDp =  0.00365

 Side 1  free  transition at x/c =  0.5584   53
 Side 2  free  transition at x/c =  0.1718   39

  24   rms: 0.6083E-02   max: -.1079E+00   C at   53  1
       a = -2.000      CL =  0.4110
      Cm = -0.1267     CD =  0.01107   =>   CDf =  0.00742    CDp =  0.00365

 Side 1  free  transition at x/c =  0.5584   53
 Side 2  free  transition at x/c =  0.1718   39

  25   rms: 0.6083E-02   max: -.1079E+00   C at   53  1
       a = -2.000      CL =  0.4110
      Cm = -0.1267     CD =  0.01107   =>   CDf =  0.00742    CDp =  0.00365

 Side 1  free  transition at x/c =  0.5584   53
 Side 2  free  transition at x/c =  0.1718   39

  26   rms: 0.6083E-02   max: -.1079E+00   C at   53  1
       a = -2.000      CL =  0.4110
      Cm = -0.1267     CD =  0.01107   =>   CDf =  0.00742    CDp =  0.00365

 Side 1  free  transition at x/c =  0.5584   53
 Side 2  free  transition at x/c =  0.1718   39

  27   rms: 0.6083E-02   max: -.1079E+00   C at   53  1
       a = -2.000      CL =  0.4110
      Cm = -0.1267     CD =  0.01107   =>   CDf =  0.00742    CDp =  0.00365

 Side 1  free  transition at x/c =  0.5584   53
 Side 2  free  transition at x/c =  0.1718   39

  28   rms: 0.6083E-02   max: -.1079E+00   C at   53  1
       a = -2.000      CL =  0.4110
      Cm = -0.1267     CD =  0.01107   =>   CDf =  0.00742    CDp =  0.00365

 Side 1  free  transition at x/c =  0.5584   53
 Side 2  free  transition at x/c =  0.1718   39

  29   rms: 0.6083E-02   max: -.1079E+00   C at   53  1
       a = -2.000      CL =  0.4110
      Cm = -0.1267     CD =  0.01107   =>   CDf =  0.00742    CDp =  0.00365

 Side 1  free  transition at x/c =  0.5584   53
 Side 2  free  transition at x/c =  0.1718   39

  30   rms: 0.6083E-02   max: -.1079E+00   C at   53  1
       a = -2.000      CL =  0.4110
      Cm = -0.1267     CD =  0.01107   =>   CDf =  0.00742    CDp =  0.00365

 Side 1  free  transition at x/c =  0.5584   53
 Side 2  free  transition at x/c =  0.1718   39

  31   rms: 0.6083E-02   max: -.1079E+00   C at   53  1
       a = -2.000      CL =  0.4110
      Cm = -0.1267     CD =  0.01107   =>   CDf =  0.00742    CDp =  0.00365

 Side 1  free  transition at x/c =  0.5584   53
 Side 2  free  transition at x/c =  0.1718   39

  32   rms: 0.6083E-02   max: -.1079E+00   C at   53  1
       a = -2.000      CL =  0.4110
      Cm = -0.1267     CD =  0.01107   =>   CDf =  0.00742    CDp =  0.00365

 Side 1  free  transition at x/c =  0.5584   53
 Side 2  free  transition at x/c =  0.1718   39

  33   rms: 0.6082E-02   max: -.1079E+00   C at   53  1
       a = -2.000      CL =  0.4110
      Cm = -0.1267     CD =  0.01107   =>   CDf =  0.00742    CDp =  0.00365

 Side 1  free  transition at x/c =  0.5584   53
 Side 2  free  transition at x/c =  0.1718   39

  34   rms: 0.6082E-02   max: -.1079E+00   C at   53  1
       a = -2.000      CL =  0.4110
      Cm = -0.1267     CD =  0.01107   =>   CDf =  0.00742    CDp =  0.00365

 Side 1  free  transition at x/c =  0.5584   53
 Side 2  free  transition at x/c =  0.1718   39

  35   rms: 0.6083E-02   max: -.1079E+00   C at   53  1
       a = -2.000      CL =  0.4110
      Cm = -0.1267     CD =  0.01107   =>   CDf =  0.00742    CDp =  0.00365

 Side 1  free  transition at x/c =  0.5584   53
 Side 2  free  transition at x/c =  0.1718   39

  36   rms: 0.6083E-02   max: -.1079E+00   C at   53  1
       a = -2.000      CL =  0.4110
      Cm = -0.1267     CD =  0.01107   =>   CDf =  0.00742    CDp =  0.00365

 Side 1  free  transition at x/c =  0.5584   53
 Side 2  free  transition at x/c =  0.1718   39

  37   rms: 0.6083E-02   max: -.1079E+00   C at   53  1
       a = -2.000      CL =  0.4110
      Cm = -0.1267     CD =  0.01107   =>   CDf =  0.00742    CDp =  0.00365

 Side 1  free  transition at x/c =  0.5584   53
 Side 2  free  transition at x/c =  0.1718   39

  38   rms: 0.6083E-02   max: -.1079E+00   C at   53  1
       a = -2.000      CL =  0.4110
      Cm = -0.1267     CD =  0.01107   =>   CDf =  0.00742    CDp =  0.00365

 Side 1  free  transition at x/c =  0.5584   53
 Side 2  free  transition at x/c =  0.1718   39

  39   rms: 0.6083E-02   max: -.1079E+00   C at   53  1
       a = -2.000      CL =  0.4110
      Cm = -0.1267     CD =  0.01107   =>   CDf =  0.00742    CDp =  0.00365

 Side 1  free  transition at x/c =  0.5584   53
 Side 2  free  transition at x/c =  0.1718   39

  40   rms: 0.6083E-02   max: -.1079E+00   C at   53  1
       a = -2.000      CL =  0.4110
      Cm = -0.1267     CD =  0.01107   =>   CDf =  0.00742    CDp =  0.00365

 Side 1  free  transition at x/c =  0.5584   53
 Side 2  free  transition at x/c =  0.1718   39

  41   rms: 0.6083E-02   max: -.1079E+00   C at   53  1
       a = -2.000      CL =  0.4110
      Cm = -0.1267     CD =  0.01107   =>   CDf =  0.00742    CDp =  0.00365

 Side 1  free  transition at x/c =  0.5584   53
 Side 2  free  transition at x/c =  0.1718   39

  42   rms: 0.6083E-02   max: -.1079E+00   C at   53  1
       a = -2.000      CL =  0.4110
      Cm = -0.1267     CD =  0.01107   =>   CDf =  0.00742    CDp =  0.00365

 Side 1  free  transition at x/c =  0.5584   53
 Side 2  free  transition at x/c =  0.1718   39

  43   rms: 0.6083E-02   max: -.1079E+00   C at   53  1
       a = -2.000      CL =  0.4110
      Cm = -0.1267     CD =  0.01107   =>   CDf =  0.00742    CDp =  0.00365

 Side 1  free  transition at x/c =  0.5584   53
 Side 2  free  transition at x/c =  0.1718   39

  44   rms: 0.6083E-02   max: -.1079E+00   C at   53  1
       a = -2.000      CL =  0.4110
      Cm = -0.1267     CD =  0.01107   =>   CDf =  0.00742    CDp =  0.00365

 Side 1  free  transition at x/c =  0.5584   53
 Side 2  free  transition at x/c =  0.1718   39

  45   rms: 0.6083E-02   max: -.1079E+00   C at   53  1
       a = -2.000      CL =  0.4110
      Cm = -0.1267     CD =  0.01107   =>   CDf =  0.00742    CDp =  0.00365

 Side 1  free  transition at x/c =  0.5584   53
 Side 2  free  transition at x/c =  0.1718   39

  46   rms: 0.6083E-02   max: -.1079E+00   C at   53  1
       a = -2.000      CL =  0.4110
      Cm = -0.1267     CD =  0.01107   =>   CDf =  0.00742    CDp =  0.00365

 Side 1  free  transition at x/c =  0.5584   53
 Side 2  free  transition at x/c =  0.1718   39

  47   rms: 0.6082E-02   max: -.1079E+00   C at   53  1
       a = -2.000      CL =  0.4110
      Cm = -0.1267     CD =  0.01107   =>   CDf =  0.00742    CDp =  0.00365

 Side 1  free  transition at x/c =  0.5584   53
 Side 2  free  transition at x/c =  0.1718   39

  48   rms: 0.6083E-02   max: -.1079E+00   C at   53  1
       a = -2.000      CL =  0.4110
      Cm = -0.1267     CD =  0.01107   =>   CDf =  0.00742    CDp =  0.00365

 Side 1  free  transition at x/c =  0.5584   53
 Side 2  free  transition at x/c =  0.1718   39

  49   rms: 0.6083E-02   max: -.1079E+00   C at   53  1
       a = -2.000      CL =  0.4110
      Cm = -0.1267     CD =  0.01107   =>   CDf =  0.00742    CDp =  0.00365

 Side 1  free  transition at x/c =  0.5584   53
 Side 2  free  transition at x/c =  0.1718   39

  50   rms: 0.6083E-02   max: -.1079E+00   C at   53  1
       a = -2.000      CL =  0.4110
      Cm = -0.1267     CD =  0.01107   =>   CDf =  0.00742    CDp =  0.00365

 Side 1  free  transition at x/c =  0.5584   53
 Side 2  free  transition at x/c =  0.1718   39

  51   rms: 0.6083E-02   max: -.1079E+00   C at   53  1
       a = -2.000      CL =  0.4110
      Cm = -0.1267     CD =  0.01107   =>   CDf =  0.00742    CDp =  0.00365

 Side 1  free  transition at x/c =  0.5584   53
 Side 2  free  transition at x/c =  0.1718   39

  52   rms: 0.6083E-02   max: -.1079E+00   C at   53  1
       a = -2.000      CL =  0.4110
      Cm = -0.1267     CD =  0.01107   =>   CDf =  0.00742    CDp =  0.00365

 Side 1  free  transition at x/c =  0.5584   53
 Side 2  free  transition at x/c =  0.1718   39

  53   rms: 0.6083E-02   max: -.1079E+00   C at   53  1
       a = -2.000      CL =  0.4110
      Cm = -0.1267     CD =  0.01107   =>   CDf =  0.00742    CDp =  0.00365

 Side 1  free  transition at x/c =  0.5584   53
 Side 2  free  transition at x/c =  0.1718   39

  54   rms: 0.6083E-02   max: -.1079E+00   C at   53  1
       a = -2.000      CL =  0.4110
      Cm = -0.1267     CD =  0.01107   =>   CDf =  0.00742    CDp =  0.00365

 Side 1  free  transition at x/c =  0.5584   53
 Side 2  free  transition at x/c =  0.1718   39

  55   rms: 0.6083E-02   max: -.1079E+00   C at   53  1
       a = -2.000      CL =  0.4110
      Cm = -0.1267     CD =  0.01107   =>   CDf =  0.00742    CDp =  0.00365

 Side 1  free  transition at x/c =  0.5584   53
 Side 2  free  transition at x/c =  0.1718   39

  56   rms: 0.6083E-02   max: -.1079E+00   C at   53  1
       a = -2.000      CL =  0.4110
      Cm = -0.1267     CD =  0.01107   =>   CDf =  0.00742    CDp =  0.00365

 Side 1  free  transition at x/c =  0.5584   53
 Side 2  free  transition at x/c =  0.1718   39

  57   rms: 0.6083E-02   max: -.1079E+00   C at   53  1
       a = -2.000      CL =  0.4110
      Cm = -0.1267     CD =  0.01107   =>   CDf =  0.00742    CDp =  0.00365

 Side 1  free  transition at x/c =  0.5584   53
 Side 2  free  transition at x/c =  0.1718   39

  58   rms: 0.6082E-02   max: -.1079E+00   C at   53  1
       a = -2.000      CL =  0.4110
      Cm = -0.1267     CD =  0.01107   =>   CDf =  0.00742    CDp =  0.00365

 Side 1  free  transition at x/c =  0.5584   53
 Side 2  free  transition at x/c =  0.1718   39

  59   rms: 0.6083E-02   max: -.1079E+00   C at   53  1
       a = -2.000      CL =  0.4110
      Cm = -0.1267     CD =  0.01107   =>   CDf =  0.00742    CDp =  0.00365

 Side 1  free  transition at x/c =  0.5584   53
 Side 2  free  transition at x/c =  0.1718   39

  60   rms: 0.6083E-02   max: -.1079E+00   C at   53  1
       a = -2.000      CL =  0.4110
      Cm = -0.1267     CD =  0.01107   =>   CDf =  0.00742    CDp =  0.00365

 Side 1  free  transition at x/c =  0.5584   53
 Side 2  free  transition at x/c =  0.1718   39

  61   rms: 0.6082E-02   max: -.1079E+00   C at   53  1
       a = -2.000      CL =  0.4110
      Cm = -0.1267     CD =  0.01107   =>   CDf =  0.00742    CDp =  0.00365

 Side 1  free  transition at x/c =  0.5584   53
 Side 2  free  transition at x/c =  0.1718   39

  62   rms: 0.6083E-02   max: -.1079E+00   C at   53  1
       a = -2.000      CL =  0.4110
      Cm = -0.1267     CD =  0.01107   =>   CDf =  0.00742    CDp =  0.00365

 Side 1  free  transition at x/c =  0.5584   53
 Side 2  free  transition at x/c =  0.1718   39

  63   rms: 0.6083E-02   max: -.1079E+00   C at   53  1
       a = -2.000      CL =  0.4110
      Cm = -0.1267     CD =  0.01107   =>   CDf =  0.00742    CDp =  0.00365

 Side 1  free  transition at x/c =  0.5584   53
 Side 2  free  transition at x/c =  0.1718   39

  64   rms: 0.6083E-02   max: -.1079E+00   C at   53  1
       a = -2.000      CL =  0.4110
      Cm = -0.1267     CD =  0.01107   =>   CDf =  0.00742    CDp =  0.00365

 Side 1  free  transition at x/c =  0.5584   53
 Side 2  free  transition at x/c =  0.1718   39

  65   rms: 0.6083E-02   max: -.1079E+00   C at   53  1
       a = -2.000      CL =  0.4110
      Cm = -0.1267     CD =  0.01107   =>   CDf =  0.00742    CDp =  0.00365

 Side 1  free  transition at x/c =  0.5584   53
 Side 2  free  transition at x/c =  0.1718   39

  66   rms: 0.6083E-02   max: -.1079E+00   C at   53  1
       a = -2.000      CL =  0.4110
      Cm = -0.1267     CD =  0.01107   =>   CDf =  0.00742    CDp =  0.00365

 Side 1  free  transition at x/c =  0.5584   53
 Side 2  free  transition at x/c =  0.1718   39

  67   rms: 0.6083E-02   max: -.1079E+00   C at   53  1
       a = -2.000      CL =  0.4110
      Cm = -0.1267     CD =  0.01107   =>   CDf =  0.00742    CDp =  0.00365

 Side 1  free  transition at x/c =  0.5584   53
 Side 2  free  transition at x/c =  0.1718   39

  68   rms: 0.6083E-02   max: -.1079E+00   C at   53  1
       a = -2.000      CL =  0.4110
      Cm = -0.1267     CD =  0.01107   =>   CDf =  0.00742    CDp =  0.00365

 Side 1  free  transition at x/c =  0.5584   53
 Side 2  free  transition at x/c =  0.1718   39

  69   rms: 0.6083E-02   max: -.1079E+00   C at   53  1
       a = -2.000      CL =  0.4110
      Cm = -0.1267     CD =  0.01107   =>   CDf =  0.00742    CDp =  0.00365

 Side 1  free  transition at x/c =  0.5584   53
 Side 2  free  transition at x/c =  0.1718   39

  70   rms: 0.6083E-02   max: -.1079E+00   C at   53  1
       a = -2.000      CL =  0.4110
      Cm = -0.1267     CD =  0.01107   =>   CDf =  0.00742    CDp =  0.00365

 Side 1  free  transition at x/c =  0.5584   53
 Side 2  free  transition at x/c =  0.1718   39

  71   rms: 0.6083E-02   max: -.1079E+00   C at   53  1
       a = -2.000      CL =  0.4110
      Cm = -0.1267     CD =  0.01107   =>   CDf =  0.00742    CDp =  0.00365

 Side 1  free  transition at x/c =  0.5584   53
 Side 2  free  transition at x/c =  0.1718   39

  72   rms: 0.6083E-02   max: -.1079E+00   C at   53  1
       a = -2.000      CL =  0.4110
      Cm = -0.1267     CD =  0.01107   =>   CDf =  0.00742    CDp =  0.00365

 Side 1  free  transition at x/c =  0.5584   53
 Side 2  free  transition at x/c =  0.1718   39

  73   rms: 0.6083E-02   max: -.1079E+00   C at   53  1
       a = -2.000      CL =  0.4110
      Cm = -0.1267     CD =  0.01107   =>   CDf =  0.00742    CDp =  0.00365

 Side 1  free  transition at x/c =  0.5584   53
 Side 2  free  transition at x/c =  0.1718   39

  74   rms: 0.6083E-02   max: -.1079E+00   C at   53  1
       a = -2.000      CL =  0.4110
      Cm = -0.1267     CD =  0.01107   =>   CDf =  0.00742    CDp =  0.00365

 Side 1  free  transition at x/c =  0.5584   53
 Side 2  free  transition at x/c =  0.1718   39

  75   rms: 0.6083E-02   max: -.1079E+00   C at   53  1
       a = -2.000      CL =  0.4110
      Cm = -0.1267     CD =  0.01107   =>   CDf =  0.00742    CDp =  0.00365

 Side 1  free  transition at x/c =  0.5584   53
 Side 2  free  transition at x/c =  0.1718   39

  76   rms: 0.6083E-02   max: -.1079E+00   C at   53  1
       a = -2.000      CL =  0.4110
      Cm = -0.1267     CD =  0.01107   =>   CDf =  0.00742    CDp =  0.00365

 Side 1  free  transition at x/c =  0.5584   53
 Side 2  free  transition at x/c =  0.1718   39

  77   rms: 0.6083E-02   max: -.1079E+00   C at   53  1
       a = -2.000      CL =  0.4110
      Cm = -0.1267     CD =  0.01107   =>   CDf =  0.00742    CDp =  0.00365

 Side 1  free  transition at x/c =  0.5584   53
 Side 2  free  transition at x/c =  0.1718   39

  78   rms: 0.6083E-02   max: -.1079E+00   C at   53  1
       a = -2.000      CL =  0.4110
      Cm = -0.1267     CD =  0.01107   =>   CDf =  0.00742    CDp =  0.00365

 Side 1  free  transition at x/c =  0.5584   53
 Side 2  free  transition at x/c =  0.1718   39

  79   rms: 0.6083E-02   max: -.1079E+00   C at   53  1
       a = -2.000      CL =  0.4110
      Cm = -0.1267     CD =  0.01107   =>   CDf =  0.00742    CDp =  0.00365

 Side 1  free  transition at x/c =  0.5584   53
 Side 2  free  transition at x/c =  0.1718   39

  80   rms: 0.6083E-02   max: -.1079E+00   C at   53  1
       a = -2.000      CL =  0.4110
      Cm = -0.1267     CD =  0.01107   =>   CDf =  0.00742    CDp =  0.00365

 Side 1  free  transition at x/c =  0.5584   53
 Side 2  free  transition at x/c =  0.1718   39

  81   rms: 0.6083E-02   max: -.1079E+00   C at   53  1
       a = -2.000      CL =  0.4110
      Cm = -0.1267     CD =  0.01107   =>   CDf =  0.00742    CDp =  0.00365

 Side 1  free  transition at x/c =  0.5584   53
 Side 2  free  transition at x/c =  0.1718   39

  82   rms: 0.6083E-02   max: -.1079E+00   C at   53  1
       a = -2.000      CL =  0.4110
      Cm = -0.1267     CD =  0.01107   =>   CDf =  0.00742    CDp =  0.00365

 Side 1  free  transition at x/c =  0.5584   53
 Side 2  free  transition at x/c =  0.1718   39

  83   rms: 0.6083E-02   max: -.1079E+00   C at   53  1
       a = -2.000      CL =  0.4110
      Cm = -0.1267     CD =  0.01107   =>   CDf =  0.00742    CDp =  0.00365

 Side 1  free  transition at x/c =  0.5584   53
 Side 2  free  transition at x/c =  0.1718   39

  84   rms: 0.6083E-02   max: -.1079E+00   C at   53  1
       a = -2.000      CL =  0.4110
      Cm = -0.1267     CD =  0.01107   =>   CDf =  0.00742    CDp =  0.00365

 Side 1  free  transition at x/c =  0.5584   53
 Side 2  free  transition at x/c =  0.1718   39

  85   rms: 0.6083E-02   max: -.1079E+00   C at   53  1
       a = -2.000      CL =  0.4110
      Cm = -0.1267     CD =  0.01107   =>   CDf =  0.00742    CDp =  0.00365

 Side 1  free  transition at x/c =  0.5584   53
 Side 2  free  transition at x/c =  0.1718   39

  86   rms: 0.6083E-02   max: -.1079E+00   C at   53  1
       a = -2.000      CL =  0.4110
      Cm = -0.1267     CD =  0.01107   =>   CDf =  0.00742    CDp =  0.00365

 Side 1  free  transition at x/c =  0.5584   53
 Side 2  free  transition at x/c =  0.1718   39

  87   rms: 0.6083E-02   max: -.1079E+00   C at   53  1
       a = -2.000      CL =  0.4110
      Cm = -0.1267     CD =  0.01107   =>   CDf =  0.00742    CDp =  0.00365

 Side 1  free  transition at x/c =  0.5584   53
 Side 2  free  transition at x/c =  0.1718   39

  88   rms: 0.6083E-02   max: -.1079E+00   C at   53  1
       a = -2.000      CL =  0.4110
      Cm = -0.1267     CD =  0.01107   =>   CDf =  0.00742    CDp =  0.00365

 Side 1  free  transition at x/c =  0.5584   53
 Side 2  free  transition at x/c =  0.1718   39

  89   rms: 0.6083E-02   max: -.1079E+00   C at   53  1
       a = -2.000      CL =  0.4110
      Cm = -0.1267     CD =  0.01107   =>   CDf =  0.00742    CDp =  0.00365

 Side 1  free  transition at x/c =  0.5584   53
 Side 2  free  transition at x/c =  0.1718   39

  90   rms: 0.6083E-02   max: -.1079E+00   C at   53  1
       a = -2.000      CL =  0.4110
      Cm = -0.1267     CD =  0.01107   =>   CDf =  0.00742    CDp =  0.00365

 Side 1  free  transition at x/c =  0.5584   53
 Side 2  free  transition at x/c =  0.1718   39

  91   rms: 0.6083E-02   max: -.1079E+00   C at   53  1
       a = -2.000      CL =  0.4110
      Cm = -0.1267     CD =  0.01107   =>   CDf =  0.00742    CDp =  0.00365

 Side 1  free  transition at x/c =  0.5584   53
 Side 2  free  transition at x/c =  0.1718   39

  92   rms: 0.6083E-02   max: -.1079E+00   C at   53  1
       a = -2.000      CL =  0.4110
      Cm = -0.1267     CD =  0.01107   =>   CDf =  0.00742    CDp =  0.00365

 Side 1  free  transition at x/c =  0.5584   53
 Side 2  free  transition at x/c =  0.1718   39

  93   rms: 0.6083E-02   max: -.1079E+00   C at   53  1
       a = -2.000      CL =  0.4110
      Cm = -0.1267     CD =  0.01107   =>   CDf =  0.00742    CDp =  0.00365

 Side 1  free  transition at x/c =  0.5584   53
 Side 2  free  transition at x/c =  0.1718   39

  94   rms: 0.6083E-02   max: -.1079E+00   C at   53  1
       a = -2.000      CL =  0.4110
      Cm = -0.1267     CD =  0.01107   =>   CDf =  0.00742    CDp =  0.00365

 Side 1  free  transition at x/c =  0.5584   53
 Side 2  free  transition at x/c =  0.1718   39

  95   rms: 0.6083E-02   max: -.1079E+00   C at   53  1
       a = -2.000      CL =  0.4110
      Cm = -0.1267     CD =  0.01107   =>   CDf =  0.00742    CDp =  0.00365

 Side 1  free  transition at x/c =  0.5584   53
 Side 2  free  transition at x/c =  0.1718   39

  96   rms: 0.6083E-02   max: -.1079E+00   C at   53  1
       a = -2.000      CL =  0.4110
      Cm = -0.1267     CD =  0.01107   =>   CDf =  0.00742    CDp =  0.00365

 Side 1  free  transition at x/c =  0.5584   53
 Side 2  free  transition at x/c =  0.1718   39

  97   rms: 0.6083E-02   max: -.1079E+00   C at   53  1
       a = -2.000      CL =  0.4110
      Cm = -0.1267     CD =  0.01107   =>   CDf =  0.00742    CDp =  0.00365

 Side 1  free  transition at x/c =  0.5584   53
 Side 2  free  transition at x/c =  0.1718   39

  98   rms: 0.6083E-02   max: -.1079E+00   C at   53  1
       a = -2.000      CL =  0.4110
      Cm = -0.1267     CD =  0.01107   =>   CDf =  0.00742    CDp =  0.00365

 Side 1  free  transition at x/c =  0.5584   53
 Side 2  free  transition at x/c =  0.1718   39

  99   rms: 0.6083E-02   max: -.1079E+00   C at   53  1
       a = -2.000      CL =  0.4110
[...]

 Side 1  free  transition at x/c =  0.2307   53
 Side 2 forced transition at x/c =  1.0000   64

   3   rms: 0.1262E-02   max: -.1638E-01   C at   53  1
       a = 13.000      CL =  1.5209
      Cm = -0.0626     CD =  0.03642   =>   CDf =  0.00615    CDp =  0.03027

 Side 1  free  transition at x/c =  0.2310   53
 Side 2 forced transition at x/c =  1.0000   64

   4   rms: 0.2450E-04   max: -.3106E-03   C at   64  2
       a = 13.000      CL =  1.5209
      Cm = -0.0625     CD =  0.03642   =>   CDf =  0.00615    CDp =  0.03026
 plradd ia,ip,cpol           37           0  6.81137219E-02

 Point added to stored polar  1
 Point written to save file  goe614_Re500k.base.pol                          
 Dump file unspecified or not available
 Calculating wake trajectory ...
 Calculating source influence matrix ...

 Solving BL system ...

 Side 1  free  transition at x/c =  0.2310   53
 Side 2 forced transition at x/c =  1.0000   64

   1   rms: 0.3166E-01   max: 0.1053E+00   C at   53  1   RLX: 0.532
       a = 13.250      CL =  1.5265
      Cm = -0.0622     CD =  0.03722   =>   CDf =  0.00595    CDp =  0.03127

 Side 1  free  transition at x/c =  0.2277   54
 Side 2 forced transition at x/c =  1.0000   63

   2   rms: 0.1775E-01   max: 0.1491E+00   T at    2  1
       a = 13.250      CL =  1.5289
      Cm = -0.0617     CD =  0.03807   =>   CDf =  0.00614    CDp =  0.03193

 Side 1  free  transition at x/c =  0.2252   54
 Side 2 forced transition at x/c =  1.0000   63

   3   rms: 0.1918E-02   max: 0.1643E-01   D at   79  1
       a = 13.250      CL =  1.5274
      Cm = -0.0616     CD =  0.03811   =>   CDf =  0.00612    CDp =  0.03199

 Side 1  free  transition at x/c =  0.2253   54
 Side 2 forced transition at x/c =  1.0000   63

   4   rms: 0.1177E-03   max: -.6830E-03   C at   63  2
       a = 13.250      CL =  1.5273
      Cm = -0.0616     CD =  0.03810   =>   CDf =  0.00612    CDp =  0.03198

 Side 1  free  transition at x/c =  0.2253   54
 Side 2 forced transition at x/c =  1.0000   63

   5   rms: 0.4248E-05   max: -.3482E-04   C at   63  2
       a = 13.250      CL =  1.5273
      Cm = -0.0616     CD =  0.03810   =>   CDf =  0.00612    CDp =  0.03198
 plradd ia,ip,cpol           38           0  6.81137219E-02

 Point added to stored polar  1
 Point written to save file  goe614_Re500k.base.pol                          
 Dump file unspecified or not available
 Calculating wake trajectory ...
 Calculating source influence matrix ...

 Solving BL system ...

 Side 1  free  transition at x/c =  0.2253   54
 Side 2 forced transition at x/c =  1.0000   63

   1   rms: 0.3592E-01   max: 0.1741E+00   C at   54  1   RLX: 0.515
       a = 13.500      CL =  1.5296
      Cm = -0.0611     CD =  0.03922   =>   CDf =  0.00612    CDp =  0.03310

 Side 1  free  transition at x/c =  0.2216   54
 Side 2 forced transition at x/c =  1.0000   63

   2   rms: 0.1832E-01   max: 0.8043E-01   D at   78  1
       a = 13.500      CL =  1.5287
      Cm = -0.0605     CD =  0.04044   =>   CDf =  0.00612    CDp =  0.03431

 Side 1  free  transition at x/c =  0.2187   54
 Side 2 forced transition at x/c =  1.0000   63

   3   rms: 0.1766E-02   max: 0.1432E-01   D at   78  1
       a = 13.500      CL =  1.5271
      Cm = -0.0604     CD =  0.04041   =>   CDf =  0.00612    CDp =  0.03429

 Side 1  free  transition at x/c =  0.2189   54
 Side 2 forced transition at x/c =  1.0000   63

   4   rms: 0.8673E-04   max: 0.6769E-03   D at   78  1
       a = 13.500      CL =  1.5271
      Cm = -0.0604     CD =  0.04040   =>   CDf =  0.00612    CDp =  0.03428
 plradd ia,ip,cpol           39           0  6.81137219E-02

 Point added to stored polar  1
 Point written to save file  goe614_Re500k.base.pol                          
 Dump file unspecified or not available
 Calculating wake trajectory ...
 Calculating source influence matrix ...

 Solving BL system ...

 Side 1  free  transition at x/c =  0.2189   54
 Side 2 forced transition at x/c =  1.0000   63

   1   rms: 0.3628E-01   max: 0.1539E+00   D at   77  1   RLX: 0.498
       a = 13.750      CL =  1.5275
      Cm = -0.0599     CD =  0.04171   =>   CDf =  0.00612    CDp =  0.03559

 Side 1  free  transition at x/c =  0.2165   53
 Side 2 forced transition at x/c =  1.0000   63

   2   rms: 0.1570E-01   max: -.5049E-01   D at    3  2
       a = 13.750      CL =  1.5340
      Cm = -0.0596     CD =  0.04223   =>   CDf =  0.00610    CDp =  0.03613

 Side 1  free  transition at x/c =  0.2138   53
 Side 2 forced transition at x/c =  1.0000   63

   3   rms: 0.1406E-02   max: 0.6630E-02   D at   77  1
       a = 13.750      CL =  1.5327
      Cm = -0.0595     CD =  0.04225   =>   CDf =  0.00608    CDp =  0.03617

 Side 1  free  transition at x/c =  0.2139   53
 Side 2 forced transition at x/c =  1.0000   63

   4   rms: 0.6559E-04   max: -.5246E-03   C at   63  2
       a = 13.750      CL =  1.5326
      Cm = -0.0595     CD =  0.04224   =>   CDf =  0.00608    CDp =  0.03617
 plradd ia,ip,cpol           40           0  6.81137219E-02

 Point added to stored polar  1
 Point written to save file  goe614_Re500k.base.pol                          
 Dump file unspecified or not available
 Calculating wake trajectory ...
 Calculating source influence matrix ...

 Solving BL system ...

 Side 1  free  transition at x/c =  0.2139   53
 Side 2 forced transition at x/c =  1.0000   63

   1   rms: 0.3295E-01   max: 0.1562E+00   D at    3  1   RLX: 0.490
       a = 14.000      CL =  1.5369
      Cm = -0.0592     CD =  0.04314   =>   CDf =  0.00608    CDp =  0.03706

 Side 1  free  transition at x/c =  0.2112   53
 Side 2 forced transition at x/c =  1.0000   63

   2   rms: 0.1730E-01   max: 0.7248E-01   D at    3  1
       a = 14.000      CL =  1.5387
      Cm = -0.0589     CD =  0.04425   =>   CDf =  0.00606    CDp =  0.03818

 Side 1  free  transition at x/c =  0.2084   53
 Side 2 forced transition at x/c =  1.0000   63

   3   rms: 0.2330E-02   max: 0.1515E-01   D at   77  1
       a = 14.000      CL =  1.5367
      Cm = -0.0587     CD =  0.04428   =>   CDf =  0.00605    CDp =  0.03823

 Side 1  free  transition at x/c =  0.2087   53
 Side 2 forced transition at x/c =  1.0000   63

   4   rms: 0.9659E-04   max: -.9453E-03   C at   63  2
       a = 14.000      CL =  1.5366
      Cm = -0.0587     CD =  0.04426   =>   CDf =  0.00604    CDp =  0.03822
 plradd ia,ip,cpol           41           0  6.81137219E-02

 Point added to stored polar  1
 Point written to save file  goe614_Re500k.base.pol                          
 Dump file unspecified or not available
 Calculating wake trajectory ...
 Calculating source influence matrix ...

 Solving BL system ...

 Side 1  free  transition at x/c =  0.2087   53
 Side 2 forced transition at x/c =  1.0000   63

   1   rms: 0.3698E-01   max: -.1993E+00   D at    3  1   RLX: 0.476
       a = 14.250      CL =  1.5379
      Cm = -0.0584     CD =  0.04547   =>   CDf =  0.00604    CDp =  0.03942

 Side 1  free  transition at x/c =  0.2054   53
 Side 2 forced transition at x/c =  1.0000   63

   2   rms: 0.2096E-01   max: -.9910E-01   D at    3  1
       a = 14.250      CL =  1.5360
      Cm = -0.0578     CD =  0.04700   =>   CDf =  0.00583    CDp =  0.04117

 Side 1  free  transition at x/c =  0.2022   54
 Side 2 forced transition at x/c =  1.0000   62

   3   rms: 0.3346E-02   max: 0.2771E-01   D at   77  1
       a = 14.250      CL =  1.5333
      Cm = -0.0577     CD =  0.04705   =>   CDf =  0.00604    CDp =  0.04101

 Side 1  free  transition at x/c =  0.2025   54
 Side 2 forced transition at x/c =  1.0000   62

   4   rms: 0.3385E-03   max: 0.3884E-02   D at    4  1
       a = 14.250      CL =  1.5332
      Cm = -0.0576     CD =  0.04702   =>   CDf =  0.00603    CDp =  0.04099

 Side 1  free  transition at x/c =  0.2025   54
 Side 2 forced transition at x/c =  1.0000   62

   5   rms: 0.1451E-05   max: -.1717E-04   C at   62  2
       a = 14.250      CL =  1.5332
      Cm = -0.0576     CD =  0.04702   =>   CDf =  0.00603    CDp =  0.04099
 plradd ia,ip,cpol           42           0  6.81137219E-02

 Point added to stored polar  1
 Point written to save file  goe614_Re500k.base.pol                          
 Dump file unspecified or not available
 Calculating wake trajectory ...
 Calculating source influence matrix ...

 Solving BL system ...

 Side 1  free  transition at x/c =  0.2025   54
 Side 2 forced transition at x/c =  1.0000   62

   1   rms: 0.3400E-01   max: 0.1509E+00   D at   76  1   RLX: 0.460
       a = 14.500      CL =  1.5334
      Cm = -0.0574     CD =  0.04835   =>   CDf =  0.00603    CDp =  0.04231

 Side 1  free  transition at x/c =  0.2009   53
 Side 2 forced transition at x/c =  1.0000   62

   2   rms: 0.1610E-01   max: 0.2415E-01   D at   78  2
       a = 14.500      CL =  1.5409
      Cm = -0.0571     CD =  0.04888   =>   CDf =  0.00600    CDp =  0.04288

 Side 1  free  transition at x/c =  0.1980   53
 Side 2 forced transition at x/c =  1.0000   62

   3   rms: 0.1535E-02   max: 0.7162E-02   D at   76  1
       a = 14.500      CL =  1.5395
      Cm = -0.0570     CD =  0.04891   =>   CDf =  0.00598    CDp =  0.04293

 Side 1  free  transition at x/c =  0.1982   53
 Side 2 forced transition at x/c =  1.0000   62

   4   rms: 0.1040E-03   max: -.6082E-03   C at   62  2
       a = 14.500      CL =  1.5394
      Cm = -0.0570     CD =  0.04890   =>   CDf =  0.00598    CDp =  0.04293

 Side 1  free  transition at x/c =  0.1983   53
 Side 2 forced transition at x/c =  1.0000   62

   5   rms: 0.4248E-05   max: -.3245E-04   C at   62  2
       a = 14.500      CL =  1.5394
      Cm = -0.0570     CD =  0.04890   =>   CDf =  0.00598    CDp =  0.04292
 plradd ia,ip,cpol           43           0  6.81137219E-02

 Point added to stored polar  1
 Point written to save file  goe614_Re500k.base.pol                          
 Dump file unspecified or not available
 Calculating wake trajectory ...
 Calculating source influence matrix ...

 Solving BL system ...

 Side 1  free  transition at x/c =  0.1983   53
 Side 2 forced transition at x/c =  1.0000   62

   1   rms: 0.3362E-01   max: -.2179E+00   D at    3  1   RLX: 0.453
       a = 14.750      CL =  1.5425
      Cm = -0.0569     CD =  0.04989   =>   CDf =  0.00598    CDp =  0.04391

 Side 1  free  transition at x/c =  0.1942   53
 Side 2 forced transition at x/c =  1.0000   62

   2   rms: 0.2163E-01   max: -.1122E+00   D at    3  1
       a = 14.750      CL =  1.5401
      Cm = -0.0565     CD =  0.05169   =>   CDf =  0.00597    CDp =  0.04572

 Side 1  free  transition at x/c =  0.1890   53
 Side 2 forced transition at x/c =  1.0000   62

   3   rms: 0.3842E-02   max: -.3023E-01   C at   53  1
       a = 14.750      CL =  1.5369
      Cm = -0.0563     CD =  0.05173   =>   CDf =  0.00598    CDp =  0.04575

 Side 1  free  transition at x/c =  0.1900   53
 Side 2 forced transition at x/c =  1.0000   62

   4   rms: 0.1707E-03   max: 0.1753E-02   D at   75  2
       a = 14.750      CL =  1.5367
      Cm = -0.0562     CD =  0.05170   =>   CDf =  0.00596    CDp =  0.04574

 Side 1  free  transition at x/c =  0.1900   53
 Side 2 forced transition at x/c =  1.0000   62

   5   rms: 0.2555E-05   max: -.2619E-04   C at   62  2
       a = 14.750      CL =  1.5367
      Cm = -0.0562     CD =  0.05170   =>   CDf =  0.00596    CDp =  0.04574
 plradd ia,ip,cpol           44           0  6.81137219E-02

 Point added to stored polar  1
 Point written to save file  goe614_Re500k.base.pol                          
 Dump file unspecified or not available
 Calculating wake trajectory ...
 Calculating source influence matrix ...

 Solving BL system ...

 Side 1  free  transition at x/c =  0.1900   53
 Side 2 forced transition at x/c =  1.0000   62

   1   rms: 0.3575E-01   max: 0.1858E+00   C at   53  1   RLX: 0.437
       a = 15.000      CL =  1.5364
      Cm = -0.0560     CD =  0.05308   =>   CDf =  0.00596    CDp =  0.04712

 Side 1  free  transition at x/c =  0.1873   53
 Side 2 forced transition at x/c =  1.0000   62

   2   rms: 0.2191E-01   max: 0.1144E+00   D at   75  1
       a = 15.000      CL =  1.5322
      Cm = -0.0557     CD =  0.05512   =>   CDf =  0.00596    CDp =  0.04915

 Side 1  free  transition at x/c =  0.1850   52
 Side 2 forced transition at x/c =  1.0000   62

   3   rms: 0.4459E-02   max: 0.3744E-01   C at   52  1
       a = 15.000      CL =  1.5355
      Cm = -0.0555     CD =  0.05432   =>   CDf =  0.00590    CDp =  0.04842

 Side 1  free  transition at x/c =  0.1842   52
 Side 2 forced transition at x/c =  1.0000   62

   4   rms: 0.3534E-03   max: 0.1722E-02   C at   62  2
       a = 15.000      CL =  1.5358
      Cm = -0.0556     CD =  0.05435   =>   CDf =  0.00592    CDp =  0.04843

 Side 1  free  transition at x/c =  0.1841   52
 Side 2 forced transition at x/c =  1.0000   62

   5   rms: 0.1609E-04   max: 0.1386E-03   C at   62  2
       a = 15.000      CL =  1.5358
      Cm = -0.0556     CD =  0.05435   =>   CDf =  0.00592    CDp =  0.04843
 plradd ia,ip,cpol           45           0  6.81137219E-02

 Point added to stored polar  1
 Point written to save file  goe614_Re500k.base.pol                          
 Dump file unspecified or not available
 Calculating wake trajectory ...
 Calculating source influence matrix ...

 Solving BL system ...

 Side 1  free  transition at x/c =  0.1841   52
 Side 2 forced transition at x/c =  1.0000   62

   1   rms: 0.3046E-01   max: 0.1757E+00   C at   52  1   RLX: 0.428
       a = 15.250      CL =  1.5380
      Cm = -0.0555     CD =  0.05543   =>   CDf =  0.00592    CDp =  0.04951

 Side 1  free  transition at x/c =  0.1801   52
 Side 2 forced transition at x/c =  1.0000   62

   2   rms: 0.1924E-01   max: 0.1405E+00   C at   52  1
       a = 15.250      CL =  1.5371
      Cm = -0.0552     CD =  0.05715   =>   CDf =  0.00591    CDp =  0.05124

 Side 1  free  transition at x/c =  0.1740   52
 Side 2 forced transition at x/c =  1.0000   62

   3   rms: 0.5150E-02   max: -.5653E-01   C at   52  1
       a = 15.250      CL =  1.5334
      Cm = -0.0550     CD =  0.05727   =>   CDf =  0.00593    CDp =  0.05134

 Side 1  free  transition at x/c =  0.1754   52
 Side 2 forced transition at x/c =  1.0000   62

   4   rms: 0.3208E-03   max: -.3540E-02   C at   52  1
       a = 15.250      CL =  1.5332
      Cm = -0.0549     CD =  0.05723   =>   CDf =  0.00590    CDp =  0.05133

 Side 1  free  transition at x/c =  0.1755   52
 Side 2 forced transition at x/c =  1.0000   62

   5   rms: 0.5838E-05   max: -.6285E-04   C at   62  2
       a = 15.250      CL =  1.5332
      Cm = -0.0549     CD =  0.05723   =>   CDf =  0.00590    CDp =  0.05133
 plradd ia,ip,cpol           46           0  6.81137219E-02

 Point added to stored polar  1
 Point written to save file  goe614_Re500k.base.pol                          
 Dump file unspecified or not available
 Calculating wake trajectory ...
 Calculating source influence matrix ...

 Solving BL system ...

 Side 1  free  transition at x/c =  0.1755   52
 Side 2 forced transition at x/c =  1.0000   62

   1   rms: 0.4538E-01   max: 0.4248E+00   C at   52  1   RLX: 0.411
       a = 15.500      CL =  1.5287
      Cm = -0.0548     CD =  0.05915   =>   CDf =  0.00590    CDp =  0.05325

 Side 1  free  transition at x/c =  0.1708   51
 Side 2 forced transition at x/c =  1.0000   62

   2   rms: 0.2683E-01   max: 0.4212E+00   C at   51  1
       a = 15.500      CL =  1.5260
      Cm = -0.0545     CD =  0.06104   =>   CDf =  0.00589    CDp =  0.05515

 Side 1  free  transition at x/c =  0.1389   49
 Side 2 forced transition at x/c =  1.0000   62

   3   rms: 0.4162E-01   max: -.9203E+00   C at   49  1   RLX: 0.543
       a = 15.500      CL =  1.5243
      Cm = -0.0567     CD =  0.06137   =>   CDf =  0.00618    CDp =  0.05519

 Side 1  free  transition at x/c =  0.1485   49
 Side 2 forced transition at x/c =  1.0000   62

   4   rms: 0.3515E-01   max: -.7801E+00   C at   49  1   RLX: 0.641
       a = 15.500      CL =  1.5209
      Cm = -0.0550     CD =  0.06131   =>   CDf =  0.00604    CDp =  0.05527

 Side 1  free  transition at x/c =  0.1547   50
 Side 2 forced transition at x/c =  1.0000   62

   5   rms: 0.1078E-01   max: -.2509E+00   C at   50  1
       a = 15.500      CL =  1.5194
      Cm = -0.0542     CD =  0.06134   =>   CDf =  0.00597    CDp =  0.05537

 Side 1  free  transition at x/c =  0.1600   50
 Side 2 forced transition at x/c =  1.0000   62

   6   rms: 0.6062E-03   max: 0.1253E-01   C at   50  1
       a = 15.500      CL =  1.5195
      Cm = -0.0542     CD =  0.06134   =>   CDf =  0.00592    CDp =  0.05542

 Side 1  free  transition at x/c =  0.1598   50
 Side 2 forced transition at x/c =  1.0000   62

   7   rms: 0.3262E-04   max: 0.6605E-03   C at   50  1
       a = 15.500      CL =  1.5195
      Cm = -0.0542     CD =  0.06135   =>   CDf =  0.00592    CDp =  0.05543
 plradd ia,ip,cpol           47           0  6.81137219E-02

 Point added to stored polar  1
 Point written to save file  goe614_Re500k.base.pol                          
 Dump file unspecified or not available
 Calculating wake trajectory ...
 Calculating source influence matrix ...

 Solving BL system ...

 Side 1  free  transition at x/c =  0.1598   50
 Side 2 forced transition at x/c =  1.0000   62

   1   rms: 0.1146E+00   max: 0.2177E+01   C at   50  1   RLX: 0.390
       a = 15.750      CL =  1.5059
      Cm = -0.0541     CD =  0.06450   =>   CDf =  0.00592    CDp =  0.05858

 Side 1  free  transition at x/c =  0.1463   49
 Side 2 forced transition at x/c =  1.0000   62

   2   rms: 0.6265E-01   max: 0.1155E+01   C at   49  1
       a = 15.750      CL =  1.4857
      Cm = -0.0538     CD =  0.06876   =>   CDf =  0.00600    CDp =  0.06276

 Side 1  free  transition at x/c =  0.1383   48
 Side 2 forced transition at x/c =  1.0000   62

   3   rms: 0.4591E-02   max: 0.7047E-01   C at   48  1
       a = 15.750      CL =  1.4871
      Cm = -0.0533     CD =  0.06758   =>   CDf =  0.00601    CDp =  0.06157

 Side 1  free  transition at x/c =  0.1379   48
 Side 2 forced transition at x/c =  1.0000   62

   4   rms: 0.8906E-04   max: 0.8350E-03   D at   71  1
       a = 15.750      CL =  1.4871
      Cm = -0.0533     CD =  0.06760   =>   CDf =  0.00603    CDp =  0.06156
 plradd ia,ip,cpol           48           0  6.81137219E-02

 Point added to stored polar  1
 Point written to save file  goe614_Re500k.base.pol                          
 Dump file unspecified or not available
 Calculating wake trajectory ...
 Calculating source influence matrix ...

 Solving BL system ...

 Side 1  free  transition at x/c =  0.1379   48
 Side 2 forced transition at x/c =  1.0000   62

   1   rms: 0.5452E-01   max: 0.9496E+00   C at   48  1   RLX: 0.379
       a = 16.000      CL =  1.4839
      Cm = -0.0533     CD =  0.06935   =>   CDf =  0.00603    CDp =  0.06332

 Side 1  free  transition at x/c =  0.1358   48
 Side 2 forced transition at x/c =  1.0000   62

   2   rms: 0.2911E-01   max: 0.3951E+00   C at   48  1
       a = 16.000      CL =  1.4768
      Cm = -0.0533     CD =  0.07226   =>   CDf =  0.00603    CDp =  0.06623

 Side 1  free  transition at x/c =  0.1328   48
 Side 2 forced transition at x/c =  1.0000   62

   3   rms: 0.2619E-02   max: -.3558E-01   C at   48  1
       a = 16.000      CL =  1.4751
      Cm = -0.0529     CD =  0.07174   =>   CDf =  0.00602    CDp =  0.06572

 Side 1  free  transition at x/c =  0.1332   48
 Side 2 forced transition at x/c =  1.0000   62

   4   rms: 0.5640E-04   max: -.7568E-03   C at   62  2
       a = 16.000      CL =  1.4751
      Cm = -0.0529     CD =  0.07171   =>   CDf =  0.00601    CDp =  0.06570
 plradd ia,ip,cpol           49           0  6.81137219E-02

 Point added to stored polar  1
 Point written to save file  goe614_Re500k.base.pol                          
 Dump file unspecified or not available

.OPERva   c>  
 Polar accumulation disabled

.OPERv   c>  
 XFOIL   c>  
 XFOIL   c>  