  
       XFOIL         Version 6.99
  
 Calculated polar for: GOE 614 AIRFOIL                                 
  
 1 1 Reynolds number fixed          Mach number fixed         
  
 xtrf =   1.000 (top)        1.000 (bottom)  
 Mach =   0.000     Re =     0.500 e 6     Ncrit =   9.000
  
   alpha    CL        CD       CDp       CM     Top_Xtr  Bot_Xtr
  ------ -------- --------- --------- -------- -------- --------
  -4.000   0.2336   0.01206   0.00461  -0.1361   0.6252   0.0434
  -3.500   0.2790   0.01184   0.00425  -0.1339   0.6068   0.0460
  -2.500   0.3678   0.01130   0.00378  -0.1292   0.5739   0.1140
  -1.500   0.4571   0.01100   0.00371  -0.1247   0.5450   0.2193
  -1.000   0.5017   0.01104   0.00373  -0.1224   0.5319   0.2449
  -0.500   0.5445   0.01111   0.00377  -0.1197   0.5195   0.2682
   0.000   0.5877   0.01114   0.00384  -0.1171   0.5080   0.2947
   0.500   0.6299   0.01121   0.00393  -0.1143   0.4958   0.3238
   1.000   0.6715   0.01135   0.00412  -0.1116   0.4846   0.3703
   1.500   0.7146   0.01140   0.00432  -0.1091   0.4748   0.4239
   2.000   0.7556   0.01158   0.00457  -0.1063   0.4650   0.4794
   2.500   0.7970   0.01167   0.00483  -0.1035   0.4554   0.5402
   3.000   0.8354   0.01177   0.00514  -0.1003   0.4475   0.6273
   4.500   1.0280   0.01228   0.00630  -0.1071   0.4202   1.0000
   5.000   1.0662   0.01277   0.00668  -0.1042   0.4119   1.0000
   5.500   1.1076   0.01316   0.00707  -0.1019   0.4037   1.0000
   6.500   1.1852   0.01421   0.00807  -0.0969   0.3870   1.0000
   7.000   1.2202   0.01492   0.00872  -0.0939   0.3777   1.0000
   7.500   1.2593   0.01553   0.00936  -0.0918   0.3686   1.0000
   8.000   1.2935   0.01637   0.01017  -0.0890   0.3592   1.0000
   8.500   1.3281   0.01725   0.01106  -0.0865   0.3482   1.0000
   9.000   1.3615   0.01825   0.01208  -0.0841   0.3371   1.0000
   9.500   1.3907   0.01952   0.01334  -0.0813   0.3241   1.0000
  10.000   1.4171   0.02104   0.01484  -0.0784   0.3101   1.0000
  10.000   1.4171   0.02104   0.01484  -0.0784   0.3102   1.0000
  10.250   1.4308   0.02182   0.01563  -0.0772   0.3030   1.0000
  10.500   1.4408   0.02283   0.01662  -0.0756   0.2959   1.0000
  10.750   1.4533   0.02373   0.01753  -0.0743   0.2881   1.0000
  11.000   1.4614   0.02493   0.01871  -0.0727   0.2815   1.0000
  11.250   1.4731   0.02595   0.01974  -0.0715   0.2739   1.0000
  11.500   1.4796   0.02734   0.02111  -0.0699   0.2669   1.0000
  11.750   1.4888   0.02858   0.02236  -0.0686   0.2596   1.0000
  12.000   1.4951   0.03008   0.02386  -0.0672   0.2528   1.0000
  12.250   1.5016   0.03160   0.02539  -0.0659   0.2467   1.0000
  12.500   1.5106   0.03297   0.02679  -0.0649   0.2415   1.0000
  12.750   1.5138   0.03483   0.02864  -0.0635   0.2354   1.0000
  13.000   1.5209   0.03642   0.03026  -0.0625   0.2310   1.0000
  13.250   1.5273   0.03810   0.03198  -0.0616   0.2253   1.0000
  13.500   1.5271   0.04040   0.03428  -0.0604   0.2189   1.0000
  13.750   1.5326   0.04224   0.03617  -0.0595   0.2139   1.0000
  14.000   1.5366   0.04426   0.03822  -0.0587   0.2087   1.0000
  14.250   1.5332   0.04702   0.04099  -0.0576   0.2025   1.0000
  14.500   1.5394   0.04890   0.04292  -0.0570   0.1983   1.0000
  14.750   1.5367   0.05170   0.04574  -0.0562   0.1900   1.0000
  15.000   1.5358   0.05435   0.04843  -0.0556   0.1841   1.0000
  15.250   1.5332   0.05723   0.05133  -0.0549   0.1755   1.0000
  15.500   1.5195   0.06135   0.05543  -0.0542   0.1598   1.0000
  15.750   1.4871   0.06760   0.06156  -0.0533   0.1379   1.0000
  16.000   1.4751   0.07171   0.06570  -0.0529   0.1332   1.0000
