  
       XFOIL         Version 6.99
  
 Calculated polar for: GOE 620 AIRFOIL                                 
  
 1 1 Reynolds number fixed          Mach number fixed         
  
 xtrf =   1.000 (top)        1.000 (bottom)  
 Mach =   0.000     Re =     0.400 e 6     Ncrit =   9.000
  
   alpha    CL        CD       CDp       CM     Top_Xtr  Bot_Xtr
  ------ -------- --------- --------- -------- -------- --------
-4.000   0.2395   0.01236   0.00519  -0.1443   0.7369   0.0949
-3.500   0.2853   0.01179   0.00483  -0.1423   0.7275   0.1406
-3.000   0.3398   0.01154   0.00467  -0.1419   0.7190   0.1935
-2.500   0.3875   0.01138   0.00459  -0.1401   0.7090   0.2244
-2.000   0.4423   0.01129   0.00448  -0.1397   0.6997   0.2542
-1.500   0.4896   0.01116   0.00442  -0.1377   0.6888   0.2818
-1.000   0.5408   0.01107   0.00436  -0.1366   0.6783   0.3118
-0.500   0.5894   0.01095   0.00428  -0.1349   0.6665   0.3441
0.000   0.6341   0.01083   0.00424  -0.1323   0.6521   0.3807
0.500   0.6772   0.01069   0.00417  -0.1295   0.6359   0.4221
1.000   0.7176   0.01057   0.00416  -0.1261   0.6185   0.4750
1.500   0.7556   0.01047   0.00422  -0.1223   0.6010   0.5458
2.000   0.7914   0.01039   0.00433  -0.1181   0.5849   0.6297
2.500   0.9296   0.01023   0.00486  -0.1357   0.5635   1.0000
3.000   0.9622   0.01055   0.00503  -0.1310   0.5467   1.0000
3.500   0.9912   0.01088   0.00524  -0.1256   0.5312   1.0000
4.000   1.0222   0.01127   0.00551  -0.1207   0.5162   1.0000
4.500   1.0545   0.01171   0.00584  -0.1161   0.5013   1.0000
5.000   1.0867   0.01222   0.00624  -0.1118   0.4859   1.0000
5.500   1.1192   0.01274   0.00671  -0.1076   0.4704   1.0000
6.000   1.1524   0.01332   0.00725  -0.1038   0.4555   1.0000
6.500   1.1843   0.01400   0.00789  -0.1000   0.4397   1.0000
7.000   1.2148   0.01480   0.00864  -0.0961   0.4230   1.0000
7.500   1.2448   0.01571   0.00952  -0.0924   0.4065   1.0000
8.000   1.2733   0.01678   0.01054  -0.0887   0.3893   1.0000
8.500   1.3000   0.01803   0.01174  -0.0850   0.3711   1.0000
9.000   1.3249   0.01947   0.01314  -0.0814   0.3524   1.0000
9.500   1.3491   0.02109   0.01472  -0.0780   0.3349   1.0000
10.000   1.3727   0.02285   0.01645  -0.0748   0.3188   1.0000
10.250   1.3820   0.02391   0.01747  -0.0730   0.3108   1.0000
10.500   1.3955   0.02476   0.01835  -0.0717   0.3038   1.0000
10.750   1.4049   0.02587   0.01944  -0.0701   0.2972   1.0000
11.000   1.4182   0.02678   0.02037  -0.0689   0.2914   1.0000
11.250   1.4295   0.02783   0.02143  -0.0676   0.2851   1.0000
11.500   1.4386   0.02903   0.02260  -0.0661   0.2797   1.0000
11.750   1.4521   0.02998   0.02360  -0.0651   0.2749   1.0000
12.000   1.4626   0.03114   0.02478  -0.0639   0.2687   1.0000
12.250   1.4699   0.03255   0.02617  -0.0625   0.2629   1.0000
12.500   1.4826   0.03361   0.02729  -0.0615   0.2580   1.0000
12.750   1.4927   0.03487   0.02858  -0.0604   0.2523   1.0000
13.000   1.4993   0.03641   0.03010  -0.0591   0.2470   1.0000
13.250   1.5100   0.03767   0.03141  -0.0582   0.2419   1.0000
13.500   1.5183   0.03915   0.03294  -0.0571   0.2356   1.0000
13.750   1.5204   0.04115   0.03490  -0.0558   0.2283   1.0000
14.000   1.5299   0.04261   0.03644  -0.0550   0.2215   1.0000
14.250   1.5309   0.04480   0.03860  -0.0537   0.2135   1.0000
14.500   1.5369   0.04661   0.04046  -0.0529   0.2050   1.0000
14.750   1.5354   0.04916   0.04299  -0.0518   0.1953   1.0000
15.000   1.5374   0.05144   0.04527  -0.0509   0.1844   1.0000
15.250   1.5374   0.05393   0.04777  -0.0500   0.1742   1.0000
15.500   1.5354   0.05667   0.05050  -0.0492   0.1658   1.0000
15.750   1.5311   0.05972   0.05352  -0.0484   0.1568   1.0000
16.000   1.5293   0.06255   0.05636  -0.0477   0.1509   1.0000
