
 ===================================================
  XFOIL Version 6.99
  Copyright (C) 2000   Mark Drela, Harold Youngren

  This software comes with ABSOLUTELY NO WARRANTY,
    subject to the GNU General Public License.

  Caveat computor
 ===================================================

 File  xfoil.def  not found

   QUIT    Exit program

  .OPER    Direct operating point(s)
  .MDES    Complex mapping design routine
  .QDES    Surface speed design routine
  .GDES    Geometry design routine

   SAVE f  Write airfoil to labeled coordinate file
   PSAV f  Write airfoil to plain coordinate file
   ISAV f  Write airfoil to ISES coordinate file
   MSAV f  Write airfoil to MSES coordinate file
   REVE    Reverse written-airfoil node ordering

   LOAD f  Read buffer airfoil from coordinate file
   NACA i  Set NACA 4,5-digit airfoil and buffer airfoil
   INTE    Set buffer airfoil by interpolating two airfoils
   NORM    Buffer airfoil normalization toggle
   XYCM rr Change CM reference location, currently  0.25000 0.00000

   BEND    Display structural properties of current airfoil

   PCOP    Set current-airfoil panel nodes directly from buffer airfoil points
   PANE    Set current-airfoil panel nodes ( 160 ) based on curvature
  .PPAR    Show/change paneling

  .PLOP    Plotting options

   WDEF f  Write  current-settings file
   RDEF f  Reread current-settings file
   NAME s  Specify new airfoil name
   NINC    Increment name version number

   Z       Zoom    | (available in all menus)
   U       Unzoom  | 

 XFOIL   c>  
 Labeled airfoil file.  Name:  GOE 619 AIRFOIL                                 

 Number of input coordinate points:  33
 Counterclockwise ordering
 Max thickness =     0.137977  at x =   0.202
 Max camber    =     0.045203  at x =   0.495

  LE  x,y  =  -0.00001   0.00060  |   Chord =   1.00001
  TE  x,y  =   1.00000   0.00000  |

 Current airfoil nodes set from buffer airfoil nodes (  33 )

 WARNING: Poor input coordinate distribution
          Excessive panel angle   61.6  at i =  17
          Repaneling with PANE and/or PPAR suggested
           (doing GDES,CADD before repaneling _may_
            improve excessively coarse LE spacing

 XFOIL   c>  
 XFOIL   c>  
 Sharp trailing edge

 Paneling parameters used...
   Number of panel nodes       160
   Panel bunching parameter    1.000
   TE/LE panel density ratio   0.150
   Refined-area/LE panel density ratio    0.200
   Top    side refined area x/c limits  1.000 1.000
   Bottom side refined area x/c limits  1.000 1.000

 XFOIL   c>  
.OPERi   c>  
 Xtr/c     =  1.0000    top    side
 Xtr/c     =  1.0000    bottom side
 Ncrit     =    9.00   ( 0.070 % turb. level )
 Vacc      =  0.0100

 Klag  =  5.6000     Uxwt  =    1.00
 A     =  6.7000     B     =  0.7500       KCt = 0.01485
 CtiniK=  1.8000     CtiniX=  3.3000

..VPAR   c>  
..VPAR   c>  
.OPERi   c>  
 M  =    0.0000
 Re =    150000

.OPERv   c>  
.OPERv   c>  
.OPERv   c>  
 Polar  1 newly created for accumulation
 Airfoil archived with polar: GOE 619 AIRFOIL                                 

Enter  polar save filename  OR  <return> for no file   s>  
 New polar save file available

Enter  polar dump filename  OR  <return> for no file   s>  
 Polar dump file will NOT be written

 Polar accumulation enabled

.OPERva   c>   Calculating unit vorticity distributions ...
 Calculating wake trajectory ...
 Calculating source influence matrix ...

 Solving BL system ...

 Initializing BL ...
    side            1  ...
 MRCHUE: Inverse mode at  50     Hk =   3.882
 MRCHUE: Inverse mode at  51     Hk =   4.282
 MRCHUE: Inverse mode at  52     Hk =   4.674
 MRCHUE: Inverse mode at  53     Hk =   5.058
 MRCHUE: Inverse mode at  54     Hk =   5.434
 MRCHUE: Inverse mode at  55     Hk =   5.804
 MRCHUE: Inverse mode at  56     Hk =   6.169
 MRCHUE: Inverse mode at  57     Hk =   6.528
 MRCHUE: Inverse mode at  58     Hk =   6.883
 MRCHUE: Inverse mode at  59     Hk =   7.235
 MRCHUE: Inverse mode at  60     Hk =   7.583
 MRCHUE: Inverse mode at  61     Hk =   7.929
 MRCHUE: Inverse mode at  62     Hk =   8.272
 MRCHUE: Inverse mode at  63     Hk =   8.613
 MRCHUE: Inverse mode at  64     Hk =   8.953
 MRCHUE: Inverse mode at  65     Hk =   9.291
 MRCHUE: Inverse mode at  66     Hk =   9.627
 MRCHUE: Inverse mode at  67     Hk =   8.863
 MRCHUE: Inverse mode at  68     Hk =   7.528
 MRCHUE: Inverse mode at  69     Hk =   6.564
 MRCHUE: Inverse mode at  70     Hk =   5.811
 MRCHUE: Inverse mode at  71     Hk =   5.208
 MRCHUE: Inverse mode at  72     Hk =   4.720
 MRCHUE: Inverse mode at  73     Hk =   4.323
 MRCHUE: Inverse mode at  74     Hk =   3.998
 MRCHUE: Inverse mode at  75     Hk =   3.726
 MRCHUE: Convergence failed at  76  side 1    Res =  0.1067E+02
    side            2  ...
 MRCHUE: Inverse mode at  22     Hk =   3.800
 MRCHUE: Inverse mode at  23     Hk =   4.393
 MRCHUE: Inverse mode at  24     Hk =   4.980
 MRCHUE: Inverse mode at  25     Hk =   5.572
 MRCHUE: Inverse mode at  26     Hk =   6.172
 MRCHUE: Inverse mode at  27     Hk =   6.781
 MRCHUE: Inverse mode at  28     Hk =   7.407
 MRCHUE: Inverse mode at  29     Hk =   8.069
 MRCHUE: Inverse mode at  30     Hk =   8.785
 MRCHUE: Inverse mode at  31     Hk =   9.566
 MRCHUE: Inverse mode at  32     Hk =   9.990
 MRCHUE: Inverse mode at  33     Hk =   5.883
 MRCHUE: Inverse mode at  34     Hk =   4.109
 MRCHUE: Inverse mode at  35     Hk =   2.939
 MRCHUE: Inverse mode at  86     Hk =   2.500

 MRCHDU: Convergence failed at  76  side 1    Res =  0.7901E+01
 Side 1  free  transition at x/c =  0.8695   67
 Side 2  free  transition at x/c =  0.1025   32
 idif Ue xi dudx           1  0.10361709      3.14199924E-03   32.978077    
 Uenew xinew           2  1.32288011E-02  4.01139259E-04

   1   rms: 0.3655E+00   max: -.1874E+01   T at   32  2   RLX: 0.267
       a = -4.000      CL =  0.0241
      Cm = -0.1161     CD =  0.01811   =>   CDf =  0.00821    CDp =  0.00991

 MRCHDU: Convergence failed at  35  side 2    Res =  0.3557E+01
 MRCHDU: Convergence failed at  36  side 2    Res =  0.3952E+02
 MRCHDU: Convergence failed at  37  side 2    Res =  0.7259E+01
 MRCHDU: Convergence failed at  38  side 2    Res =  0.3469E+01
 MRCHDU: Convergence failed at  39  side 2    Res =  0.3228E+01
 MRCHDU: Convergence failed at  40  side 2    Res =  0.3801E+01
 MRCHDU: Convergence failed at  41  side 2    Res =  0.3466E+01
 MRCHDU: Convergence failed at  42  side 2    Res =  0.4807E+01
 MRCHDU: Convergence failed at  43  side 2    Res =  0.6015E+01
 MRCHDU: Convergence failed at  44  side 2    Res =  0.7009E+01
 MRCHDU: Convergence failed at  45  side 2    Res =  0.7404E+01
 MRCHDU: Convergence failed at  46  side 2    Res =  0.7400E+01
 MRCHDU: Convergence failed at  47  side 2    Res =  0.7458E+01
 MRCHDU: Convergence failed at  48  side 2    Res =  0.1153E+02
 MRCHDU: Convergence failed at  49  side 2    Res =  0.1228E+02
 MRCHDU: Convergence failed at  50  side 2    Res =  0.1744E+02
 MRCHDU: Convergence failed at  51  side 2    Res =  0.3606E+02
 MRCHDU: Convergence failed at  52  side 2    Res =  0.3193E+02
 MRCHDU: Convergence failed at  53  side 2    Res =  0.4078E+02
 MRCHDU: Convergence failed at  54  side 2    Res =  0.4021E+02
 MRCHDU: Convergence failed at  55  side 2    Res =  0.3662E+02
 MRCHDU: Convergence failed at  56  side 2    Res =  0.4102E+02
 MRCHDU: Convergence failed at  57  side 2    Res =  0.5278E+02
 MRCHDU: Convergence failed at  58  side 2    Res =  0.4421E+03
 MRCHDU: Convergence failed at  59  side 2    Res =  0.5296E+02
 MRCHDU: Convergence failed at  60  side 2    Res =  0.4352E+02
 MRCHDU: Convergence failed at  61  side 2    Res =  0.4959E+02
 MRCHDU: Convergence failed at  62  side 2    Res =  0.2318E+03
 MRCHDU: Convergence failed at  63  side 2    Res =  0.4743E+02
 MRCHDU: Convergence failed at  64  side 2    Res =  0.3752E+02
 MRCHDU: Convergence failed at  65  side 2    Res =  0.3527E+02
 MRCHDU: Convergence failed at  66  side 2    Res =  0.3962E+02
 MRCHDU: Convergence failed at  67  side 2    Res =  0.3903E+02
 MRCHDU: Convergence failed at  68  side 2    Res =  0.5166E+02
 MRCHDU: Convergence failed at  69  side 2    Res =  0.6418E+02
 MRCHDU: Convergence failed at  70  side 2    Res =  0.2202E+02
 MRCHDU: Convergence failed at  71  side 2    Res =  0.2168E+02
 MRCHDU: Convergence failed at  72  side 2    Res =  0.2149E+02
 MRCHDU: Convergence failed at  73  side 2    Res =  0.2138E+02
 MRCHDU: Convergence failed at  74  side 2    Res =  0.2144E+02
 MRCHDU: Convergence failed at  75  side 2    Res =  0.2184E+02
 MRCHDU: Convergence failed at  76  side 2    Res =  0.2242E+02
 MRCHDU: Convergence failed at  77  side 2    Res =  0.2295E+02
 MRCHDU: Convergence failed at  78  side 2    Res =  0.2387E+02
 MRCHDU: Convergence failed at  79  side 2    Res =  0.2625E+02
 MRCHDU: Convergence failed at  80  side 2    Res =  0.2600E+02
 MRCHDU: Convergence failed at  81  side 2    Res =  0.2252E+02
 MRCHDU: Convergence failed at  82  side 2    Res =  0.2149E+02
 MRCHDU: Convergence failed at  83  side 2    Res =  0.2086E+02
 MRCHDU: Convergence failed at  84  side 2    Res =  0.1927E+02
 MRCHDU: Convergence failed at  85  side 2    Res =  0.2775E+02
 MRCHDU: Convergence failed at  86  side 2    Res =  0.9297E+02
 MRCHDU: Convergence failed at  87  side 2    Res =  0.1815E+03
 Side 1  free  transition at x/c =  0.8587   65
 Side 2  free  transition at x/c =  0.1169   34

   2   rms: 0.1669E+01   max: -.1750E+02   T at   34  2   RLX: 0.029
       a = -4.000      CL = -0.7964
      Cm =  0.1832     CD =  0.00705   =>   CDf =  0.00383    CDp =  0.00322

 Side 1  free  transition at x/c =  0.8616   66
 Side 2  free  transition at x/c =  0.1380   36

   3   rms: 0.5618E+00   max: -.2918E+01   T at   36  2   RLX: 0.171
       a = -4.000      CL = -0.5919
      Cm =  0.1060     CD =  0.01055   =>   CDf =  0.01179    CDp = -0.00124

 Side 1  free  transition at x/c =  0.8628   66
 Side 2  free  transition at x/c =  0.1582   37

   4   rms: 0.4139E+00   max: -.1777E+01   C at   37  2   RLX: 0.281
       a = -4.000      CL = -0.4405
      Cm =  0.0441     CD =  0.01232   =>   CDf =  0.01076    CDp =  0.00156

 Side 1  free  transition at x/c =  0.8634   66
 Side 2  free  transition at x/c =  0.1625   37

   5   rms: 0.3282E+00   max: 0.5741E+00   D at   96  2   RLX: 0.421
       a = -4.000      CL = -0.3192
      Cm = -0.0114     CD =  0.01470   =>   CDf =  0.01009    CDp =  0.00461

 Side 1  free  transition at x/c =  0.8605   65
 Side 2  free  transition at x/c =  0.1568   37

   6   rms: 0.2901E+00   max: -.1167E+01   D at   82  2   RLX: 0.428
       a = -4.000      CL = -0.1658
      Cm = -0.0566     CD =  0.01459   =>   CDf =  0.00904    CDp =  0.00555

 MRCHDU: Convergence failed at  69  side 1    Res =  0.1246E+01
 MRCHDU: Convergence failed at  70  side 1    Res =  0.2622E+01
 MRCHDU: Convergence failed at  71  side 1    Res =  0.5799E+01
 MRCHDU: Convergence failed at  72  side 1    Res =  0.7865E+01
 MRCHDU: Convergence failed at  73  side 1    Res =  0.7247E+01
 MRCHDU: Convergence failed at  74  side 1    Res =  0.5479E+01
 MRCHDU: Convergence failed at  75  side 1    Res =  0.4684E+01
 MRCHDU: Convergence failed at  78  side 2    Res =  0.4677E+00
 Side 1  free  transition at x/c =  0.8829   67
 Side 2  free  transition at x/c =  0.1731   38

   7   rms: 0.2837E+00   max: 0.1192E+01   D at   75  1   RLX: 0.510
       a = -4.000      CL = -0.1332
      Cm = -0.0764     CD =  0.01252   =>   CDf =  0.00856    CDp =  0.00396

 Side 1  free  transition at x/c =  0.8731   66
 Side 2  free  transition at x/c =  0.1658   38

   8   rms: 0.1927E+00   max: 0.8977E+00   D at   39  2   RLX: 0.966
       a = -4.000      CL =  0.0947
      Cm = -0.1259     CD =  0.01669   =>   CDf =  0.00846    CDp =  0.00823

 MRCHDU: Convergence failed at  76  side 1    Res =  0.1464E+01
 Side 1  free  transition at x/c =  0.8881   68
 Side 2  free  transition at x/c =  0.1866   38

   9   rms: 0.8756E-01   max: 0.3845E+00   D at   69  1
       a = -4.000      CL =  0.0499
      Cm = -0.1157     CD =  0.01817   =>   CDf =  0.00776    CDp =  0.01041

 Side 1  free  transition at x/c =  0.8747   67
 Side 2  free  transition at x/c =  0.1793   38
 idif Ue xi dudx           1  0.14193454      4.55796719E-03   31.139879    
 Uenew xinew           2  5.65844998E-02  1.81710720E-03

  10   rms: 0.1678E+00   max: 0.9892E+00   T at   67  1   RLX: 0.900
       a = -4.000      CL = -0.0766
      Cm = -0.0925     CD =  0.02173   =>   CDf =  0.00789    CDp =  0.01384

 MRCHDU: Convergence failed at  39  side 2    Res =  0.4382E+01
 MRCHDU: Convergence failed at  40  side 2    Res =  0.1243E+02
 MRCHDU: Convergence failed at  41  side 2    Res =  0.1004E+02
 MRCHDU: Convergence failed at  42  side 2    Res =  0.1761E+02
 MRCHDU: Convergence failed at  43  side 2    Res =  0.1332E+02
 MRCHDU: Convergence failed at  44  side 2    Res =  0.8731E+01
 MRCHDU: Convergence failed at  45  side 2    Res =  0.6333E+01
 MRCHDU: Convergence failed at  46  side 2    Res =  0.5954E+01
 MRCHDU: Convergence failed at  47  side 2    Res =  0.5427E+01
 MRCHDU: Convergence failed at  48  side 2    Res =  0.1517E+02
 MRCHDU: Convergence failed at  49  side 2    Res =  0.2024E+02
 MRCHDU: Convergence failed at  50  side 2    Res =  0.2744E+02
 MRCHDU: Convergence failed at  51  side 2    Res =  0.4623E+02
 MRCHDU: Convergence failed at  52  side 2    Res =  0.1408E+03
 MRCHDU: Convergence failed at  53  side 2    Res =  0.2459E+03
 MRCHDU: Convergence failed at  54  side 2    Res =  0.8633E+02
 MRCHDU: Convergence failed at  55  side 2    Res =  0.5445E+02
 MRCHDU: Convergence failed at  56  side 2    Res =  0.4467E+02
 MRCHDU: Convergence failed at  57  side 2    Res =  0.3890E+02
 MRCHDU: Convergence failed at  58  side 2    Res =  0.3927E+02
 MRCHDU: Convergence failed at  59  side 2    Res =  0.3893E+02
 MRCHDU: Convergence failed at  60  side 2    Res =  0.3966E+02
 MRCHDU: Convergence failed at  61  side 2    Res =  0.4066E+02
 MRCHDU: Convergence failed at  62  side 2    Res =  0.4132E+02
 MRCHDU: Convergence failed at  63  side 2    Res =  0.4061E+02
 MRCHDU: Convergence failed at  64  side 2    Res =  0.3828E+02
 MRCHDU: Convergence failed at  65  side 2    Res =  0.3553E+02
 MRCHDU: Convergence failed at  66  side 2    Res =  0.3278E+02
 MRCHDU: Convergence failed at  67  side 2    Res =  0.3029E+02
 MRCHDU: Convergence failed at  68  side 2    Res =  0.2817E+02
 MRCHDU: Convergence failed at  69  side 2    Res =  0.2757E+02
 MRCHDU: Convergence failed at  70  side 2    Res =  0.2612E+02
 MRCHDU: Convergence failed at  71  side 2    Res =  0.2492E+02
 MRCHDU: Convergence failed at  72  side 2    Res =  0.2481E+02
 MRCHDU: Convergence failed at  73  side 2    Res =  0.2404E+02
 MRCHDU: Convergence failed at  74  side 2    Res =  0.2347E+02
 MRCHDU: Convergence failed at  75  side 2    Res =  0.2315E+02
 MRCHDU: Convergence failed at  76  side 2    Res =  0.2296E+02
 MRCHDU: Convergence failed at  77  side 2    Res =  0.2281E+02
 MRCHDU: Convergence failed at  78  side 2    Res =  0.2269E+02
 MRCHDU: Convergence failed at  79  side 2    Res =  0.3276E+02
 MRCHDU: Convergence failed at  80  side 2    Res =  0.3218E+02
 MRCHDU: Convergence failed at  81  side 2    Res =  0.3128E+02
 MRCHDU: Convergence failed at  82  side 2    Res =  0.3413E+02
 MRCHDU: Convergence failed at  83  side 2    Res =  0.4037E+02
 MRCHDU: Convergence failed at  84  side 2    Res =  0.4512E+02
 MRCHDU: Convergence failed at  85  side 2    Res =  0.4879E+02
 MRCHDU: Convergence failed at  86  side 2    Res =  0.4720E+02
 MRCHDU: Convergence failed at  87  side 2    Res =  0.2890E+02
 Side 1  free  transition at x/c =  0.8421   64
 Side 2  free  transition at x/c =  0.1633   38
 idif Ue xi dudx           1  0.14181364      4.76384163E-03   29.768755    
 Uenew xinew           2  5.05159162E-02  1.69694424E-03

  11   rms: 0.1766E+01   max: 0.1196E+02   T at   38  2   RLX: 0.081
       a = -4.000      CL = -0.7446
      Cm =  0.1369     CD =  0.01970   =>   CDf =  0.00395    CDp =  0.01576

 MRCHDU: Convergence failed at  39  side 2    Res =  0.6276E+01
 Side 1  free  transition at x/c =  0.8168   62
 Side 2  free  transition at x/c =  0.1462   37

  12   rms: 0.4366E+00   max: -.2041E+01   T at   37  2   RLX: 0.245
       a = -4.000      CL = -0.4308
      Cm =  0.0326     CD =  0.02920   =>   CDf =  0.00567    CDp =  0.02353

 Side 1  free  transition at x/c =  0.8273   62
 Side 2  free  transition at x/c =  0.1622   38

  13   rms: 0.3417E+00   max: 0.1785E+01   T at   62  1   RLX: 0.368
       a = -4.000      CL = -0.3394
      Cm = -0.0136     CD =  0.02713   =>   CDf =  0.00605    CDp =  0.02109

 Side 1  free  transition at x/c =  0.8142   62
 Side 2  free  transition at x/c =  0.1554   38

  14   rms: 0.4127E+00   max: -.1989E+01   D at   47  2   RLX: 0.251
       a = -4.000      CL = -0.2675
      Cm = -0.0362     CD =  0.02707   =>   CDf =  0.00605    CDp =  0.02102

 MRCHDU: Convergence failed at  45  side 2    Res =  0.3278E+00
 Side 1  free  transition at x/c =  0.8193   62
 Side 2  free  transition at x/c =  0.1598   38

  15   rms: 0.4310E+00   max: -.1770E+01   D at   57  2   RLX: 0.283
       a = -4.000      CL = -0.1975
      Cm = -0.0590     CD =  0.02481   =>   CDf =  0.00676    CDp =  0.01805

 MRCHDU: Convergence failed at  52  side 2    Res =  0.6507E+00
 Side 1  free  transition at x/c =  0.8291   64
 Side 2  free  transition at x/c =  0.1658   38

  16   rms: 0.3381E+00   max: -.1593E+01   D at   67  2   RLX: 0.314
       a = -4.000      CL = -0.1432
      Cm = -0.0753     CD =  0.02320   =>   CDf =  0.00767    CDp =  0.01553

 MRCHDU: Convergence failed at  62  side 2    Res =  0.3798E+00
 Side 1  free  transition at x/c =  0.8342   64
 Side 2  free  transition at x/c =  0.1685   38

  17   rms: 0.2450E+00   max: -.1012E+01   D at   69  2   RLX: 0.494
       a = -4.000      CL = -0.0669
      Cm = -0.0924     CD =  0.02154   =>   CDf =  0.00801    CDp =  0.01352

 MRCHDU: Convergence failed at  74  side 2    Res =  0.1756E+00
 Side 1  free  transition at x/c =  0.8464   65
 Side 2  free  transition at x/c =  0.1720   38

  18   rms: 0.1774E+00   max: 0.6497E+00   D at   81  2   RLX: 0.694
       a = -4.000      CL = -0.0160
      Cm = -0.1022     CD =  0.02041   =>   CDf =  0.00821    CDp =  0.01220

 Side 1  free  transition at x/c =  0.8554   65
 Side 2  free  transition at x/c =  0.1725   38

  19   rms: 0.3407E+00   max: -.2024E+01   T at   65  1   RLX: 0.247
       a = -4.000      CL =  0.0625
      Cm = -0.1162     CD =  0.01995   =>   CDf =  0.00789    CDp =  0.01205

 Side 1  free  transition at x/c =  0.8821   68
 Side 2  free  transition at x/c =  0.1831   38

  20   rms: 0.6328E-01   max: -.3911E+00   D at   70  2
       a = -4.000      CL =  0.0566
      Cm = -0.1169     CD =  0.01884   =>   CDf =  0.00791    CDp =  0.01093

 Side 1  free  transition at x/c =  0.8762   67
 Side 2  free  transition at x/c =  0.1792   38
 idif Ue xi dudx           1  0.14539854      4.67348099E-03   31.111401    
 Uenew xinew           2  6.01265468E-02  1.93262100E-03

  21   rms: 0.7299E+00   max: 0.4142E+01   T at   67  1   RLX: 0.235
       a = -4.000      CL = -0.0815
      Cm = -0.0920     CD =  0.02194   =>   CDf =  0.00792    CDp =  0.01402

 MRCHDU: Convergence failed at  39  side 2    Res =  0.5081E+01
 MRCHDU: Convergence failed at  40  side 2    Res =  0.3273E+02
 MRCHDU: Convergence failed at  41  side 2    Res =  0.1797E+03
 MRCHDU: Convergence failed at  42  side 2    Res =  0.1077E+02
 MRCHDU: Convergence failed at  43  side 2    Res =  0.7644E+01
 MRCHDU: Convergence failed at  44  side 2    Res =  0.6703E+01
 MRCHDU: Convergence failed at  45  side 2    Res =  0.5803E+01
 MRCHDU: Convergence failed at  46  side 2    Res =  0.5386E+01
 MRCHDU: Convergence failed at  47  side 2    Res =  0.5050E+01
 MRCHDU: Convergence failed at  48  side 2    Res =  0.1671E+02
 MRCHDU: Convergence failed at  49  side 2    Res =  0.2401E+02
 MRCHDU: Convergence failed at  50  side 2    Res =  0.3240E+02
 MRCHDU: Convergence failed at  51  side 2    Res =  0.7093E+02
 MRCHDU: Convergence failed at  52  side 2    Res =  0.5597E+03
 MRCHDU: Convergence failed at  53  side 2    Res =  0.1502E+03
 MRCHDU: Convergence failed at  54  side 2    Res =  0.7396E+02
 MRCHDU: Convergence failed at  55  side 2    Res =  0.5366E+02
 MRCHDU: Convergence failed at  56  side 2    Res =  0.4616E+02
 MRCHDU: Convergence failed at  57  side 2    Res =  0.4099E+02
 MRCHDU: Convergence failed at  58  side 2    Res =  0.3958E+02
 MRCHDU: Convergence failed at  59  side 2    Res =  0.3914E+02
 MRCHDU: Convergence failed at  60  side 2    Res =  0.3935E+02
 MRCHDU: Convergence failed at  61  side 2    Res =  0.4029E+02
 MRCHDU: Convergence failed at  62  side 2    Res =  0.4033E+02
 MRCHDU: Convergence failed at  63  side 2    Res =  0.4175E+02
 MRCHDU: Convergence failed at  64  side 2    Res =  0.3939E+02
 MRCHDU: Convergence failed at  65  side 2    Res =  0.4032E+02
 MRCHDU: Convergence failed at  66  side 2    Res =  0.3731E+02
 MRCHDU: Convergence failed at  67  side 2    Res =  0.3455E+02
 MRCHDU: Convergence failed at  68  side 2    Res =  0.3226E+02
 MRCHDU: Convergence failed at  69  side 2    Res =  0.2981E+02
 MRCHDU: Convergence failed at  70  side 2    Res =  0.2713E+02
 MRCHDU: Convergence failed at  71  side 2    Res =  0.3109E+02
 MRCHDU: Convergence failed at  72  side 2    Res =  0.2642E+02
 MRCHDU: Convergence failed at  73  side 2    Res =  0.2621E+02
 MRCHDU: Convergence failed at  74  side 2    Res =  0.2610E+02
 MRCHDU: Convergence failed at  75  side 2    Res =  0.2624E+02
 MRCHDU: Convergence failed at  76  side 2    Res =  0.2575E+02
 MRCHDU: Convergence failed at  77  side 2    Res =  0.2552E+02
 MRCHDU: Convergence failed at  78  side 2    Res =  0.2532E+02
 MRCHDU: Convergence failed at  79  side 2    Res =  0.2503E+02
 MRCHDU: Convergence failed at  80  side 2    Res =  0.2452E+02
 MRCHDU: Convergence failed at  81  side 2    Res =  0.2388E+02
 MRCHDU: Convergence failed at  82  side 2    Res =  0.4413E+02
 MRCHDU: Convergence failed at  83  side 2    Res =  0.4663E+02
 MRCHDU: Convergence failed at  84  side 2    Res =  0.2325E+02
 MRCHDU: Convergence failed at  85  side 2    Res =  0.2313E+02
 MRCHDU: Convergence failed at  86  side 2    Res =  0.5755E+02
 MRCHDU: Convergence failed at  87  side 2    Res =  0.5336E+02
 Side 1  free  transition at x/c =  0.8412   64
 Side 2  free  transition at x/c =  0.1622   37

  22   rms: 0.5753E+01   max: -.3773E+02   T at   37  2   RLX: 0.013
       a = -4.000      CL = -0.5543
      Cm =  0.1093     CD =  0.01742   =>   CDf =  0.00400    CDp =  0.01342

 Side 1  free  transition at x/c =  0.8604   65
 Side 2  free  transition at x/c =  0.1805   39

  23   rms: 0.3244E+00   max: -.6028E+00   D at   88  2   RLX: 0.537
       a = -4.000      CL = -0.2313
      Cm = -0.0353     CD =  0.02555   =>   CDf =  0.00644    CDp =  0.01910

 Side 1  free  transition at x/c =  0.8508   65
 Side 2  free  transition at x/c =  0.1720   38

  24   rms: 0.3912E+00   max: -.1777E+01   D at   50  2   RLX: 0.281
       a = -4.000      CL = -0.1618
      Cm = -0.0611     CD =  0.02201   =>   CDf =  0.00623    CDp =  0.01577

 Side 1  free  transition at x/c =  0.8546   65
 Side 2  free  transition at x/c =  0.1738   38

  25   rms: 0.3705E+00   max: -.1674E+01   D at   68  2   RLX: 0.299
       a = -4.000      CL = -0.1298
      Cm = -0.0759     CD =  0.02067   =>   CDf =  0.00680    CDp =  0.01387

 MRCHDU: Convergence failed at  48  side 2    Res =  0.6700E-01
 Side 1  free  transition at x/c =  0.8555   65
 Side 2  free  transition at x/c =  0.1715   38
 idif Ue xi dudx           1  0.12634276      4.41133976E-03   28.640451    
 Uenew xinew           2  3.85054350E-02  1.34444237E-03

  26   rms: 0.7775E+00   max: 0.3820E+01   T at   38  2   RLX: 0.185
       a = -4.000      CL = -0.2684
      Cm = -0.0532     CD =  0.02205   =>   CDf =  0.00758    CDp =  0.01447

 Side 1  free  transition at x/c =  0.8358   63
 Side 2  free  transition at x/c =  0.1498   38

  27   rms: 0.2425E+00   max: -.1365E+01   D at   86  2   RLX: 0.366
       a = -4.000      CL = -0.2505
      Cm = -0.0597     CD =  0.02170   =>   CDf =  0.00779    CDp =  0.01391

 MRCHDU: Convergence failed at  77  side 2    Res =  0.4337E+00
 Side 1  free  transition at x/c =  0.8369   63
 Side 2  free  transition at x/c =  0.1471   37

  28   rms: 0.3294E+00   max: -.1935E+01   T at   37  2   RLX: 0.258
       a = -4.000      CL = -0.1698
      Cm = -0.0701     CD =  0.02147   =>   CDf =  0.00820    CDp =  0.01326

 MRCHDU: Convergence failed at  38  side 2    Res =  0.2581E+01
 MRCHDU: Convergence failed at  39  side 2    Res =  0.5617E+01
 MRCHDU: Convergence failed at  40  side 2    Res =  0.5068E+01
 MRCHDU: Convergence failed at  41  side 2    Res =  0.6013E+01
 MRCHDU: Convergence failed at  42  side 2    Res =  0.7292E+01
 MRCHDU: Convergence failed at  43  side 2    Res =  0.1034E+02
 MRCHDU: Convergence failed at  44  side 2    Res =  0.1425E+02
 MRCHDU: Convergence failed at  45  side 2    Res =  0.1682E+02
 MRCHDU: Convergence failed at  46  side 2    Res =  0.1741E+02
 MRCHDU: Convergence failed at  47  side 2    Res =  0.1324E+02
 MRCHDU: Convergence failed at  48  side 2    Res =  0.2123E+02
 MRCHDU: Convergence failed at  49  side 2    Res =  0.1783E+02
 MRCHDU: Convergence failed at  50  side 2    Res =  0.1924E+02
 MRCHDU: Convergence failed at  51  side 2    Res =  0.2851E+02
 MRCHDU: Convergence failed at  52  side 2    Res =  0.8436E+02
 MRCHDU: Convergence failed at  53  side 2    Res =  0.4760E+02
 MRCHDU: Convergence failed at  54  side 2    Res =  0.2038E+02
 MRCHDU: Convergence failed at  55  side 2    Res =  0.1149E+02
 MRCHDU: Convergence failed at  56  side 2    Res =  0.2833E+02
 MRCHDU: Convergence failed at  57  side 2    Res =  0.2359E+02
 MRCHDU: Convergence failed at  58  side 2    Res =  0.8409E+02
 MRCHDU: Convergence failed at  59  side 2    Res =  0.1948E+03
 MRCHDU: Convergence failed at  60  side 2    Res =  0.2271E+03
 MRCHDU: Convergence failed at  61  side 2    Res =  0.5211E+02
 MRCHDU: Convergence failed at  62  side 2    Res =  0.4716E+02
 MRCHDU: Convergence failed at  63  side 2    Res =  0.1351E+03
 MRCHDU: Convergence failed at  64  side 2    Res =  0.3328E+02
 MRCHDU: Convergence failed at  65  side 2    Res =  0.6574E+02
 MRCHDU: Convergence failed at  66  side 2    Res =  0.6929E+02
 MRCHDU: Convergence failed at  67  side 2    Res =  0.6162E+02
 MRCHDU: Convergence failed at  68  side 2    Res =  0.6009E+02
 MRCHDU: Convergence failed at  69  side 2    Res =  0.4786E+02
 MRCHDU: Convergence failed at  70  side 2    Res =  0.3186E+02
 MRCHDU: Convergence failed at  71  side 2    Res =  0.2395E+02
 MRCHDU: Convergence failed at  72  side 2    Res =  0.1826E+03
 MRCHDU: Convergence failed at  73  side 2    Res =  0.4768E+02
 MRCHDU: Convergence failed at  74  side 2    Res =  0.1192E+04
 MRCHDU: Convergence failed at  75  side 2    Res =  0.8900E+01
 MRCHDU: Convergence failed at  76  side 2    Res =  0.8874E+01
 MRCHDU: Convergence failed at  77  side 2    Res =  0.2213E+02
 MRCHDU: Convergence failed at  78  side 2    Res =  0.4321E+02
 MRCHDU: Convergence failed at  79  side 2    Res =  0.1086E+03
 MRCHDU: Convergence failed at  80  side 2    Res =  0.4624E+02
 MRCHDU: Convergence failed at  81  side 2    Res =  0.4743E+02
 MRCHDU: Convergence failed at  82  side 2    Res =  0.2480E+02
 MRCHDU: Convergence failed at  83  side 2    Res =  0.2025E+02
 MRCHDU: Convergence failed at  84  side 2    Res =  0.6528E+02
 MRCHDU: Convergence failed at  85  side 2    Res =  0.6674E+02
 MRCHDU: Convergence failed at  86  side 2    Res =  0.1296E+03
 MRCHDU: Convergence failed at  87  side 2    Res =  0.2916E+02
 Side 1  free  transition at x/c =  0.8535   65
 Side 2  free  transition at x/c =  0.1625   37

  29   rms: 0.8529E+00   max: -.4788E+01   D at    2  1   RLX: 0.104
       a = -4.000      CL = -0.8005
      Cm =  0.1768     CD =  0.01104   =>   CDf =  0.00390    CDp =  0.00715

 MRCHDU: Convergence failed at  66  side 2    Res =  0.1119E+00
 MRCHDU: Convergence failed at  67  side 2    Res =  0.1040E+00
 MRCHDU: Convergence failed at  68  side 2    Res =  0.9622E-01
 Side 1  free  transition at x/c =  0.8582   65
 Side 2  free  transition at x/c =  0.1664   38

  30   rms: 0.4221E+00   max: -.6522E+00   D at   88  2   RLX: 0.427
       a = -4.000      CL = -0.2350
      Cm = -0.0156     CD =  0.02543   =>   CDf =  0.00561    CDp =  0.01982

 Side 1  free  transition at x/c =  0.8879   67
 Side 2  free  transition at x/c =  0.1768   38

  31   rms: 0.3031E+00   max: -.1220E+01   D at   47  2   RLX: 0.410
       a = -4.000      CL = -0.1115
      Cm = -0.0664     CD =  0.02429   =>   CDf =  0.00540    CDp =  0.01890

 Side 1  free  transition at x/c =  0.8843   67
 Side 2  free  transition at x/c =  0.1811   39

  32   rms: 0.3715E+00   max: -.1813E+01   D at   48  2   RLX: 0.276
       a = -4.000      CL = -0.0776
      Cm = -0.0884     CD =  0.02091   =>   CDf =  0.00566    CDp =  0.01526

 Side 1  free  transition at x/c =  0.8790   67
 Side 2  free  transition at x/c =  0.1796   39

  33   rms: 0.4108E+00   max: -.1564E+01   D at   61  2   RLX: 0.320
       a = -4.000      CL = -0.0466
      Cm = -0.1010     CD =  0.01890   =>   CDf =  0.00591    CDp =  0.01299

 Side 1  free  transition at x/c =  0.8767   66
 Side 2  free  transition at x/c =  0.1794   39

  34   rms: 0.4610E+00   max: -.2267E+01   D at   61  2   RLX: 0.221
       a = -4.000      CL =  0.0053
      Cm = -0.1105     CD =  0.01723   =>   CDf =  0.00645    CDp =  0.01079

 MRCHDU: Convergence failed at  53  side 2    Res =  0.6074E+01
 Side 1  free  transition at x/c =  0.8843   68
 Side 2  free  transition at x/c =  0.1845   38
 idif Ue xi dudx           1  0.10938477      3.29542160E-03   33.192951    
 Uenew xinew           2  1.84075367E-02  5.54561615E-04

  35   rms: 0.4093E+00   max: -.1748E+01   D at   79  2   RLX: 0.286
       a = -4.000      CL = -0.0423
      Cm = -0.1058     CD =  0.01692   =>   CDf =  0.00700    CDp =  0.00991

 MRCHDU: Convergence failed at  68  side 2    Res =  0.2693E-02
 Side 1  free  transition at x/c =  0.8766   66
 Side 2  free  transition at x/c =  0.1752   38

  36   rms: 0.6844E+00   max: -.3382E+01   T at   66  1   RLX: 0.148
       a = -4.000      CL =  0.0566
      Cm = -0.1227     CD =  0.01624   =>   CDf =  0.00825    CDp =  0.00799

 MRCHDU: Convergence failed at  70  side 1    Res =  0.5192E+01
 MRCHDU: Convergence failed at  71  side 1    Res =  0.7369E+01
 MRCHDU: Convergence failed at  72  side 1    Res =  0.1248E+02
 MRCHDU: Convergence failed at  73  side 1    Res =  0.8873E+01
 MRCHDU: Convergence failed at  74  side 1    Res =  0.1227E+02
 MRCHDU: Convergence failed at  75  side 1    Res =  0.1883E+02
 MRCHDU: Convergence failed at  76  side 1    Res =  0.2266E+02
 MRCHDU: Convergence failed at  39  side 2    Res =  0.1321E+01
 MRCHDU: Convergence failed at  40  side 2    Res =  0.3590E+01
 MRCHDU: Convergence failed at  41  side 2    Res =  0.1813E+01
 MRCHDU: Convergence failed at  42  side 2    Res =  0.2638E+01
 MRCHDU: Convergence failed at  43  side 2    Res =  0.6484E+01
 MRCHDU: Convergence failed at  44  side 2    Res =  0.1403E+02
 MRCHDU: Convergence failed at  45  side 2    Res =  0.4067E+02
 MRCHDU: Convergence failed at  46  side 2    Res =  0.1026E+04
 MRCHDU: Convergence failed at  47  side 2    Res =  0.1009E+03
 MRCHDU: Convergence failed at  48  side 2    Res =  0.1211E+03
 MRCHDU: Convergence failed at  49  side 2    Res =  0.8889E+03
 MRCHDU: Convergence failed at  50  side 2    Res =  0.3526E+02
 MRCHDU: Convergence failed at  51  side 2    Res =  0.1611E+02
 MRCHDU: Convergence failed at  52  side 2    Res =  0.6433E+01
 MRCHDU: Convergence failed at  53  side 2    Res =  0.2661E+03
 MRCHDU: Convergence failed at  54  side 2    Res =  0.6825E+01
 MRCHDU: Convergence failed at  55  side 2    Res =  0.2143E+02
 MRCHDU: Convergence failed at  56  side 2    Res =  0.1986E+02
 MRCHDU: Convergence failed at  57  side 2    Res =  0.1969E+02
 MRCHDU: Convergence failed at  58  side 2    Res =  0.2199E+02
 MRCHDU: Convergence failed at  59  side 2    Res =  0.2401E+02
 MRCHDU: Convergence failed at  60  side 2    Res =  0.2799E+02
 MRCHDU: Convergence failed at  61  side 2    Res =  0.3418E+02
 MRCHDU: Convergence failed at  62  side 2    Res =  0.1911E+02
 MRCHDU: Convergence failed at  63  side 2    Res =  0.1899E+02
 MRCHDU: Convergence failed at  64  side 2    Res =  0.2252E+02
 MRCHDU: Convergence failed at  65  side 2    Res =  0.7431E+02
 MRCHDU: Convergence failed at  66  side 2    Res =  0.1348E+02
 MRCHDU: Convergence failed at  67  side 2    Res =  0.1610E+01
 MRCHDU: Convergence failed at  68  side 2    Res =  0.2293E+01
 MRCHDU: Convergence failed at  69  side 2    Res =  0.1175E+02
 MRCHDU: Convergence failed at  70  side 2    Res =  0.2064E+02
 MRCHDU: Convergence failed at  71  side 2    Res =  0.9114E+01
 MRCHDU: Convergence failed at  72  side 2    Res =  0.9615E+01
 MRCHDU: Convergence failed at  73  side 2    Res =  0.1321E+02
 MRCHDU: Convergence failed at  74  side 2    Res =  0.1400E+02
 MRCHDU: Convergence failed at  75  side 2    Res =  0.2488E+02
 MRCHDU: Convergence failed at  76  side 2    Res =  0.2184E+02
 MRCHDU: Convergence failed at  77  side 2    Res =  0.1915E+02
 MRCHDU: Convergence failed at  78  side 2    Res =  0.4102E+02
 MRCHDU: Convergence failed at  79  side 2    Res =  0.2093E+02
 MRCHDU: Convergence failed at  80  side 2    Res =  0.2669E+02
 MRCHDU: Convergence failed at  81  side 2    Res =  0.9886E+01
 MRCHDU: Convergence failed at  82  side 2    Res =  0.1139E+02
 MRCHDU: Convergence failed at  83  side 2    Res =  0.4493E+02
 MRCHDU: Convergence failed at  84  side 2    Res =  0.7343E+02
 MRCHDU: Convergence failed at  85  side 2    Res =  0.1941E+03
 MRCHDU: Convergence failed at  86  side 2    Res =  0.1079E+04
 MRCHDU: Convergence failed at  88  side 2    Res =  0.1967E+00
 MRCHDU: Convergence failed at  89  side 2    Res =  0.1403E+00
 MRCHDU: Convergence failed at  90  side 2    Res =  0.9779E-01
 Side 1  free  transition at x/c =  0.9083   69
 Side 2  free  transition at x/c =  0.1923   38

  37   rms: 0.1128E+01   max: 0.8474E+01   D at   90  2   RLX: 0.177
       a = -4.000      CL = -0.4295
      Cm =  0.0613     CD =  0.00458   =>   CDf =  0.00434    CDp =  0.00023

 Side 1  free  transition at x/c =  0.8897   68
 Side 2  free  transition at x/c =  0.1822   38
 idif Ue xi dudx           1  0.14701366      4.72080708E-03   31.141638    
 Uenew xinew           2  6.16587959E-02  1.97994709E-03

  38   rms: 0.4146E+00   max: 0.1237E+01   D at   91  2
       a = -4.000      CL = -0.0848
      Cm = -0.0906     CD =  0.01639   =>   CDf =  0.01109    CDp =  0.00529

 MRCHDU: Convergence failed at  39  side 2    Res =  0.7598E+01
 MRCHDU: Convergence failed at  40  side 2    Res =  0.5242E+01
 MRCHDU: Convergence failed at  41  side 2    Res =  0.4509E+01
 MRCHDU: Convergence failed at  42  side 2    Res =  0.4677E+01
 MRCHDU: Convergence failed at  43  side 2    Res =  0.1109E+02
 MRCHDU: Convergence failed at  44  side 2    Res =  0.2320E+02
 MRCHDU: Convergence failed at  45  side 2    Res =  0.3101E+02
 MRCHDU: Convergence failed at  46  side 2    Res =  0.3068E+02
 MRCHDU: Convergence failed at  47  side 2    Res =  0.2183E+02
 MRCHDU: Convergence failed at  48  side 2    Res =  0.1367E+02
 MRCHDU: Convergence failed at  49  side 2    Res =  0.1141E+02
 MRCHDU: Convergence failed at  50  side 2    Res =  0.2246E+02
 MRCHDU: Convergence failed at  51  side 2    Res =  0.4167E+02
 MRCHDU: Convergence failed at  52  side 2    Res =  0.6254E+02
 MRCHDU: Convergence failed at  53  side 2    Res =  0.1198E+03
 MRCHDU: Convergence failed at  54  side 2    Res =  0.2039E+03
 MRCHDU: Convergence failed at  55  side 2    Res =  0.1822E+03
 MRCHDU: Convergence failed at  56  side 2    Res =  0.1005E+03
 MRCHDU: Convergence failed at  57  side 2    Res =  0.1431E+03
 MRCHDU: Convergence failed at  58  side 2    Res =  0.1036E+03
 MRCHDU: Convergence failed at  59  side 2    Res =  0.1150E+03
 MRCHDU: Convergence failed at  60  side 2    Res =  0.9898E+02
 MRCHDU: Convergence failed at  61  side 2    Res =  0.8922E+02
 MRCHDU: Convergence failed at  62  side 2    Res =  0.1067E+03
 MRCHDU: Convergence failed at  63  side 2    Res =  0.8788E+02
 MRCHDU: Convergence failed at  64  side 2    Res =  0.6965E+02
 MRCHDU: Convergence failed at  65  side 2    Res =  0.5696E+02
 MRCHDU: Convergence failed at  66  side 2    Res =  0.4801E+02
 MRCHDU: Convergence failed at  67  side 2    Res =  0.4173E+02
 MRCHDU: Convergence failed at  68  side 2    Res =  0.3727E+02
 MRCHDU: Convergence failed at  69  side 2    Res =  0.3418E+02
 MRCHDU: Convergence failed at  70  side 2    Res =  0.3198E+02
 MRCHDU: Convergence failed at  71  side 2    Res =  0.3026E+02
 MRCHDU: Convergence failed at  72  side 2    Res =  0.2912E+02
 MRCHDU: Convergence failed at  73  side 2    Res =  0.2828E+02
 MRCHDU: Convergence failed at  74  side 2    Res =  0.2781E+02
 MRCHDU: Convergence failed at  75  side 2    Res =  0.2889E+02
 MRCHDU: Convergence failed at  76  side 2    Res =  0.2907E+02
 MRCHDU: Convergence failed at  77  side 2    Res =  0.2941E+02
 MRCHDU: Convergence failed at  78  side 2    Res =  0.2981E+02
 MRCHDU: Convergence failed at  79  side 2    Res =  0.3018E+02
 MRCHDU: Convergence failed at  80  side 2    Res =  0.3037E+02
 MRCHDU: Convergence failed at  81  side 2    Res =  0.3046E+02
 MRCHDU: Convergence failed at  82  side 2    Res =  0.3088E+02
 MRCHDU: Convergence failed at  83  side 2    Res =  0.3230E+02
 MRCHDU: Convergence failed at  84  side 2    Res =  0.3506E+02
 MRCHDU: Convergence failed at  85  side 2    Res =  0.3772E+02
 MRCHDU: Convergence failed at  86  side 2    Res =  0.4212E+02
 MRCHDU: Convergence failed at  87  side 2    Res =  0.5951E+02
 Side 1  free  transition at x/c =  0.8496   65
 Side 2  free  transition at x/c =  0.1616   37

  39   rms: 0.5979E+00   max: -.1659E+01   T at   37  2   RLX: 0.301
       a = -4.000      CL = -0.3381
      Cm =  0.0411     CD =  0.01822   =>   CDf =  0.00410    CDp =  0.01411

 Side 1  free  transition at x/c =  0.8709   67
 Side 2  free  transition at x/c =  0.1776   37

  40   rms: 0.3072E+00   max: -.1057E+01   D at   69  2   RLX: 0.473
       a = -4.000      CL = -0.0928
      Cm = -0.0663     CD =  0.02989   =>   CDf =  0.00539    CDp =  0.02449

 Side 1  free  transition at x/c =  0.8641   67
 Side 2  free  transition at x/c =  0.1769   37
 idif Ue xi dudx           1  9.01161805E-02  2.94518471E-03   30.597803    
 Uenew xinew           2  6.25188742E-03  2.04324722E-04

  41   rms: 0.3927E+00   max: -.1725E+01   D at   47  2   RLX: 0.290
       a = -4.000      CL = -0.0507
      Cm = -0.0869     CD =  0.02556   =>   CDf =  0.00547    CDp =  0.02010

 Side 1  free  transition at x/c =  0.8655   66
 Side 2  free  transition at x/c =  0.1790   39

  42   rms: 0.4061E+00   max: -.1943E+01   D at   49  2   RLX: 0.257
       a = -4.000      CL = -0.0321
      Cm = -0.0966     CD =  0.02287   =>   CDf =  0.00584    CDp =  0.01703

 Side 1  free  transition at x/c =  0.8665   66
 Side 2  free  transition at x/c =  0.1803   39

  43   rms: 0.4016E+00   max: -.1929E+01   D at   63  2   RLX: 0.259
       a = -4.000      CL = -0.0188
      Cm = -0.1036     CD =  0.02095   =>   CDf =  0.00631    CDp =  0.01464

 Side 1  free  transition at x/c =  0.8662   66
 Side 2  free  transition at x/c =  0.1802   39

  44   rms: 0.7297E+00   max: 0.3097E+01   T at   39  2   RLX: 0.185
       a = -4.000      CL = -0.1283
      Cm = -0.0863     CD =  0.02135   =>   CDf =  0.00690    CDp =  0.01445

 MRCHDU: Convergence failed at  39  side 2    Res =  0.3519E+01
 MRCHDU: Convergence failed at  40  side 2    Res =  0.1029E+02
 MRCHDU: Convergence failed at  41  side 2    Res =  0.9808E+01
 MRCHDU: Convergence failed at  42  side 2    Res =  0.3070E+01
 MRCHDU: Convergence failed at  43  side 2    Res =  0.1544E+01
 MRCHDU: Convergence failed at  45  side 2    Res =  0.2018E+01
 MRCHDU: Convergence failed at  46  side 2    Res =  0.2312E+01
 MRCHDU: Convergence failed at  47  side 2    Res =  0.2467E+01
 MRCHDU: Convergence failed at  48  side 2    Res =  0.2500E+01
 MRCHDU: Convergence failed at  49  side 2    Res =  0.2481E+01
 MRCHDU: Convergence failed at  50  side 2    Res =  0.2443E+01
 MRCHDU: Convergence failed at  51  side 2    Res =  0.2359E+01
 MRCHDU: Convergence failed at  52  side 2    Res =  0.2178E+01
 MRCHDU: Convergence failed at  53  side 2    Res =  0.2910E+01
 MRCHDU: Convergence failed at  56  side 2    Res =  0.4404E+01
 MRCHDU: Convergence failed at  57  side 2    Res =  0.1120E+01
 MRCHDU: Convergence failed at  58  side 2    Res =  0.1077E+01
 MRCHDU: Convergence failed at  59  side 2    Res =  0.1059E+01
 MRCHDU: Convergence failed at  60  side 2    Res =  0.1053E+01
 MRCHDU: Convergence failed at  61  side 2    Res =  0.1057E+01
 MRCHDU: Convergence failed at  62  side 2    Res =  0.1056E+01
 MRCHDU: Convergence failed at  63  side 2    Res =  0.1120E+01
 MRCHDU: Convergence failed at  64  side 2    Res =  0.1239E+01
 MRCHDU: Convergence failed at  65  side 2    Res =  0.1371E+01
 MRCHDU: Convergence failed at  66  side 2    Res =  0.1569E+01
 MRCHDU: Convergence failed at  67  side 2    Res =  0.1814E+01
 MRCHDU: Convergence failed at  68  side 2    Res =  0.2608E+01
 MRCHDU: Convergence failed at  69  side 2    Res =  0.2554E+03
 MRCHDU: Convergence failed at  72  side 2    Res =  0.1550E+01
 MRCHDU: Convergence failed at  73  side 2    Res =  0.3291E+01
 MRCHDU: Convergence failed at  74  side 2    Res =  0.2124E+01
 MRCHDU: Convergence failed at  75  side 2    Res =  0.1814E+01
 MRCHDU: Convergence failed at  76  side 2    Res =  0.1656E+01
 MRCHDU: Convergence failed at  77  side 2    Res =  0.1606E+01
 MRCHDU: Convergence failed at  78  side 2    Res =  0.1448E+01
 MRCHDU: Convergence failed at  79  side 2    Res =  0.1458E+01
 MRCHDU: Convergence failed at  80  side 2    Res =  0.1513E+01
 MRCHDU: Convergence failed at  81  side 2    Res =  0.1745E+01
 MRCHDU: Convergence failed at  82  side 2    Res =  0.2058E+01
 MRCHDU: Convergence failed at  83  side 2    Res =  0.2664E+01
 MRCHDU: Convergence failed at  84  side 2    Res =  0.3865E+01
 MRCHDU: Convergence failed at  85  side 2    Res =  0.8036E+01
 MRCHDU: Convergence failed at  86  side 2    Res =  0.9482E+02
 MRCHDU: Convergence failed at  87  side 2    Res =  0.7531E+01
 Side 1  free  transition at x/c =  0.8546   65
 Side 2  free  transition at x/c =  0.1649   38

  45   rms: 0.4215E+00   max: -.4463E+00   U at   87  2   RLX: 0.821
       a = -4.000      CL = -0.0764
      Cm = -0.0767     CD =  0.01431   =>   CDf =  0.00896    CDp =  0.00535

 Side 1  free  transition at x/c =  0.8809   68
 Side 2  free  transition at x/c =  0.1701   37

  46   rms: 0.1141E+00   max: -.8029E+00   D at    2  1   RLX: 0.623
       a = -4.000      CL =  0.0109
      Cm = -0.1036     CD =  0.01768   =>   CDf =  0.00853    CDp =  0.00914

 Side 1  free  transition at x/c =  0.8780   67
 Side 2  free  transition at x/c =  0.1753   37

  47   rms: 0.2927E+00   max: -.1671E+01   T at   67  1   RLX: 0.299
       a = -4.000      CL =  0.0989
      Cm = -0.1212     CD =  0.01700   =>   CDf =  0.00816    CDp =  0.00884

 MRCHDU: Convergence failed at  70  side 1    Res =  0.6118E+01
 MRCHDU: Convergence failed at  71  side 1    Res =  0.7499E+01
 MRCHDU: Convergence failed at  72  side 1    Res =  0.2178E+02
 MRCHDU: Convergence failed at  73  side 1    Res =  0.2457E+02
 MRCHDU: Convergence failed at  74  side 1    Res =  0.1855E+02
 MRCHDU: Convergence failed at  75  side 1    Res =  0.1046E+02
 MRCHDU: Convergence failed at  76  side 1    Res =  0.1508E+02
 Side 1  free  transition at x/c =  0.9098   69
 Side 2  free  transition at x/c =  0.1898   38

  48   rms: 0.4958E+00   max: 0.3506E+01   T at   69  1   RLX: 0.248
       a = -4.000      CL =  0.0267
      Cm = -0.1225     CD =  0.01160   =>   CDf =  0.00788    CDp =  0.00372

 Side 1  free  transition at x/c =  0.8702   67
 Side 2  free  transition at x/c =  0.1753   37
 idif Ue xi dudx           1  0.11947814      3.84688377E-03   31.058424    
 Uenew xinew           2  3.43513563E-02  1.10602379E-03

  49   rms: 0.1016E+00   max: -.5634E+00   D at   74  1   RLX: 0.888
       a = -4.000      CL = -0.0452
      Cm = -0.0984     CD =  0.02046   =>   CDf =  0.00804    CDp =  0.01242

 Side 1  free  transition at x/c =  0.8535   65
 Side 2  free  transition at x/c =  0.1633   38

  50   rms: 0.1394E+00   max: -.8487E+00   T at   38  2   RLX: 0.589
       a = -4.000      CL =  0.0104
      Cm = -0.1076     CD =  0.01969   =>   CDf =  0.00803    CDp =  0.01166

 Side 1  free  transition at x/c =  0.8708   67
 Side 2  free  transition at x/c =  0.1714   37

  51   rms: 0.5947E-01   max: -.4182E+00   T at    2  1
       a = -4.000      CL =  0.0275
      Cm = -0.1115     CD =  0.01955   =>   CDf =  0.00789    CDp =  0.01166

 Side 1  free  transition at x/c =  0.8669   67
 Side 2  free  transition at x/c =  0.1756   37

  52   rms: 0.8632E-02   max: 0.5695E-01   D at   38  2
       a = -4.000      CL =  0.0225
      Cm = -0.1106     CD =  0.01955   =>   CDf =  0.00786    CDp =  0.01169

 Side 1  free  transition at x/c =  0.8657   67
 Side 2  free  transition at x/c =  0.1741   37

  53   rms: 0.5021E-03   max: -.2913E-02   D at   38  2
       a = -4.000      CL =  0.0226
      Cm = -0.1106     CD =  0.01955   =>   CDf =  0.00785    CDp =  0.01170

 Side 1  free  transition at x/c =  0.8658   67
 Side 2  free  transition at x/c =  0.1742   37

  54   rms: 0.3460E-05   max: 0.2099E-04   D at   38  2
       a = -4.000      CL =  0.0226
      Cm = -0.1106     CD =  0.01955   =>   CDf =  0.00785    CDp =  0.01170
 plradd ia,ip,cpol            1           0  1.50421606E-02

 Point added to stored polar  1
 Point written to save file  goe619_Re150k.base.pol                          
 Dump file unspecified or not available
 Calculating wake trajectory ...
 Calculating source influence matrix ...

 Solving BL system ...

 Side 1  free  transition at x/c =  0.8658   67
 Side 2  free  transition at x/c =  0.1742   37

   1   rms: 0.9966E-01   max: -.6848E+00   T at   37  2   RLX: 0.730
       a = -3.500      CL =  0.0798
      Cm = -0.1133     CD =  0.01903   =>   CDf =  0.00785    CDp =  0.01118

 Side 1  free  transition at x/c =  0.8609   66
 Side 2  free  transition at x/c =  0.1923   38

   2   rms: 0.3430E+00   max: -.1872E+01   T at   38  2   RLX: 0.267
       a = -3.500      CL =  0.1527
      Cm = -0.1257     CD =  0.01790   =>   CDf =  0.00798    CDp =  0.00991

 MRCHDU: Convergence failed at  69  side 1    Res =  0.2472E+02
 MRCHDU: Convergence failed at  70  side 1    Res =  0.1377E+02
 MRCHDU: Convergence failed at  71  side 1    Res =  0.9918E+01
 MRCHDU: Convergence failed at  72  side 1    Res =  0.5934E+01
 MRCHDU: Convergence failed at  73  side 1    Res =  0.8428E+01
 MRCHDU: Convergence failed at  74  side 1    Res =  0.1058E+02
 MRCHDU: Convergence failed at  75  side 1    Res =  0.1067E+02
 MRCHDU: Convergence failed at  76  side 1    Res =  0.9134E+01
 MRCHDU: Convergence failed at  77  side 1    Res =  0.9968E+01
 MRCHDU: Convergence failed at  39  side 2    Res =  0.3393E+01
 MRCHDU: Convergence failed at  40  side 2    Res =  0.8772E+01
 MRCHDU: Convergence failed at  41  side 2    Res =  0.5214E+01
 MRCHDU: Convergence failed at  42  side 2    Res =  0.3779E+01
 MRCHDU: Convergence failed at  43  side 2    Res =  0.5305E+01
 MRCHDU: Convergence failed at  44  side 2    Res =  0.6742E+01
 MRCHDU: Convergence failed at  45  side 2    Res =  0.8264E+01
 MRCHDU: Convergence failed at  46  side 2    Res =  0.9129E+01
 MRCHDU: Convergence failed at  47  side 2    Res =  0.8946E+01
 MRCHDU: Convergence failed at  48  side 2    Res =  0.8509E+01
 MRCHDU: Convergence failed at  49  side 2    Res =  0.7816E+01
 MRCHDU: Convergence failed at  50  side 2    Res =  0.1418E+03
 MRCHDU: Convergence failed at  51  side 2    Res =  0.4447E+03
 MRCHDU: Convergence failed at  52  side 2    Res =  0.9051E+02
 MRCHDU: Convergence failed at  53  side 2    Res =  0.5723E+02
 MRCHDU: Convergence failed at  54  side 2    Res =  0.4461E+02
 MRCHDU: Convergence failed at  55  side 2    Res =  0.3898E+02
 MRCHDU: Convergence failed at  56  side 2    Res =  0.3671E+02
 MRCHDU: Convergence failed at  57  side 2    Res =  0.3581E+02
 MRCHDU: Convergence failed at  58  side 2    Res =  0.3566E+02
 MRCHDU: Convergence failed at  59  side 2    Res =  0.3573E+02
 MRCHDU: Convergence failed at  60  side 2    Res =  0.3559E+02
 MRCHDU: Convergence failed at  61  side 2    Res =  0.3461E+02
 MRCHDU: Convergence failed at  62  side 2    Res =  0.3283E+02
 MRCHDU: Convergence failed at  63  side 2    Res =  0.3077E+02
 MRCHDU: Convergence failed at  64  side 2    Res =  0.2873E+02
 MRCHDU: Convergence failed at  65  side 2    Res =  0.2734E+02
 MRCHDU: Convergence failed at  66  side 2    Res =  0.2569E+02
 MRCHDU: Convergence failed at  67  side 2    Res =  0.2429E+02
 MRCHDU: Convergence failed at  68  side 2    Res =  0.2454E+02
 MRCHDU: Convergence failed at  69  side 2    Res =  0.2340E+02
 MRCHDU: Convergence failed at  70  side 2    Res =  0.2244E+02
 MRCHDU: Convergence failed at  71  side 2    Res =  0.2163E+02
 MRCHDU: Convergence failed at  72  side 2    Res =  0.3461E+02
 MRCHDU: Convergence failed at  73  side 2    Res =  0.3297E+02
 MRCHDU: Convergence failed at  74  side 2    Res =  0.3154E+02
 MRCHDU: Convergence failed at  75  side 2    Res =  0.2986E+02
 MRCHDU: Convergence failed at  76  side 2    Res =  0.3085E+02
 MRCHDU: Convergence failed at  77  side 2    Res =  0.2787E+02
 MRCHDU: Convergence failed at  78  side 2    Res =  0.2467E+02
 MRCHDU: Convergence failed at  79  side 2    Res =  0.2141E+02
 MRCHDU: Convergence failed at  80  side 2    Res =  0.1854E+02
 MRCHDU: Convergence failed at  81  side 2    Res =  0.6057E+02
 MRCHDU: Convergence failed at  82  side 2    Res =  0.2385E+02
 MRCHDU: Convergence failed at  83  side 2    Res =  0.2544E+03
 MRCHDU: Convergence failed at  84  side 2    Res =  0.3421E+02
 MRCHDU: Convergence failed at  85  side 2    Res =  0.4661E+02
 Side 1  free  transition at x/c =  0.8899   69
 Side 2  free  transition at x/c =  0.2087   38

   3   rms: 0.1069E+01   max: 0.7362E+01   D at   87  2   RLX: 0.204
       a = -3.500      CL = -0.2224
      Cm =  0.0200     CD =  0.00627   =>   CDf =  0.00434    CDp =  0.00193

 MRCHDU: Convergence failed at  45  side 2    Res =  0.1594E+00
 MRCHDU: Convergence failed at  46  side 2    Res =  0.1153E+00
 Side 1  free  transition at x/c =  0.8843   69
 Side 2  free  transition at x/c =  0.1969   38

   4   rms: 0.3444E+00   max: -.1126E+01   T at   38  2   RLX: 0.444
       a = -3.500      CL =  0.1300
      Cm = -0.0974     CD =  0.02304   =>   CDf =  0.00524    CDp =  0.01780

 Side 1  free  transition at x/c =  0.8880   70
 Side 2  free  transition at x/c =  0.2050   37
 idif Ue xi dudx           1  0.12011499      2.50470638E-03   47.955715    
 Uenew xinew           2  1.20909614E-02  2.52127647E-04

   5   rms: 0.3727E+00   max: -.1625E+01   D at   46  2   RLX: 0.308
       a = -3.500      CL =  0.1679
      Cm = -0.1162     CD =  0.02510   =>   CDf =  0.00522    CDp =  0.01988

 MRCHDU: Convergence failed at  69  side 2    Res =  0.1727E+00
 MRCHDU: Convergence failed at  70  side 2    Res =  0.5225E+00
 MRCHDU: Convergence failed at  71  side 2    Res =  0.5626E-01
 MRCHDU: Convergence failed at  73  side 2    Res =  0.2707E+01
 MRCHDU: Convergence failed at  74  side 2    Res =  0.2292E+01
 MRCHDU: Convergence failed at  75  side 2    Res =  0.2196E+01
 MRCHDU: Convergence failed at  76  side 2    Res =  0.2067E+01
 MRCHDU: Convergence failed at  77  side 2    Res =  0.1938E+01
 MRCHDU: Convergence failed at  78  side 2    Res =  0.1890E+01
 MRCHDU: Convergence failed at  79  side 2    Res =  0.1889E+01
 MRCHDU: Convergence failed at  80  side 2    Res =  0.1232E+01
 Side 1  free  transition at x/c =  0.8795   69
 Side 2  free  transition at x/c =  0.2180   39

   6   rms: 0.4971E+00   max: -.1956E+01   D at   61  2   RLX: 0.256
       a = -3.500      CL =  0.1694
      Cm = -0.1265     CD =  0.01878   =>   CDf =  0.00677    CDp =  0.01202

 MRCHDU: Convergence failed at  71  side 2    Res =  0.1220E+00
 MRCHDU: Convergence failed at  72  side 2    Res =  0.9450E-01
 Side 1  free  transition at x/c =  0.8765   68
 Side 2  free  transition at x/c =  0.2219   39

   7   rms: 0.4358E+00   max: -.1909E+01   D at   67  2   RLX: 0.262
       a = -3.500      CL =  0.1435
      Cm = -0.1263     CD =  0.01790   =>   CDf =  0.00700    CDp =  0.01090

 MRCHDU: Convergence failed at  49  side 2    Res =  0.2951E+00
 Side 1  free  transition at x/c =  0.8633   68
 Side 2  free  transition at x/c =  0.2165   39
 idif Ue xi dudx           1  0.10523785      2.75313854E-03   38.224682    
 Uenew xinew           2  1.07493429E-02  2.81214714E-04

   8   rms: 0.2643E+00   max: -.1118E+01   D at   44  2   RLX: 0.447
       a = -3.500      CL =  0.0732
      Cm = -0.1108     CD =  0.01838   =>   CDf =  0.00771    CDp =  0.01067

 MRCHDU: Convergence failed at  69  side 2    Res =  0.3884E-01
 Side 1  free  transition at x/c =  0.8597   66
 Side 2  free  transition at x/c =  0.2034   39

   9   rms: 0.8096E+00   max: 0.5036E+01   T at   66  1   RLX: 0.181
       a = -3.500      CL = -0.0435
      Cm = -0.0913     CD =  0.02204   =>   CDf =  0.00773    CDp =  0.01432

 Side 1  free  transition at x/c =  0.8273   64
 Side 2  free  transition at x/c =  0.1796   38
 idif Ue xi dudx           1  0.13138278      4.03237343E-03   32.581997    
 Uenew xinew           2  4.20800857E-02  1.29151344E-03

  10   rms: 0.2295E+00   max: -.1163E+01   D at   85  2   RLX: 0.430
       a = -3.500      CL = -0.1157
      Cm = -0.0741     CD =  0.02313   =>   CDf =  0.00762    CDp =  0.01551

 MRCHDU: Convergence failed at  83  side 2    Res =  0.4690E+00
 Side 1  free  transition at x/c =  0.8236   63
 Side 2  free  transition at x/c =  0.1699   38

  11   rms: 0.3358E+00   max: -.1795E+01   T at   63  1   RLX: 0.279
       a = -3.500      CL = -0.0329
      Cm = -0.0855     CD =  0.02202   =>   CDf =  0.00792    CDp =  0.01410

 Side 1  free  transition at x/c =  0.8469   66
 Side 2  free  transition at x/c =  0.1818   38

  12   rms: 0.9966E-01   max: -.4731E+00   D at   72  2
       a = -3.500      CL =  0.0484
      Cm = -0.1045     CD =  0.01919   =>   CDf =  0.00796    CDp =  0.01123

 Side 1  free  transition at x/c =  0.8494   66
 Side 2  free  transition at x/c =  0.1874   38

  13   rms: 0.3298E-01   max: -.1900E+00   T at   38  2
       a = -3.500      CL =  0.0807
      Cm = -0.1107     CD =  0.01915   =>   CDf =  0.00790    CDp =  0.01124

 Side 1  free  transition at x/c =  0.8527   66
 Side 2  free  transition at x/c =  0.1935   38

  14   rms: 0.7739E-02   max: -.6440E-01   D at   39  2
       a = -3.500      CL =  0.0832
      Cm = -0.1111     CD =  0.01915   =>   CDf =  0.00796    CDp =  0.01119

 Side 1  free  transition at x/c =  0.8534   66
 Side 2  free  transition at x/c =  0.1944   38

  15   rms: 0.1501E-03   max: 0.1701E-02   D at   39  2
       a = -3.500      CL =  0.0833
      Cm = -0.1111     CD =  0.01915   =>   CDf =  0.00797    CDp =  0.01118

 Side 1  free  transition at x/c =  0.8534   66
 Side 2  free  transition at x/c =  0.1944   38

  16   rms: 0.2938E-05   max: 0.2777E-04   D at    4  2
       a = -3.500      CL =  0.0833
      Cm = -0.1111     CD =  0.01915   =>   CDf =  0.00797    CDp =  0.01118
 plradd ia,ip,cpol            2           0  1.50421606E-02

 Point added to stored polar  1
 Point written to save file  goe619_Re150k.base.pol                          
 Dump file unspecified or not available
 Calculating wake trajectory ...
 Calculating source influence matrix ...

 Solving BL system ...

 Side 1  free  transition at x/c =  0.8534   66
 Side 2  free  transition at x/c =  0.1944   38

   1   rms: 0.9797E-01   max: -.8730E+00   T at   38  2   RLX: 0.573
       a = -3.000      CL =  0.1183
      Cm = -0.1113     CD =  0.01913   =>   CDf =  0.00797    CDp =  0.01115

 MRCHDU: Convergence failed at  39  side 2    Res =  0.2685E+01
 MRCHDU: Convergence failed at  40  side 2    Res =  0.5581E+01
 MRCHDU: Convergence failed at  41  side 2    Res =  0.1723E+02
 MRCHDU: Convergence failed at  42  side 2    Res =  0.5320E+02
 MRCHDU: Convergence failed at  43  side 2    Res =  0.1236E+03
 MRCHDU: Convergence failed at  44  side 2    Res =  0.1341E+03
 MRCHDU: Convergence failed at  45  side 2    Res =  0.1019E+03
 MRCHDU: Convergence failed at  46  side 2    Res =  0.8410E+02
 MRCHDU: Convergence failed at  47  side 2    Res =  0.6073E+02
 MRCHDU: Convergence failed at  48  side 2    Res =  0.4686E+02
 MRCHDU: Convergence failed at  49  side 2    Res =  0.3718E+02
 MRCHDU: Convergence failed at  50  side 2    Res =  0.3081E+02
 MRCHDU: Convergence failed at  51  side 2    Res =  0.2642E+02
 MRCHDU: Convergence failed at  52  side 2    Res =  0.2349E+02
 MRCHDU: Convergence failed at  53  side 2    Res =  0.2148E+02
 MRCHDU: Convergence failed at  54  side 2    Res =  0.2019E+02
 MRCHDU: Convergence failed at  55  side 2    Res =  0.1940E+02
 MRCHDU: Convergence failed at  56  side 2    Res =  0.1930E+02
 MRCHDU: Convergence failed at  57  side 2    Res =  0.1943E+02
 MRCHDU: Convergence failed at  58  side 2    Res =  0.1971E+02
 MRCHDU: Convergence failed at  59  side 2    Res =  0.1998E+02
 MRCHDU: Convergence failed at  60  side 2    Res =  0.2030E+02
 MRCHDU: Convergence failed at  61  side 2    Res =  0.2000E+02
 MRCHDU: Convergence failed at  62  side 2    Res =  0.1955E+02
 MRCHDU: Convergence failed at  63  side 2    Res =  0.1894E+02
 MRCHDU: Convergence failed at  64  side 2    Res =  0.1829E+02
 MRCHDU: Convergence failed at  65  side 2    Res =  0.1765E+02
 MRCHDU: Convergence failed at  66  side 2    Res =  0.1701E+02
 MRCHDU: Convergence failed at  67  side 2    Res =  0.1651E+02
 MRCHDU: Convergence failed at  68  side 2    Res =  0.1608E+02
 MRCHDU: Convergence failed at  69  side 2    Res =  0.1571E+02
 MRCHDU: Convergence failed at  70  side 2    Res =  0.1535E+02
 MRCHDU: Convergence failed at  71  side 2    Res =  0.1509E+02
 MRCHDU: Convergence failed at  72  side 2    Res =  0.1487E+02
 MRCHDU: Convergence failed at  73  side 2    Res =  0.1471E+02
 MRCHDU: Convergence failed at  74  side 2    Res =  0.1457E+02
 MRCHDU: Convergence failed at  75  side 2    Res =  0.1443E+02
 MRCHDU: Convergence failed at  76  side 2    Res =  0.1424E+02
 MRCHDU: Convergence failed at  77  side 2    Res =  0.1401E+02
 MRCHDU: Convergence failed at  78  side 2    Res =  0.1371E+02
 MRCHDU: Convergence failed at  79  side 2    Res =  0.1174E+02
 MRCHDU: Convergence failed at  80  side 2    Res =  0.1222E+02
 MRCHDU: Convergence failed at  81  side 2    Res =  0.1275E+02
 MRCHDU: Convergence failed at  82  side 2    Res =  0.2185E+02
 MRCHDU: Convergence failed at  83  side 2    Res =  0.2265E+02
 MRCHDU: Convergence failed at  84  side 2    Res =  0.2117E+02
 MRCHDU: Convergence failed at  85  side 2    Res =  0.2835E+02
 Side 1  free  transition at x/c =  0.8458   67
 Side 2  free  transition at x/c =  0.2115   39

   2   rms: 0.5129E+00   max: 0.6384E+00   D at   89  2
       a = -3.000      CL =  0.2686
      Cm = -0.1275     CD =  0.01525   =>   CDf =  0.00438    CDp =  0.01087

 Side 1  free  transition at x/c =  0.8551   68
 Side 2  free  transition at x/c =  0.2244   38

   3   rms: 0.1748E+00   max: -.9020E+00   D at   42  2   RLX: 0.554
       a = -3.000      CL =  0.1946
      Cm = -0.1178     CD =  0.01947   =>   CDf =  0.00784    CDp =  0.01162

 Side 1  free  transition at x/c =  0.8435   67
 Side 2  free  transition at x/c =  0.2239   38

   4   rms: 0.6750E-01   max: -.6117E+00   D at   42  2   RLX: 0.817
       a = -3.000      CL =  0.1711
      Cm = -0.1156     CD =  0.01818   =>   CDf =  0.00783    CDp =  0.01035

 Side 1  free  transition at x/c =  0.8493   68
 Side 2  free  transition at x/c =  0.2243   38
 idif Ue xi dudx           1  0.11546536      2.44367123E-03   47.250774    
 Uenew xinew           2  9.02926829E-03  1.91092491E-04

   5   rms: 0.2699E-01   max: -.2474E+00   D at   42  2
       a = -3.000      CL =  0.1572
      Cm = -0.1140     CD =  0.01827   =>   CDf =  0.00787    CDp =  0.01040

 Side 1  free  transition at x/c =  0.8450   67
 Side 2  free  transition at x/c =  0.2190   39

   6   rms: 0.4490E-02   max: -.4364E-01   D at   43  2
       a = -3.000      CL =  0.1567
      Cm = -0.1138     CD =  0.01831   =>   CDf =  0.00787    CDp =  0.01044

 Side 1  free  transition at x/c =  0.8450   67
 Side 2  free  transition at x/c =  0.2192   39

   7   rms: 0.1732E-02   max: -.2277E-01   D at    4  2
       a = -3.000      CL =  0.1567
      Cm = -0.1138     CD =  0.01831   =>   CDf =  0.00787    CDp =  0.01044

 Side 1  free  transition at x/c =  0.8450   67
 Side 2  free  transition at x/c =  0.2192   39

   8   rms: 0.4565E-05   max: -.5641E-04   D at    7  2
       a = -3.000      CL =  0.1567
      Cm = -0.1138     CD =  0.01831   =>   CDf =  0.00787    CDp =  0.01044
 plradd ia,ip,cpol            3           0  1.50421606E-02

 Point added to stored polar  1
 Point written to save file  goe619_Re150k.base.pol                          
 Dump file unspecified or not available
 Calculating wake trajectory ...
 Calculating source influence matrix ...

 Solving BL system ...

 Side 1  free  transition at x/c =  0.8450   67
 Side 2  free  transition at x/c =  0.2192   39

   1   rms: 0.1066E+00   max: -.7377E+00   T at   39  2   RLX: 0.678
       a = -2.500      CL =  0.2106
      Cm = -0.1163     CD =  0.01772   =>   CDf =  0.00787    CDp =  0.00985

 Side 1  free  transition at x/c =  0.8410   67
 Side 2  free  transition at x/c =  0.2392   39

   2   rms: 0.1120E+00   max: 0.7114E+00   T at   67  1
       a = -2.500      CL =  0.1296
      Cm = -0.0986     CD =  0.01967   =>   CDf =  0.00786    CDp =  0.01181

 Side 1  free  transition at x/c =  0.8115   66
 Side 2  free  transition at x/c =  0.2279   39

   3   rms: 0.1065E+00   max: -.6272E+00   T at   39  2   RLX: 0.797
       a = -2.500      CL =  0.1841
      Cm = -0.1078     CD =  0.01835   =>   CDf =  0.00796    CDp =  0.01039

 Side 1  free  transition at x/c =  0.8257   66
 Side 2  free  transition at x/c =  0.2391   39

   4   rms: 0.8088E+00   max: -.5201E+01   T at   66  1   RLX: 0.096
       a = -2.500      CL =  0.2316
      Cm = -0.1143     CD =  0.01923   =>   CDf =  0.00799    CDp =  0.01123

 MRCHDU: Convergence failed at  68  side 1    Res =  0.3537E+01
 MRCHDU: Convergence failed at  69  side 1    Res =  0.5601E+01
 MRCHDU: Convergence failed at  70  side 1    Res =  0.4358E+02
 MRCHDU: Convergence failed at  71  side 1    Res =  0.8590E+01
 MRCHDU: Convergence failed at  72  side 1    Res =  0.7043E+01
 MRCHDU: Convergence failed at  73  side 1    Res =  0.1021E+02
 MRCHDU: Convergence failed at  74  side 1    Res =  0.1238E+02
 MRCHDU: Convergence failed at  75  side 1    Res =  0.1319E+02
 MRCHDU: Convergence failed at  76  side 1    Res =  0.1314E+02
 MRCHDU: Convergence failed at  77  side 1    Res =  0.1235E+02
 MRCHDU: Convergence failed at  78  side 1    Res =  0.1024E+02
 MRCHDU: Convergence failed at  41  side 2    Res =  0.2445E+02
 MRCHDU: Convergence failed at  42  side 2    Res =  0.3391E+01
 MRCHDU: Convergence failed at  43  side 2    Res =  0.4322E+02
 MRCHDU: Convergence failed at  44  side 2    Res =  0.6928E+01
 MRCHDU: Convergence failed at  45  side 2    Res =  0.5585E+01
 MRCHDU: Convergence failed at  46  side 2    Res =  0.5632E+01
 MRCHDU: Convergence failed at  47  side 2    Res =  0.6227E+01
 MRCHDU: Convergence failed at  48  side 2    Res =  0.7165E+01
 MRCHDU: Convergence failed at  49  side 2    Res =  0.8305E+01
 MRCHDU: Convergence failed at  50  side 2    Res =  0.9979E+01
 MRCHDU: Convergence failed at  51  side 2    Res =  0.1205E+02
 MRCHDU: Convergence failed at  52  side 2    Res =  0.1447E+02
 MRCHDU: Convergence failed at  53  side 2    Res =  0.1715E+02
 MRCHDU: Convergence failed at  54  side 2    Res =  0.1963E+02
 MRCHDU: Convergence failed at  55  side 2    Res =  0.2120E+02
 MRCHDU: Convergence failed at  56  side 2    Res =  0.2203E+02
 MRCHDU: Convergence failed at  57  side 2    Res =  0.2224E+02
 MRCHDU: Convergence failed at  58  side 2    Res =  0.2223E+02
 MRCHDU: Convergence failed at  59  side 2    Res =  0.2231E+02
 MRCHDU: Convergence failed at  60  side 2    Res =  0.2313E+02
 MRCHDU: Convergence failed at  61  side 2    Res =  0.2427E+02
 MRCHDU: Convergence failed at  62  side 2    Res =  0.2716E+02
 MRCHDU: Convergence failed at  63  side 2    Res =  0.3137E+02
 MRCHDU: Convergence failed at  64  side 2    Res =  0.3870E+02
 MRCHDU: Convergence failed at  65  side 2    Res =  0.4808E+02
 MRCHDU: Convergence failed at  66  side 2    Res =  0.6418E+02
 MRCHDU: Convergence failed at  67  side 2    Res =  0.9145E+02
 MRCHDU: Convergence failed at  68  side 2    Res =  0.1607E+03
 MRCHDU: Convergence failed at  69  side 2    Res =  0.3911E+03
 MRCHDU: Convergence failed at  70  side 2    Res =  0.9372E+03
 MRCHDU: Convergence failed at  71  side 2    Res =  0.2563E+03
 MRCHDU: Convergence failed at  72  side 2    Res =  0.1587E+03
 MRCHDU: Convergence failed at  73  side 2    Res =  0.1182E+03
 MRCHDU: Convergence failed at  74  side 2    Res =  0.9434E+02
 MRCHDU: Convergence failed at  75  side 2    Res =  0.7701E+02
 MRCHDU: Convergence failed at  76  side 2    Res =  0.6344E+02
 MRCHDU: Convergence failed at  77  side 2    Res =  0.5208E+02
 MRCHDU: Convergence failed at  78  side 2    Res =  0.4332E+02
 MRCHDU: Convergence failed at  79  side 2    Res =  0.3403E+02
 MRCHDU: Convergence failed at  80  side 2    Res =  0.2723E+02
 MRCHDU: Convergence failed at  81  side 2    Res =  0.2208E+02
 MRCHDU: Convergence failed at  82  side 2    Res =  0.1813E+02
 MRCHDU: Convergence failed at  83  side 2    Res =  0.1532E+02
 MRCHDU: Convergence failed at  84  side 2    Res =  0.1438E+02
 Side 1  free  transition at x/c =  0.8505   68
 Side 2  free  transition at x/c =  0.2612   40

   5   rms: 0.9018E+00   max: 0.5671E+01   D at   86  2   RLX: 0.176
       a = -2.500      CL = -0.0035
      Cm = -0.0289     CD =  0.00622   =>   CDf =  0.00444    CDp =  0.00178

 Side 1  free  transition at x/c =  0.8439   67
 Side 2  free  transition at x/c =  0.2375   39

   6   rms: 0.3277E+00   max: -.1947E+01   T at   39  2   RLX: 0.257
       a = -2.500      CL =  0.1913
      Cm = -0.0929     CD =  0.02129   =>   CDf =  0.00606    CDp =  0.01523

 Side 1  free  transition at x/c =  0.8472   69
 Side 2  free  transition at x/c =  0.2603   39

   7   rms: 0.3980E+00   max: -.2753E+01   T at   39  2   RLX: 0.182
       a = -2.500      CL =  0.2322
      Cm = -0.1081     CD =  0.01980   =>   CDf =  0.00609    CDp =  0.01371

 MRCHDU: Convergence failed at  64  side 2    Res =  0.5418E-01
 Side 1  free  transition at x/c =  0.8475   69
 Side 2  free  transition at x/c =  0.2869   41

   8   rms: 0.3766E+00   max: -.1692E+01   D at   48  2   RLX: 0.296
       a = -2.500      CL =  0.2750
      Cm = -0.1246     CD =  0.01631   =>   CDf =  0.00636    CDp =  0.00995

 MRCHDU: Convergence failed at  64  side 2    Res =  0.6777E-01
 Side 1  free  transition at x/c =  0.8477   69
 Side 2  free  transition at x/c =  0.3057   42

   9   rms: 0.3710E+00   max: -.2190E+01   D at   58  2   RLX: 0.228
       a = -2.500      CL =  0.2744
      Cm = -0.1258     CD =  0.01566   =>   CDf =  0.00662    CDp =  0.00903

 MRCHDU: Convergence failed at  64  side 2    Res =  0.1399E-01
 Side 1  free  transition at x/c =  0.8467   69
 Side 2  free  transition at x/c =  0.3057   42

  10   rms: 0.3285E+00   max: -.1427E+01   D at   71  2   RLX: 0.350
       a = -2.500      CL =  0.2602
      Cm = -0.1258     CD =  0.01512   =>   CDf =  0.00691    CDp =  0.00821

 Side 1  free  transition at x/c =  0.8438   68
 Side 2  free  transition at x/c =  0.2912   41
 idif Ue xi dudx           1  0.18049051      3.49855423E-03   51.590027    
 Uenew xinew           2  7.33942240E-02  1.42264366E-03

  11   rms: 0.9781E+00   max: 0.7616E+01   T at   41  2   RLX: 0.125
       a = -2.500      CL =  0.1520
      Cm = -0.1040     CD =  0.01695   =>   CDf =  0.00800    CDp =  0.00894

 MRCHDU: Convergence failed at  42  side 2    Res =  0.3665E+01
 MRCHDU: Convergence failed at  43  side 2    Res =  0.3167E+01
 Side 1  free  transition at x/c =  0.8261   66
 Side 2  free  transition at x/c =  0.2494   40

  12   rms: 0.7500E+00   max: -.4653E+01   T at   66  1   RLX: 0.107
       a = -2.500      CL =  0.1956
      Cm = -0.1090     CD =  0.01820   =>   CDf =  0.00763    CDp =  0.01057

 MRCHDU: Convergence failed at  69  side 1    Res =  0.1402E+01
 MRCHDU: Convergence failed at  70  side 1    Res =  0.2725E+01
 MRCHDU: Convergence failed at  71  side 1    Res =  0.3088E+01
 MRCHDU: Convergence failed at  72  side 1    Res =  0.6419E+01
 MRCHDU: Convergence failed at  73  side 1    Res =  0.1186E+02
 MRCHDU: Convergence failed at  74  side 1    Res =  0.3592E+01
 MRCHDU: Convergence failed at  75  side 1    Res =  0.4496E+01
 MRCHDU: Convergence failed at  76  side 1    Res =  0.6279E+01
 MRCHDU: Convergence failed at  77  side 1    Res =  0.1054E+02
 MRCHDU: Convergence failed at  78  side 1    Res =  0.7696E+01
 Side 1  free  transition at x/c =  0.8544   68
 Side 2  free  transition at x/c =  0.2616   40

  13   rms: 0.5334E+00   max: 0.3584E+01   T at   40  2   RLX: 0.142
       a = -2.500      CL =  0.2304
      Cm = -0.1375     CD =  0.01153   =>   CDf =  0.00821    CDp =  0.00332

 Side 1  free  transition at x/c =  0.8488   68
 Side 2  free  transition at x/c =  0.2480   40

  14   rms: 0.2504E+00   max: -.9935E+00   D at   83  2   RLX: 0.503
       a = -2.500      CL =  0.1942
      Cm = -0.1177     CD =  0.01359   =>   CDf =  0.00846    CDp =  0.00512

 Side 1  free  transition at x/c =  0.8470   68
 Side 2  free  transition at x/c =  0.2454   40

  15   rms: 0.1650E+00   max: -.8639E+00   D at   83  2   RLX: 0.579
       a = -2.500      CL =  0.1660
      Cm = -0.1061     CD =  0.01520   =>   CDf =  0.00824    CDp =  0.00696

 Side 1  free  transition at x/c =  0.8410   67
 Side 2  free  transition at x/c =  0.2445   39

  16   rms: 0.1706E+00   max: 0.9561E+00   T at   39  2   RLX: 0.635
       a = -2.500      CL =  0.1091
      Cm = -0.0943     CD =  0.01736   =>   CDf =  0.00795    CDp =  0.00941

 Side 1  free  transition at x/c =  0.8226   66
 Side 2  free  transition at x/c =  0.2210   38

  17   rms: 0.1407E+00   max: 0.1184E+01   D at    3  1   RLX: 0.625
       a = -2.500      CL =  0.1838
      Cm = -0.1068     CD =  0.01814   =>   CDf =  0.00806    CDp =  0.01008

 Side 1  free  transition at x/c =  0.8348   67
 Side 2  free  transition at x/c =  0.2434   39

  18   rms: 0.4140E-01   max: -.2517E+00   D at    4  1
       a = -2.500      CL =  0.2108
      Cm = -0.1129     CD =  0.01781   =>   CDf =  0.00799    CDp =  0.00982

 Side 1  free  transition at x/c =  0.8304   67
 Side 2  free  transition at x/c =  0.2553   40

  19   rms: 0.2866E-01   max: 0.3266E+00   D at   40  2
       a = -2.500      CL =  0.2103
      Cm = -0.1129     CD =  0.01771   =>   CDf =  0.00770    CDp =  0.01001

 Side 1  free  transition at x/c =  0.8302   67
 Side 2  free  transition at x/c =  0.2512   40

  20   rms: 0.5460E-02   max: 0.5165E-01   T at   40  2
       a = -2.500      CL =  0.2101
      Cm = -0.1129     CD =  0.01780   =>   CDf =  0.00780    CDp =  0.01000

 Side 1  free  transition at x/c =  0.8302   67
 Side 2  free  transition at x/c =  0.2494   40

  21   rms: 0.4757E-03   max: -.5004E-02   D at   40  2
       a = -2.500      CL =  0.2101
      Cm = -0.1129     CD =  0.01780   =>   CDf =  0.00784    CDp =  0.00997

 Side 1  free  transition at x/c =  0.8302   67
 Side 2  free  transition at x/c =  0.2494   40

  22   rms: 0.2793E-05   max: -.1326E-04   D at   53  2
       a = -2.500      CL =  0.2101
      Cm = -0.1129     CD =  0.01780   =>   CDf =  0.00784    CDp =  0.00997
 plradd ia,ip,cpol            4           0  1.50421606E-02

 Point added to stored polar  1
 Point written to save file  goe619_Re150k.base.pol                          
 Dump file unspecified or not available
 Calculating wake trajectory ...
 Calculating source influence matrix ...

 Solving BL system ...

 Side 1  free  transition at x/c =  0.8302   67
 Side 2  free  transition at x/c =  0.2494   40

   1   rms: 0.1214E+00   max: -.1094E+01   T at   40  2   RLX: 0.457
       a = -2.000      CL =  0.2436
      Cm = -0.1140     CD =  0.01741   =>   CDf =  0.00783    CDp =  0.00958

 Side 1  free  transition at x/c =  0.8267   67
 Side 2  free  transition at x/c =  0.2663   40
 idif Ue xi dudx           1  0.12708133      2.34472752E-03   54.198765    
 Uenew xinew           2  1.45695461E-02  2.68816948E-04

   2   rms: 0.1271E+00   max: 0.8545E+00   T at   67  1   RLX: 0.922
       a = -2.000      CL =  0.1823
      Cm = -0.0985     CD =  0.01940   =>   CDf =  0.00809    CDp =  0.01131

 Side 1  free  transition at x/c =  0.7960   65
 Side 2  free  transition at x/c =  0.2674   41

   3   rms: 0.1962E+00   max: -.1230E+01   T at    2  2   RLX: 0.407
       a = -2.000      CL =  0.2318
      Cm = -0.1057     CD =  0.02018   =>   CDf =  0.00769    CDp =  0.01249

 Side 1  free  transition at x/c =  0.8071   66
 Side 2  free  transition at x/c =  0.2810   41
 idif Ue xi dudx           1  0.15784536      3.03351879E-03   52.033752    
 Uenew xinew           2  4.98279482E-02  9.57608223E-04

   4   rms: 0.2333E+00   max: 0.1716E+01   T at   41  2   RLX: 0.479
       a = -2.000      CL =  0.1443
      Cm = -0.0905     CD =  0.02239   =>   CDf =  0.00793    CDp =  0.01446

 MRCHDU: Convergence failed at  42  side 2    Res =  0.1870E+02
 MRCHDU: Convergence failed at  43  side 2    Res =  0.4633E+01
 MRCHDU: Convergence failed at  44  side 2    Res =  0.3165E+01
 MRCHDU: Convergence failed at  45  side 2    Res =  0.2279E+01
 MRCHDU: Convergence failed at  46  side 2    Res =  0.3159E+01
 MRCHDU: Convergence failed at  47  side 2    Res =  0.3522E+01
 MRCHDU: Convergence failed at  48  side 2    Res =  0.3884E+01
 MRCHDU: Convergence failed at  49  side 2    Res =  0.4388E+01
 MRCHDU: Convergence failed at  50  side 2    Res =  0.4932E+01
 MRCHDU: Convergence failed at  51  side 2    Res =  0.5591E+01
 MRCHDU: Convergence failed at  52  side 2    Res =  0.6225E+01
 MRCHDU: Convergence failed at  53  side 2    Res =  0.6835E+01
 MRCHDU: Convergence failed at  54  side 2    Res =  0.7288E+01
 MRCHDU: Convergence failed at  55  side 2    Res =  0.7609E+01
 MRCHDU: Convergence failed at  56  side 2    Res =  0.7665E+01
 MRCHDU: Convergence failed at  57  side 2    Res =  0.7628E+01
 MRCHDU: Convergence failed at  58  side 2    Res =  0.7548E+01
 MRCHDU: Convergence failed at  59  side 2    Res =  0.7501E+01
 MRCHDU: Convergence failed at  60  side 2    Res =  0.7585E+01
 MRCHDU: Convergence failed at  61  side 2    Res =  0.7843E+01
 MRCHDU: Convergence failed at  62  side 2    Res =  0.8235E+01
 MRCHDU: Convergence failed at  63  side 2    Res =  0.8722E+01
 MRCHDU: Convergence failed at  64  side 2    Res =  0.9300E+01
 MRCHDU: Convergence failed at  65  side 2    Res =  0.9934E+01
 MRCHDU: Convergence failed at  66  side 2    Res =  0.1100E+02
 MRCHDU: Convergence failed at  67  side 2    Res =  0.1171E+02
 MRCHDU: Convergence failed at  68  side 2    Res =  0.1243E+02
 MRCHDU: Convergence failed at  69  side 2    Res =  0.1312E+02
 MRCHDU: Convergence failed at  70  side 2    Res =  0.1407E+02
 MRCHDU: Convergence failed at  71  side 2    Res =  0.1505E+02
 MRCHDU: Convergence failed at  72  side 2    Res =  0.1546E+02
 MRCHDU: Convergence failed at  73  side 2    Res =  0.1574E+02
 MRCHDU: Convergence failed at  74  side 2    Res =  0.1598E+02
 MRCHDU: Convergence failed at  75  side 2    Res =  0.1622E+02
 MRCHDU: Convergence failed at  76  side 2    Res =  0.1661E+02
 MRCHDU: Convergence failed at  77  side 2    Res =  0.1722E+02
 MRCHDU: Convergence failed at  78  side 2    Res =  0.1825E+02
 MRCHDU: Convergence failed at  79  side 2    Res =  0.1996E+02
 MRCHDU: Convergence failed at  80  side 2    Res =  0.2445E+02
 MRCHDU: Convergence failed at  81  side 2    Res =  0.2940E+02
 MRCHDU: Convergence failed at  82  side 2    Res =  0.4000E+02
 MRCHDU: Convergence failed at  83  side 2    Res =  0.6277E+02
 MRCHDU: Convergence failed at  84  side 2    Res =  0.2248E+02
 Side 1  free  transition at x/c =  0.7864   64
 Side 2  free  transition at x/c =  0.2620   40

   5   rms: 0.1688E+01   max: -.1492E+02   T at   40  2   RLX: 0.034
       a = -2.000      CL = -0.0414
      Cm =  0.0005     CD =  0.02040   =>   CDf =  0.00432    CDp =  0.01608

 Side 1  free  transition at x/c =  0.7942   65
 Side 2  free  transition at x/c =  0.2955   42

   6   rms: 0.2361E+00   max: -.9650E+00   D at   66  2   RLX: 0.518
       a = -2.000      CL =  0.1400
      Cm = -0.0766     CD =  0.02204   =>   CDf =  0.00727    CDp =  0.01477

 Side 1  free  transition at x/c =  0.8002   66
 Side 2  free  transition at x/c =  0.2935   41
 idif Ue xi dudx           1  0.13265121      2.59208679E-03   51.175449    
 Uenew xinew           2  2.64155511E-02  5.16176224E-04

   7   rms: 0.2994E+00   max: -.1763E+01   D at   80  2   RLX: 0.284
       a = -2.000      CL =  0.1192
      Cm = -0.0774     CD =  0.02044   =>   CDf =  0.00750    CDp =  0.01294

 Side 1  free  transition at x/c =  0.7996   65
 Side 2  free  transition at x/c =  0.2737   41

   8   rms: 0.2220E+00   max: 0.1475E+01   T at   41  2   RLX: 0.419
       a = -2.000      CL =  0.0733
      Cm = -0.0709     CD =  0.01959   =>   CDf =  0.00782    CDp =  0.01176

 MRCHDU: Convergence failed at  83  side 2    Res =  0.4417E+00
 MRCHDU: Convergence failed at  84  side 2    Res =  0.1560E+00
 Side 1  free  transition at x/c =  0.7988   65
 Side 2  free  transition at x/c =  0.2455   40

   9   rms: 0.1727E+00   max: -.3266E+00   U at   84  2   RLX: 0.607
       a = -2.000      CL =  0.1612
      Cm = -0.0892     CD =  0.01568   =>   CDf =  0.00813    CDp =  0.00755

 Side 1  free  transition at x/c =  0.8065   65
 Side 2  free  transition at x/c =  0.2623   40

  10   rms: 0.2400E+00   max: -.2475E+01   T at   40  2   RLX: 0.202
       a = -2.000      CL =  0.1966
      Cm = -0.0956     CD =  0.01760   =>   CDf =  0.00819    CDp =  0.00941

 MRCHDU: Convergence failed at  41  side 2    Res =  0.1184E+02
 MRCHDU: Convergence failed at  42  side 2    Res =  0.3667E+01
 MRCHDU: Convergence failed at  43  side 2    Res =  0.7074E+02
 MRCHDU: Convergence failed at  44  side 2    Res =  0.8150E+01
 MRCHDU: Convergence failed at  45  side 2    Res =  0.5849E+01
 MRCHDU: Convergence failed at  46  side 2    Res =  0.5434E+01
 MRCHDU: Convergence failed at  47  side 2    Res =  0.5681E+01
 MRCHDU: Convergence failed at  48  side 2    Res =  0.6281E+01
 MRCHDU: Convergence failed at  49  side 2    Res =  0.7050E+01
 MRCHDU: Convergence failed at  50  side 2    Res =  0.8116E+01
 MRCHDU: Convergence failed at  51  side 2    Res =  0.9306E+01
 MRCHDU: Convergence failed at  52  side 2    Res =  0.1053E+02
 MRCHDU: Convergence failed at  53  side 2    Res =  0.1155E+02
 MRCHDU: Convergence failed at  54  side 2    Res =  0.1208E+02
 MRCHDU: Convergence failed at  55  side 2    Res =  0.1225E+02
[...]
 Calculating source influence matrix ...

 Solving BL system ...

 Side 1  free  transition at x/c =  0.2013   48
 Side 2 forced transition at x/c =  1.0000   65

   1   rms: 0.3362E-01   max: -.1563E+00   D at   49  1   RLX: 0.718
       a = 13.000      CL =  1.4500
      Cm = -0.0356     CD =  0.03587   =>   CDf =  0.00729    CDp =  0.02859

 Side 1  free  transition at x/c =  0.1966   48
 Side 2 forced transition at x/c =  1.0000   64

   2   rms: 0.1103E-01   max: -.8559E-01   C at   48  1
       a = 13.000      CL =  1.4510
      Cm = -0.0352     CD =  0.03627   =>   CDf =  0.00763    CDp =  0.02863

 Side 1  free  transition at x/c =  0.1929   48
 Side 2 forced transition at x/c =  1.0000   64

   3   rms: 0.1276E-02   max: -.1225E-01   D at   49  1
       a = 13.000      CL =  1.4509
      Cm = -0.0352     CD =  0.03622   =>   CDf =  0.00753    CDp =  0.02869

 Side 1  free  transition at x/c =  0.1932   48
 Side 2 forced transition at x/c =  1.0000   64

   4   rms: 0.7866E-04   max: -.3255E-03   D at   83  1
       a = 13.000      CL =  1.4510
      Cm = -0.0352     CD =  0.03622   =>   CDf =  0.00752    CDp =  0.02869
 plradd ia,ip,cpol           42           0  7.06686929E-04

 Point added to stored polar  1
 Point written to save file  goe619_Re150k.base.pol                          
 Dump file unspecified or not available
 Calculating wake trajectory ...
 Calculating source influence matrix ...

 Solving BL system ...

 Side 1  free  transition at x/c =  0.1931   48
 Side 2 forced transition at x/c =  1.0000   64

   1   rms: 0.3169E-01   max: 0.1242E+00   T at   48  1   RLX: 0.694
       a = 13.250      CL =  1.4536
      Cm = -0.0341     CD =  0.03731   =>   CDf =  0.00753    CDp =  0.02978

 Side 1  free  transition at x/c =  0.1868   48
 Side 2 forced transition at x/c =  1.0000   64

   2   rms: 0.9605E-02   max: -.5667E-01   D at   48  1
       a = 13.250      CL =  1.4529
      Cm = -0.0336     CD =  0.03782   =>   CDf =  0.00748    CDp =  0.03034

 Side 1  free  transition at x/c =  0.1854   48
 Side 2 forced transition at x/c =  1.0000   64

   3   rms: 0.2474E-03   max: 0.2572E-02   D at   82  1
       a = 13.250      CL =  1.4527
      Cm = -0.0335     CD =  0.03778   =>   CDf =  0.00746    CDp =  0.03032

 Side 1  free  transition at x/c =  0.1854   48
 Side 2 forced transition at x/c =  1.0000   64

   4   rms: 0.2468E-05   max: 0.1048E-04   D at   82  1
       a = 13.250      CL =  1.4527
      Cm = -0.0335     CD =  0.03778   =>   CDf =  0.00746    CDp =  0.03032
 plradd ia,ip,cpol           43           0  7.06686929E-04

 Point added to stored polar  1
 Point written to save file  goe619_Re150k.base.pol                          
 Dump file unspecified or not available
 Calculating wake trajectory ...
 Calculating source influence matrix ...

 Solving BL system ...

 Side 1  free  transition at x/c =  0.1854   48
 Side 2 forced transition at x/c =  1.0000   64

   1   rms: 0.3334E-01   max: -.1378E+00   D at   49  1   RLX: 0.666
       a = 13.500      CL =  1.4534
      Cm = -0.0325     CD =  0.03904   =>   CDf =  0.00746    CDp =  0.03157

 Side 1  free  transition at x/c =  0.1812   47
 Side 2 forced transition at x/c =  1.0000   64

   2   rms: 0.1188E-01   max: -.8183E-01   C at   47  1
       a = 13.500      CL =  1.4573
      Cm = -0.0323     CD =  0.03939   =>   CDf =  0.00741    CDp =  0.03199

 Side 1  free  transition at x/c =  0.1757   47
 Side 2 forced transition at x/c =  1.0000   64

   3   rms: 0.2405E-02   max: -.2041E-01   C at   47  1
       a = 13.500      CL =  1.4560
      Cm = -0.0322     CD =  0.03941   =>   CDf =  0.00732    CDp =  0.03209

 Side 1  free  transition at x/c =  0.1766   47
 Side 2 forced transition at x/c =  1.0000   64

   4   rms: 0.1016E-03   max: -.5605E-03   D at   47  1
       a = 13.500      CL =  1.4561
      Cm = -0.0322     CD =  0.03940   =>   CDf =  0.00731    CDp =  0.03209

 Side 1  free  transition at x/c =  0.1766   47
 Side 2 forced transition at x/c =  1.0000   64

   5   rms: 0.5673E-05   max: 0.5097E-04   C at   64  2
       a = 13.500      CL =  1.4561
      Cm = -0.0322     CD =  0.03940   =>   CDf =  0.00731    CDp =  0.03209
 plradd ia,ip,cpol           44           0  7.06686929E-04

 Point added to stored polar  1
 Point written to save file  goe619_Re150k.base.pol                          
 Dump file unspecified or not available
 Calculating wake trajectory ...
 Calculating source influence matrix ...

 Solving BL system ...

 Side 1  free  transition at x/c =  0.1766   47
 Side 2 forced transition at x/c =  1.0000   64

   1   rms: 0.3236E-01   max: 0.1031E+00   D at   78  1   RLX: 0.645
       a = 13.750      CL =  1.4578
      Cm = -0.0315     CD =  0.04065   =>   CDf =  0.00732    CDp =  0.03334

 Side 1  free  transition at x/c =  0.1697   47
 Side 2 forced transition at x/c =  1.0000   64

   2   rms: 0.1248E-01   max: -.7260E-01   D at   47  1
       a = 13.750      CL =  1.4550
      Cm = -0.0309     CD =  0.04151   =>   CDf =  0.00733    CDp =  0.03419

 Side 1  free  transition at x/c =  0.1680   46
 Side 2 forced transition at x/c =  1.0000   64

   3   rms: 0.1702E-02   max: 0.2106E-01   D at   47  1
       a = 13.750      CL =  1.4561
      Cm = -0.0309     CD =  0.04133   =>   CDf =  0.00727    CDp =  0.03406

 Side 1  free  transition at x/c =  0.1673   46
 Side 2 forced transition at x/c =  1.0000   64

   4   rms: 0.5684E-04   max: -.3900E-03   D at   47  1
       a = 13.750      CL =  1.4561
      Cm = -0.0309     CD =  0.04134   =>   CDf =  0.00726    CDp =  0.03408
 plradd ia,ip,cpol           45           0  7.06686929E-04

 Point added to stored polar  1
 Point written to save file  goe619_Re150k.base.pol                          
 Dump file unspecified or not available
 Calculating wake trajectory ...
 Calculating source influence matrix ...

 Solving BL system ...

 Side 1  free  transition at x/c =  0.1673   46
 Side 2 forced transition at x/c =  1.0000   64

   1   rms: 0.3223E-01   max: 0.1138E+00   T at   46  1   RLX: 0.625
       a = 14.000      CL =  1.4607
      Cm = -0.0304     CD =  0.04245   =>   CDf =  0.00726    CDp =  0.03519

 Side 1  free  transition at x/c =  0.1581   46
 Side 2 forced transition at x/c =  1.0000   64

   2   rms: 0.1416E-01   max: 0.6694E-01   D at   79  1
       a = 14.000      CL =  1.4570
      Cm = -0.0299     CD =  0.04352   =>   CDf =  0.00722    CDp =  0.03630

 Side 1  free  transition at x/c =  0.1562   46
 Side 2 forced transition at x/c =  1.0000   64

   3   rms: 0.1105E-02   max: 0.6251E-02   D at   78  1
       a = 14.000      CL =  1.4561
      Cm = -0.0299     CD =  0.04344   =>   CDf =  0.00719    CDp =  0.03625

 Side 1  free  transition at x/c =  0.1564   46
 Side 2 forced transition at x/c =  1.0000   64

   4   rms: 0.3357E-04   max: 0.2336E-03   D at   77  2
       a = 14.000      CL =  1.4561
      Cm = -0.0299     CD =  0.04343   =>   CDf =  0.00718    CDp =  0.03625
 plradd ia,ip,cpol           46           0  2.66634335E-04

 Point added to stored polar  1
 Point written to save file  goe619_Re150k.base.pol                          
 Dump file unspecified or not available
 Calculating wake trajectory ...
 Calculating source influence matrix ...

 Solving BL system ...

 Side 1  free  transition at x/c =  0.1564   46
 Side 2 forced transition at x/c =  1.0000   64

   1   rms: 0.3775E-01   max: 0.1826E+00   C at   46  1   RLX: 0.595
       a = 14.250      CL =  1.4537
      Cm = -0.0293     CD =  0.04514   =>   CDf =  0.00719    CDp =  0.03795

 Side 1  free  transition at x/c =  0.1508   45
 Side 2 forced transition at x/c =  1.0000   64

   2   rms: 0.1360E-01   max: -.5228E-01   D at   45  1
       a = 14.250      CL =  1.4571
      Cm = -0.0290     CD =  0.04571   =>   CDf =  0.00713    CDp =  0.03858

 Side 1  free  transition at x/c =  0.1424   45
 Side 2 forced transition at x/c =  1.0000   64

   3   rms: 0.5312E-02   max: -.6158E-01   C at   45  1
       a = 14.250      CL =  1.4546
      Cm = -0.0289     CD =  0.04584   =>   CDf =  0.00718    CDp =  0.03866

 Side 1  free  transition at x/c =  0.1441   45
 Side 2 forced transition at x/c =  1.0000   64

   4   rms: 0.1484E-03   max: 0.1012E-02   D at   77  2
       a = 14.250      CL =  1.4545
      Cm = -0.0289     CD =  0.04582   =>   CDf =  0.00713    CDp =  0.03869

 Side 1  free  transition at x/c =  0.1441   45
 Side 2 forced transition at x/c =  1.0000   64

   5   rms: 0.4035E-05   max: 0.2822E-04   C at   64  2
       a = 14.250      CL =  1.4545
      Cm = -0.0289     CD =  0.04582   =>   CDf =  0.00713    CDp =  0.03869
 plradd ia,ip,cpol           47           0  2.66634335E-04

 Point added to stored polar  1
 Point written to save file  goe619_Re150k.base.pol                          
 Dump file unspecified or not available
 Calculating wake trajectory ...
 Calculating source influence matrix ...

 Solving BL system ...

 Side 1  free  transition at x/c =  0.1441   45
 Side 2 forced transition at x/c =  1.0000   64

   1   rms: 0.3709E-01   max: 0.2291E+00   C at   45  1   RLX: 0.575
       a = 14.500      CL =  1.4522
      Cm = -0.0286     CD =  0.04759   =>   CDf =  0.00714    CDp =  0.04045

 Side 1  free  transition at x/c =  0.1384   44
 Side 2 forced transition at x/c =  1.0000   64

   2   rms: 0.1408E-01   max: 0.9071E-01   C at   44  1
       a = 14.500      CL =  1.4534
      Cm = -0.0282     CD =  0.04845   =>   CDf =  0.00712    CDp =  0.04134

 Side 1  free  transition at x/c =  0.1318   44
 Side 2 forced transition at x/c =  1.0000   64

   3   rms: 0.3597E-02   max: -.4329E-01   C at   44  1
       a = 14.500      CL =  1.4513
      Cm = -0.0282     CD =  0.04851   =>   CDf =  0.00714    CDp =  0.04136

 Side 1  free  transition at x/c =  0.1330   44
 Side 2 forced transition at x/c =  1.0000   64

   4   rms: 0.1069E-03   max: -.1046E-02   C at   44  1
       a = 14.500      CL =  1.4512
      Cm = -0.0282     CD =  0.04849   =>   CDf =  0.00712    CDp =  0.04137

 Side 1  free  transition at x/c =  0.1330   44
 Side 2 forced transition at x/c =  1.0000   64

   5   rms: 0.1341E-05   max: 0.9410E-05   C at   44  1
       a = 14.500      CL =  1.4513
      Cm = -0.0282     CD =  0.04849   =>   CDf =  0.00711    CDp =  0.04137
 plradd ia,ip,cpol           48           0  2.66634335E-04

 Point added to stored polar  1
 Point written to save file  goe619_Re150k.base.pol                          
 Dump file unspecified or not available
 Calculating wake trajectory ...
 Calculating source influence matrix ...

 Solving BL system ...

 Side 1  free  transition at x/c =  0.1330   44
 Side 2 forced transition at x/c =  1.0000   64

   1   rms: 0.3895E-01   max: 0.2919E+00   C at   44  1   RLX: 0.553
       a = 14.750      CL =  1.4484
      Cm = -0.0279     CD =  0.05039   =>   CDf =  0.00669    CDp =  0.04370

 Side 1  free  transition at x/c =  0.1269   44
 Side 2 forced transition at x/c =  1.0000   63

   2   rms: 0.1608E-01   max: 0.8431E-01   C at   44  1
       a = 14.750      CL =  1.4470
      Cm = -0.0277     CD =  0.05163   =>   CDf =  0.00713    CDp =  0.04449

 Side 1  free  transition at x/c =  0.1216   44
 Side 2 forced transition at x/c =  1.0000   63

   3   rms: 0.2906E-02   max: -.3236E-01   C at   44  1
       a = 14.750      CL =  1.4450
      Cm = -0.0276     CD =  0.05161   =>   CDf =  0.00713    CDp =  0.04448

 Side 1  free  transition at x/c =  0.1224   44
 Side 2 forced transition at x/c =  1.0000   63

   4   rms: 0.9069E-04   max: -.8361E-03   C at   44  1
       a = 14.750      CL =  1.4450
      Cm = -0.0276     CD =  0.05159   =>   CDf =  0.00711    CDp =  0.04448
 plradd ia,ip,cpol           49           0  2.66634335E-04

 Point added to stored polar  1
 Point written to save file  goe619_Re150k.base.pol                          
 Dump file unspecified or not available
 Calculating wake trajectory ...
 Calculating source influence matrix ...

 Solving BL system ...

 Side 1  free  transition at x/c =  0.1225   44
 Side 2 forced transition at x/c =  1.0000   63

   1   rms: 0.3594E-01   max: 0.2578E+00   C at   44  1   RLX: 0.534
       a = 15.000      CL =  1.4435
      Cm = -0.0274     CD =  0.05341   =>   CDf =  0.00712    CDp =  0.04629

 Side 1  free  transition at x/c =  0.1178   44
 Side 2 forced transition at x/c =  1.0000   63

   2   rms: 0.1811E-01   max: 0.8004E-01   C at   44  1
       a = 15.000      CL =  1.4391
      Cm = -0.0273     CD =  0.05516   =>   CDf =  0.00714    CDp =  0.04802

 Side 1  free  transition at x/c =  0.1155   43
 Side 2 forced transition at x/c =  1.0000   63

   3   rms: 0.1500E-02   max: 0.1040E-01   D at   77  2
       a = 15.000      CL =  1.4381
      Cm = -0.0272     CD =  0.05494   =>   CDf =  0.00711    CDp =  0.04783

 Side 1  free  transition at x/c =  0.1157   43
 Side 2 forced transition at x/c =  1.0000   63

   4   rms: 0.5267E-04   max: 0.5257E-03   D at   77  2
       a = 15.000      CL =  1.4381
      Cm = -0.0272     CD =  0.05493   =>   CDf =  0.00711    CDp =  0.04782
 plradd ia,ip,cpol           50           0  2.66634335E-04

 Point added to stored polar  1
 Point written to save file  goe619_Re150k.base.pol                          
 Dump file unspecified or not available
 Calculating wake trajectory ...
 Calculating source influence matrix ...

 Solving BL system ...

 Side 1  free  transition at x/c =  0.1157   43
 Side 2 forced transition at x/c =  1.0000   63

   1   rms: 0.3326E-01   max: 0.1927E+00   C at   43  1   RLX: 0.516
       a = 15.250      CL =  1.4381
      Cm = -0.0272     CD =  0.05662   =>   CDf =  0.00711    CDp =  0.04951

 Side 1  free  transition at x/c =  0.1115   43
 Side 2 forced transition at x/c =  1.0000   63

   2   rms: 0.1734E-01   max: 0.7963E-01   C at   43  1
       a = 15.250      CL =  1.4351
      Cm = -0.0271     CD =  0.05834   =>   CDf =  0.00709    CDp =  0.05126

 Side 1  free  transition at x/c =  0.1085   43
 Side 2 forced transition at x/c =  1.0000   63

   3   rms: 0.2851E-02   max: -.2321E-01   C at   43  1
       a = 15.250      CL =  1.4332
      Cm = -0.0270     CD =  0.05824   =>   CDf =  0.00707    CDp =  0.05117

 Side 1  free  transition at x/c =  0.1091   43
 Side 2 forced transition at x/c =  1.0000   63

   4   rms: 0.1240E-03   max: 0.1426E-02   D at   77  2
       a = 15.250      CL =  1.4331
      Cm = -0.0270     CD =  0.05821   =>   CDf =  0.00705    CDp =  0.05116

 Side 1  free  transition at x/c =  0.1091   43
 Side 2 forced transition at x/c =  1.0000   63

   5   rms: 0.1889E-05   max: -.1326E-04   C at   63  2
       a = 15.250      CL =  1.4331
      Cm = -0.0270     CD =  0.05821   =>   CDf =  0.00705    CDp =  0.05116
 plradd ia,ip,cpol           51           0  2.66634335E-04

 Point added to stored polar  1
 Point written to save file  goe619_Re150k.base.pol                          
 Dump file unspecified or not available
 Calculating wake trajectory ...
 Calculating source influence matrix ...

 Solving BL system ...

 Side 1  free  transition at x/c =  0.1091   43
 Side 2 forced transition at x/c =  1.0000   63

   1   rms: 0.3605E-01   max: 0.2155E+00   C at   43  1   RLX: 0.496
       a = 15.500      CL =  1.4309
      Cm = -0.0272     CD =  0.06021   =>   CDf =  0.00706    CDp =  0.05315

 Side 1  free  transition at x/c =  0.1058   43
 Side 2 forced transition at x/c =  1.0000   63

   2   rms: 0.1953E-01   max: 0.8335E-01   D at   72  1
       a = 15.500      CL =  1.4258
      Cm = -0.0273     CD =  0.06233   =>   CDf =  0.00706    CDp =  0.05527

 Side 1  free  transition at x/c =  0.1038   43
 Side 2 forced transition at x/c =  1.0000   63

   3   rms: 0.2731E-02   max: 0.1492E-01   D at   72  1
       a = 15.500      CL =  1.4238
      Cm = -0.0271     CD =  0.06215   =>   CDf =  0.00704    CDp =  0.05511

 Side 1  free  transition at x/c =  0.1041   43
 Side 2 forced transition at x/c =  1.0000   63

   4   rms: 0.1060E-03   max: 0.8819E-03   D at   77  2
       a = 15.500      CL =  1.4237
      Cm = -0.0271     CD =  0.06211   =>   CDf =  0.00703    CDp =  0.05508

 Side 1  free  transition at x/c =  0.1041   43
 Side 2 forced transition at x/c =  1.0000   63

   5   rms: 0.1461E-05   max: -.1721E-04   C at   63  2
       a = 15.500      CL =  1.4237
      Cm = -0.0271     CD =  0.06211   =>   CDf =  0.00703    CDp =  0.05508
 plradd ia,ip,cpol           52           0  2.66634335E-04

 Point added to stored polar  1
 Point written to save file  goe619_Re150k.base.pol                          
 Dump file unspecified or not available
 Calculating wake trajectory ...
 Calculating source influence matrix ...

 Solving BL system ...

 Side 1  free  transition at x/c =  0.1041   43
 Side 2 forced transition at x/c =  1.0000   63

   1   rms: 0.3766E-01   max: 0.1660E+00   C at   43  1   RLX: 0.477
       a = 15.750      CL =  1.4200
      Cm = -0.0274     CD =  0.06437   =>   CDf =  0.00703    CDp =  0.05733

 Side 1  free  transition at x/c =  0.1020   42
 Side 2 forced transition at x/c =  1.0000   63

   2   rms: 0.1611E-01   max: 0.5922E-01   D at   69  1
       a = 15.750      CL =  1.4205
      Cm = -0.0274     CD =  0.06580   =>   CDf =  0.00699    CDp =  0.05881

 Side 1  free  transition at x/c =  0.0990   42
 Side 2 forced transition at x/c =  1.0000   63

   3   rms: 0.2870E-02   max: -.1232E-01   C at   42  1
       a = 15.750      CL =  1.4183
      Cm = -0.0274     CD =  0.06577   =>   CDf =  0.00695    CDp =  0.05882

 Side 1  free  transition at x/c =  0.0994   42
 Side 2 forced transition at x/c =  1.0000   63

   4   rms: 0.1610E-03   max: 0.1264E-02   D at   78  2
       a = 15.750      CL =  1.4182
      Cm = -0.0274     CD =  0.06573   =>   CDf =  0.00694    CDp =  0.05879

 Side 1  free  transition at x/c =  0.0994   42
 Side 2 forced transition at x/c =  1.0000   63

   5   rms: 0.3689E-05   max: -.6086E-04   C at   63  2
       a = 15.750      CL =  1.4182
      Cm = -0.0274     CD =  0.06573   =>   CDf =  0.00694    CDp =  0.05879
 plradd ia,ip,cpol           53           0  2.66634335E-04

 Point added to stored polar  1
 Point written to save file  goe619_Re150k.base.pol                          
 Dump file unspecified or not available
 Calculating wake trajectory ...
 Calculating source influence matrix ...

 Solving BL system ...

 Side 1  free  transition at x/c =  0.0994   42
 Side 2 forced transition at x/c =  1.0000   63

   1   rms: 0.3264E-01   max: 0.1386E+00   C at   42  1   RLX: 0.464
       a = 16.000      CL =  1.4170
      Cm = -0.0276     CD =  0.06767   =>   CDf =  0.00695    CDp =  0.06072

 Side 1  free  transition at x/c =  0.0975   42
 Side 2 forced transition at x/c =  1.0000   63

   2   rms: 0.1901E-01   max: 0.8263E-01   D at   70  1
       a = 16.000      CL =  1.4131
      Cm = -0.0280     CD =  0.06997   =>   CDf =  0.00691    CDp =  0.06306

 Side 1  free  transition at x/c =  0.0957   42
 Side 2 forced transition at x/c =  1.0000   63

   3   rms: 0.2986E-02   max: 0.1528E-01   D at   78  2
       a = 16.000      CL =  1.4109
      Cm = -0.0278     CD =  0.06974   =>   CDf =  0.00687    CDp =  0.06288

 Side 1  free  transition at x/c =  0.0960   42
 Side 2 forced transition at x/c =  1.0000   63

   4   rms: 0.1703E-03   max: 0.1455E-02   D at   78  2
       a = 16.000      CL =  1.4108
      Cm = -0.0278     CD =  0.06970   =>   CDf =  0.00686    CDp =  0.06284

 Side 1  free  transition at x/c =  0.0960   42
 Side 2 forced transition at x/c =  1.0000   63

   5   rms: 0.5106E-05   max: -.6955E-04   C at   63  2
       a = 16.000      CL =  1.4108
      Cm = -0.0278     CD =  0.06970   =>   CDf =  0.00686    CDp =  0.06284
 plradd ia,ip,cpol           54           0  2.66634335E-04

 Point added to stored polar  1
 Point written to save file  goe619_Re150k.base.pol                          
 Dump file unspecified or not available

.OPERva   c>  
 Polar accumulation disabled

.OPERv   c>  
 XFOIL   c>  
 XFOIL   c>  