
 ===================================================
  XFOIL Version 6.99
  Copyright (C) 2000   Mark Drela, Harold Youngren

  This software comes with ABSOLUTELY NO WARRANTY,
    subject to the GNU General Public License.

  Caveat computor
 ===================================================

 File  xfoil.def  not found

   QUIT    Exit program

  .OPER    Direct operating point(s)
  .MDES    Complex mapping design routine
  .QDES    Surface speed design routine
  .GDES    Geometry design routine

   SAVE f  Write airfoil to labeled coordinate file
   PSAV f  Write airfoil to plain coordinate file
   ISAV f  Write airfoil to ISES coordinate file
   MSAV f  Write airfoil to MSES coordinate file
   REVE    Reverse written-airfoil node ordering

   LOAD f  Read buffer airfoil from coordinate file
   NACA i  Set NACA 4,5-digit airfoil and buffer airfoil
   INTE    Set buffer airfoil by interpolating two airfoils
   NORM    Buffer airfoil normalization toggle
   XYCM rr Change CM reference location, currently  0.25000 0.00000

   BEND    Display structural properties of current airfoil

   PCOP    Set current-airfoil panel nodes directly from buffer airfoil points
   PANE    Set current-airfoil panel nodes ( 160 ) based on curvature
  .PPAR    Show/change paneling

  .PLOP    Plotting options

   WDEF f  Write  current-settings file
   RDEF f  Reread current-settings file
   NAME s  Specify new airfoil name
   NINC    Increment name version number

   Z       Zoom    | (available in all menus)
   U       Unzoom  | 

 XFOIL   c>  
 Labeled airfoil file.  Name:  GOE 693 AIRFOIL                                 

 Number of input coordinate points:  33
 Counterclockwise ordering
 Max thickness =     0.119993  at x =   0.300
 Max camber    =     0.035494  at x =   0.400

  LE  x,y  =  -0.00004   0.00093  |   Chord =   1.00004
  TE  x,y  =   1.00000   0.00250  |

 Current airfoil nodes set from buffer airfoil nodes (  33 )

 WARNING: Poor input coordinate distribution
          Excessive panel angle   69.3  at i =  17
          Repaneling with PANE and/or PPAR suggested
           (doing GDES,CADD before repaneling _may_
            improve excessively coarse LE spacing

 XFOIL   c>  
 XFOIL   c>  
 Blunt trailing edge.  Gap =  0.00500

 Paneling parameters used...
   Number of panel nodes       160
   Panel bunching parameter    1.000
   TE/LE panel density ratio   0.150
   Refined-area/LE panel density ratio    0.200
   Top    side refined area x/c limits  1.000 1.000
   Bottom side refined area x/c limits  1.000 1.000

 XFOIL   c>  
.OPERi   c>  
 Xtr/c     =  1.0000    top    side
 Xtr/c     =  1.0000    bottom side
 Ncrit     =    9.00   ( 0.070 % turb. level )
 Vacc      =  0.0100

 Klag  =  5.6000     Uxwt  =    1.00
 A     =  6.7000     B     =  0.7500       KCt = 0.01485
 CtiniK=  1.8000     CtiniX=  3.3000

..VPAR   c>  
..VPAR   c>  
.OPERi   c>  
 M  =    0.0000
 Re =    150000

.OPERv   c>  
.OPERv   c>  
.OPERv   c>  
 Polar  1 newly created for accumulation
 Airfoil archived with polar: GOE 693 AIRFOIL                                 

Enter  polar save filename  OR  <return> for no file   s>  
 New polar save file available

Enter  polar dump filename  OR  <return> for no file   s>  
 Polar dump file will NOT be written

 Polar accumulation enabled

.OPERva   c>   Calculating unit vorticity distributions ...
 Calculating wake trajectory ...
 Calculating source influence matrix ...

 Solving BL system ...

 Initializing BL ...
    side            1  ...
 MRCHUE: Inverse mode at  51     Hk =   4.000
 MRCHUE: Inverse mode at  52     Hk =   4.369
 MRCHUE: Inverse mode at  53     Hk =   4.731
 MRCHUE: Inverse mode at  54     Hk =   5.087
 MRCHUE: Inverse mode at  55     Hk =   5.438
 MRCHUE: Inverse mode at  56     Hk =   5.784
 MRCHUE: Inverse mode at  57     Hk =   6.126
 MRCHUE: Inverse mode at  58     Hk =   6.464
 MRCHUE: Inverse mode at  59     Hk =   6.798
 MRCHUE: Inverse mode at  60     Hk =   7.128
 MRCHUE: Inverse mode at  61     Hk =   7.453
 MRCHUE: Inverse mode at  62     Hk =   7.772
 MRCHUE: Inverse mode at  63     Hk =   8.086
 MRCHUE: Inverse mode at  64     Hk =   8.394
 MRCHUE: Inverse mode at  65     Hk =   8.696
 MRCHUE: Inverse mode at  66     Hk =   8.994
 MRCHUE: Inverse mode at  67     Hk =   9.289
 MRCHUE: Inverse mode at  68     Hk =   9.585
 MRCHUE: Inverse mode at  69     Hk =   9.262
 MRCHUE: Inverse mode at  70     Hk =   7.931
 MRCHUE: Inverse mode at  71     Hk =   6.978
 MRCHUE: Inverse mode at  72     Hk =   6.264
 MRCHUE: Inverse mode at  73     Hk =   5.723
 MRCHUE: Inverse mode at  74     Hk =   5.305
 MRCHUE: Inverse mode at  75     Hk =   4.972
 MRCHUE: Inverse mode at  76     Hk =   4.787
    side            2  ...
 MRCHUE: Inverse mode at  21     Hk =   3.800
 MRCHUE: Inverse mode at  22     Hk =   4.452
 MRCHUE: Inverse mode at  23     Hk =   5.116
 MRCHUE: Inverse mode at  24     Hk =   5.810
 MRCHUE: Inverse mode at  25     Hk =   6.548
 MRCHUE: Inverse mode at  26     Hk =   7.323
 MRCHUE: Inverse mode at  27     Hk =   8.119
 MRCHUE: Inverse mode at  28     Hk =   8.933
 MRCHUE: Inverse mode at  29     Hk =   9.791
 MRCHUE: Inverse mode at  30     Hk =   8.541
 MRCHUE: Inverse mode at  31     Hk =   5.045
 MRCHUE: Inverse mode at  32     Hk =   3.248
 MRCHUE: Inverse mode at  33     Hk =   2.500
 MRCHUE: Inverse mode at  86     Hk =   2.500

 Side 1  free  transition at x/c =  0.9087   69
 Side 2  free  transition at x/c =  0.1041   30
 idif Ue xi dudx           1  0.16963212      3.80086899E-03   44.629826    
 Uenew xinew           2  5.24154939E-02  1.17444992E-03

   1   rms: 0.2508E+00   max: -.1007E+01   D at   86  2   RLX: 0.497
       a = -4.000      CL = -0.2202
      Cm = -0.0707     CD =  0.02005   =>   CDf =  0.00802    CDp =  0.01204

 Side 1  free  transition at x/c =  0.8942   67
 Side 2  free  transition at x/c =  0.0961   31

   2   rms: 0.1311E+00   max: -.9441E+00   T at   31  2   RLX: 0.530
       a = -4.000      CL = -0.1759
      Cm = -0.0738     CD =  0.02202   =>   CDf =  0.00811    CDp =  0.01391

 Side 1  free  transition at x/c =  0.9072   68
 Side 2  free  transition at x/c =  0.1021   31

   3   rms: 0.1368E+00   max: -.5960E+00   T at   31  2   RLX: 0.839
       a = -4.000      CL = -0.1344
      Cm = -0.0794     CD =  0.02166   =>   CDf =  0.00791    CDp =  0.01375

 Side 1  free  transition at x/c =  0.9091   69
 Side 2  free  transition at x/c =  0.1141   31

   4   rms: 0.6962E-01   max: 0.5057E+00   D at   31  2
       a = -4.000      CL = -0.0791
      Cm = -0.0907     CD =  0.02087   =>   CDf =  0.00842    CDp =  0.01245

 Side 1  free  transition at x/c =  0.9195   70
 Side 2  free  transition at x/c =  0.1202   31

   5   rms: 0.2211E-01   max: 0.1344E+00   D at   73  1
       a = -4.000      CL = -0.0823
      Cm = -0.0902     CD =  0.02098   =>   CDf =  0.00838    CDp =  0.01260

 Side 1  free  transition at x/c =  0.9162   70
 Side 2  free  transition at x/c =  0.1204   31

   6   rms: 0.5825E-03   max: -.7229E-02   D at   70  1
       a = -4.000      CL = -0.0823
      Cm = -0.0902     CD =  0.02099   =>   CDf =  0.00839    CDp =  0.01261

 Side 1  free  transition at x/c =  0.9162   70
 Side 2  free  transition at x/c =  0.1204   31

   7   rms: 0.6427E-05   max: 0.4960E-04   D at   32  2
       a = -4.000      CL = -0.0823
      Cm = -0.0902     CD =  0.02099   =>   CDf =  0.00839    CDp =  0.01261
 plradd ia,ip,cpol            1           0  1.51495775E-02

 Point added to stored polar  1
 Point written to save file  goe693_Re150k.base.pol                          
 Dump file unspecified or not available
 Calculating wake trajectory ...
 Calculating source influence matrix ...

 Solving BL system ...

 Side 1  free  transition at x/c =  0.9162   70
 Side 2  free  transition at x/c =  0.1204   31

   1   rms: 0.1175E+00   max: -.1074E+01   T at   31  2   RLX: 0.466
       a = -3.500      CL = -0.0453
      Cm = -0.0922     CD =  0.02038   =>   CDf =  0.00839    CDp =  0.01199

 Side 1  free  transition at x/c =  0.9136   69
 Side 2  free  transition at x/c =  0.1332   32

   2   rms: 0.2609E+00   max: -.1600E+01   T at   69  1   RLX: 0.313
       a = -3.500      CL =  0.0174
      Cm = -0.1026     CD =  0.01822   =>   CDf =  0.00843    CDp =  0.00980

 MRCHDU: Convergence failed at  73  side 1    Res =  0.3562E+01
 MRCHDU: Convergence failed at  74  side 1    Res =  0.1432E+03
 MRCHDU: Convergence failed at  75  side 1    Res =  0.3529E+02
 MRCHDU: Convergence failed at  76  side 1    Res =  0.2739E+02
 MRCHDU: Convergence failed at  77  side 1    Res =  0.2672E+02
 Side 1  free  transition at x/c =  0.9431   72
 Side 2  free  transition at x/c =  0.1472   32
 idif Ue xi dudx           1  0.13816018      2.75778770E-03   50.098194    
 Uenew xinew           2  2.15714779E-02  4.30583954E-04

   3   rms: 0.3658E+00   max: 0.2974E+01   T at   72  1   RLX: 0.282
       a = -3.500      CL = -0.0441
      Cm = -0.0957     CD =  0.01429   =>   CDf =  0.00840    CDp =  0.00590

 Side 1  free  transition at x/c =  0.9061   69
 Side 2  free  transition at x/c =  0.1373   32

   4   rms: 0.5758E-01   max: -.5764E+00   D at   76  1   RLX: 0.867
       a = -3.500      CL = -0.0550
      Cm = -0.0855     CD =  0.02059   =>   CDf =  0.00846    CDp =  0.01213

 Side 1  free  transition at x/c =  0.8954   68
 Side 2  free  transition at x/c =  0.1364   32

   5   rms: 0.3816E+00   max: -.2600E+01   T at   68  1   RLX: 0.192
       a = -3.500      CL =  0.0028
      Cm = -0.0953     CD =  0.02022   =>   CDf =  0.00849    CDp =  0.01173

 Side 1  free  transition at x/c =  0.9223   71
 Side 2  free  transition at x/c =  0.1526   32

   6   rms: 0.8613E-01   max: 0.6133E+00   D at   32  2
       a = -3.500      CL =  0.0054
      Cm = -0.0965     CD =  0.01871   =>   CDf =  0.00831    CDp =  0.01039

 Side 1  free  transition at x/c =  0.9141   71
 Side 2  free  transition at x/c =  0.1497   32

   7   rms: 0.2205E-01   max: 0.1602E+00   T at   32  2
       a = -3.500      CL = -0.0040
      Cm = -0.0946     CD =  0.01929   =>   CDf =  0.00841    CDp =  0.01089

 Side 1  free  transition at x/c =  0.9114   70
 Side 2  free  transition at x/c =  0.1454   32
 idif Ue xi dudx           1  0.13815081      2.60686874E-03   52.994923    
 Uenew xinew           2  1.48208244E-02  2.79664993E-04

   8   rms: 0.8757E-01   max: 0.5900E+00   T at   70  1
       a = -3.500      CL = -0.0653
      Cm = -0.0831     CD =  0.02062   =>   CDf =  0.00844    CDp =  0.01218

 Side 1  free  transition at x/c =  0.8873   68
 Side 2  free  transition at x/c =  0.1368   32

   9   rms: 0.9944E-01   max: -.5279E+00   T at   68  1   RLX: 0.947
       a = -3.500      CL = -0.0037
      Cm = -0.0945     CD =  0.01962   =>   CDf =  0.00848    CDp =  0.01114

 Side 1  free  transition at x/c =  0.9119   70
 Side 2  free  transition at x/c =  0.1500   32

  10   rms: 0.6952E-01   max: 0.4730E+00   D at   32  2
       a = -3.500      CL = -0.0254
      Cm = -0.0905     CD =  0.01965   =>   CDf =  0.00835    CDp =  0.01130

 Side 1  free  transition at x/c =  0.9017   70
 Side 2  free  transition at x/c =  0.1426   32

  11   rms: 0.1692E-01   max: -.1013E+00   D at   34  2
       a = -3.500      CL = -0.0202
      Cm = -0.0915     CD =  0.01965   =>   CDf =  0.00850    CDp =  0.01115

 Side 1  free  transition at x/c =  0.9040   70
 Side 2  free  transition at x/c =  0.1426   32

  12   rms: 0.9938E-03   max: -.5847E-02   D at   73  1
       a = -3.500      CL = -0.0198
      Cm = -0.0916     CD =  0.01966   =>   CDf =  0.00851    CDp =  0.01114

 Side 1  free  transition at x/c =  0.9042   70
 Side 2  free  transition at x/c =  0.1427   32

  13   rms: 0.1040E-04   max: -.6562E-04   T at   70  1
       a = -3.500      CL = -0.0198
      Cm = -0.0916     CD =  0.01966   =>   CDf =  0.00851    CDp =  0.01114
 plradd ia,ip,cpol            2           0  1.51495775E-02

 Point added to stored polar  1
 Point written to save file  goe693_Re150k.base.pol                          
 Dump file unspecified or not available
 Calculating wake trajectory ...
 Calculating source influence matrix ...

 Solving BL system ...

 Side 1  free  transition at x/c =  0.9042   70
 Side 2  free  transition at x/c =  0.1427   32

   1   rms: 0.1380E+00   max: -.1420E+01   T at   32  2   RLX: 0.352
       a = -3.000      CL =  0.0035
      Cm = -0.0926     CD =  0.01890   =>   CDf =  0.00852    CDp =  0.01038

 Side 1  free  transition at x/c =  0.9011   70
 Side 2  free  transition at x/c =  0.1517   32

   2   rms: 0.9507E-01   max: -.8940E+00   T at   32  2   RLX: 0.559
       a = -3.000      CL =  0.0317
      Cm = -0.0937     CD =  0.01963   =>   CDf =  0.00850    CDp =  0.01113

 Side 1  free  transition at x/c =  0.8987   70
 Side 2  free  transition at x/c =  0.1660   33

   3   rms: 0.4431E-01   max: 0.5273E+00   D at   33  2
       a = -3.000      CL =  0.0532
      Cm = -0.0949     CD =  0.01853   =>   CDf =  0.00840    CDp =  0.01013

 Side 1  free  transition at x/c =  0.8976   70
 Side 2  free  transition at x/c =  0.1705   32
 idif Ue xi dudx           1  0.15137815      2.50434875E-03   60.446117    
 Uenew xinew           2  2.48309765E-02  4.10795212E-04

   4   rms: 0.5996E-01   max: 0.6734E+00   T at    2  1
       a = -3.000      CL =  0.0222
      Cm = -0.0894     CD =  0.01917   =>   CDf =  0.00852    CDp =  0.01066

 Side 1  free  transition at x/c =  0.8838   69
 Side 2  free  transition at x/c =  0.1639   33

   5   rms: 0.4260E-01   max: -.2305E+00   D at   74  1
       a = -3.000      CL =  0.0371
      Cm = -0.0920     CD =  0.01886   =>   CDf =  0.00844    CDp =  0.01042

 Side 1  free  transition at x/c =  0.8900   69
 Side 2  free  transition at x/c =  0.1675   33

   6   rms: 0.1619E-01   max: -.8988E-01   D at   72  1
       a = -3.000      CL =  0.0440
      Cm = -0.0932     CD =  0.01875   =>   CDf =  0.00845    CDp =  0.01030

 Side 1  free  transition at x/c =  0.8935   69
 Side 2  free  transition at x/c =  0.1692   33

   7   rms: 0.1696E-02   max: -.9446E-02   D at   72  1
       a = -3.000      CL =  0.0449
      Cm = -0.0934     CD =  0.01873   =>   CDf =  0.00847    CDp =  0.01027

 Side 1  free  transition at x/c =  0.8939   69
 Side 2  free  transition at x/c =  0.1694   33

   8   rms: 0.5185E-04   max: -.3071E-03   T at   69  1
       a = -3.000      CL =  0.0449
      Cm = -0.0934     CD =  0.01873   =>   CDf =  0.00847    CDp =  0.01026
 plradd ia,ip,cpol            3           0  1.51495775E-02

 Point added to stored polar  1
 Point written to save file  goe693_Re150k.base.pol                          
 Dump file unspecified or not available
 Calculating wake trajectory ...
 Calculating source influence matrix ...

 Solving BL system ...

 Side 1  free  transition at x/c =  0.8939   69
 Side 2  free  transition at x/c =  0.1694   33

   1   rms: 0.8973E-01   max: -.8469E+00   T at   33  2   RLX: 0.590
       a = -2.500      CL =  0.0713
      Cm = -0.0921     CD =  0.01873   =>   CDf =  0.00850    CDp =  0.01022

 MRCHDU: Convergence failed at  34  side 2    Res =  0.7190E+01
 MRCHDU: Convergence failed at  35  side 2    Res =  0.9419E+01
 MRCHDU: Convergence failed at  36  side 2    Res =  0.6237E+01
 MRCHDU: Convergence failed at  37  side 2    Res =  0.4810E+01
 MRCHDU: Convergence failed at  38  side 2    Res =  0.7430E+01
 MRCHDU: Convergence failed at  39  side 2    Res =  0.1054E+02
 MRCHDU: Convergence failed at  40  side 2    Res =  0.1289E+02
 MRCHDU: Convergence failed at  41  side 2    Res =  0.1424E+02
 MRCHDU: Convergence failed at  42  side 2    Res =  0.1450E+02
 MRCHDU: Convergence failed at  43  side 2    Res =  0.1467E+02
 MRCHDU: Convergence failed at  44  side 2    Res =  0.1441E+02
 MRCHDU: Convergence failed at  45  side 2    Res =  0.1281E+02
 MRCHDU: Convergence failed at  46  side 2    Res =  0.1225E+02
 MRCHDU: Convergence failed at  47  side 2    Res =  0.1167E+02
 MRCHDU: Convergence failed at  48  side 2    Res =  0.9665E+01
 MRCHDU: Convergence failed at  49  side 2    Res =  0.9248E+01
 MRCHDU: Convergence failed at  50  side 2    Res =  0.7889E+01
 MRCHDU: Convergence failed at  51  side 2    Res =  0.7629E+01
 MRCHDU: Convergence failed at  52  side 2    Res =  0.7390E+01
 MRCHDU: Convergence failed at  53  side 2    Res =  0.1442E+03
 MRCHDU: Convergence failed at  54  side 2    Res =  0.2564E+03
 MRCHDU: Convergence failed at  55  side 2    Res =  0.1768E+04
 MRCHDU: Convergence failed at  56  side 2    Res =  0.4324E+03
 MRCHDU: Convergence failed at  57  side 2    Res =  0.3284E+03
 MRCHDU: Convergence failed at  58  side 2    Res =  0.1518E+03
 MRCHDU: Convergence failed at  59  side 2    Res =  0.1067E+03
 MRCHDU: Convergence failed at  60  side 2    Res =  0.8038E+02
 MRCHDU: Convergence failed at  61  side 2    Res =  0.6713E+02
 MRCHDU: Convergence failed at  62  side 2    Res =  0.5791E+02
 MRCHDU: Convergence failed at  63  side 2    Res =  0.5107E+02
 MRCHDU: Convergence failed at  64  side 2    Res =  0.4610E+02
 MRCHDU: Convergence failed at  65  side 2    Res =  0.4224E+02
 MRCHDU: Convergence failed at  66  side 2    Res =  0.3872E+02
 MRCHDU: Convergence failed at  67  side 2    Res =  0.3574E+02
 MRCHDU: Convergence failed at  68  side 2    Res =  0.3393E+02
 MRCHDU: Convergence failed at  69  side 2    Res =  0.3189E+02
 MRCHDU: Convergence failed at  70  side 2    Res =  0.3010E+02
 MRCHDU: Convergence failed at  71  side 2    Res =  0.2856E+02
 MRCHDU: Convergence failed at  72  side 2    Res =  0.2768E+02
 MRCHDU: Convergence failed at  73  side 2    Res =  0.2638E+02
 MRCHDU: Convergence failed at  74  side 2    Res =  0.2517E+02
 MRCHDU: Convergence failed at  75  side 2    Res =  0.2398E+02
 MRCHDU: Convergence failed at  76  side 2    Res =  0.2278E+02
 MRCHDU: Convergence failed at  77  side 2    Res =  0.2186E+02
 MRCHDU: Convergence failed at  78  side 2    Res =  0.2046E+02
 MRCHDU: Convergence failed at  79  side 2    Res =  0.1904E+02
 MRCHDU: Convergence failed at  80  side 2    Res =  0.1193E+02
 MRCHDU: Convergence failed at  81  side 2    Res =  0.1288E+02
 MRCHDU: Convergence failed at  82  side 2    Res =  0.1567E+02
 MRCHDU: Convergence failed at  83  side 2    Res =  0.1654E+02
 MRCHDU: Convergence failed at  84  side 2    Res =  0.1928E+02
 Side 1  free  transition at x/c =  0.8825   69
 Side 2  free  transition at x/c =  0.1861   33

   2   rms: 0.1059E+01   max: -.7914E+01   T at   33  2   RLX: 0.063
       a = -2.500      CL = -0.2606
      Cm =  0.0477     CD =  0.01222   =>   CDf =  0.00426    CDp =  0.00796

 MRCHDU: Convergence failed at  50  side 2    Res =  0.9586E-01
 MRCHDU: Convergence failed at  69  side 2    Res =  0.8341E-01
 Side 1  free  transition at x/c =  0.9008   71
 Side 2  free  transition at x/c =  0.2021   34

   3   rms: 0.2991E+00   max: -.1269E+01   D at   50  2   RLX: 0.394
       a = -2.500      CL =  0.0213
      Cm = -0.0583     CD =  0.02476   =>   CDf =  0.00583    CDp =  0.01893

 MRCHDU: Convergence failed at  50  side 2    Res =  0.1425E+00
 MRCHDU: Convergence failed at  51  side 2    Res =  0.3495E+00
 MRCHDU: Convergence failed at  63  side 2    Res =  0.2130E+01
 MRCHDU: Convergence failed at  64  side 2    Res =  0.1618E+01
 Side 1  free  transition at x/c =  0.8989   71
 Side 2  free  transition at x/c =  0.2084   35

   4   rms: 0.3370E+00   max: -.1832E+01   D at   52  2   RLX: 0.273
       a = -2.500      CL =  0.0521
      Cm = -0.0717     CD =  0.01880   =>   CDf =  0.00723    CDp =  0.01157

 Side 1  free  transition at x/c =  0.8962   70
 Side 2  free  transition at x/c =  0.2076   35
 idif Ue xi dudx           1  0.13450527      2.28726864E-03   58.806068    
 Uenew xinew           2  1.13916229E-02  1.93715096E-04

   5   rms: 0.1158E+01   max: 0.5942E+01   T at   70  1   RLX: 0.114
       a = -2.500      CL = -0.0474
      Cm = -0.0563     CD =  0.02002   =>   CDf =  0.00761    CDp =  0.01241

 MRCHDU: Convergence failed at  36  side 2    Res =  0.4039E+01
 MRCHDU: Convergence failed at  37  side 2    Res =  0.4089E+01
 MRCHDU: Convergence failed at  38  side 2    Res =  0.1348E+02
 MRCHDU: Convergence failed at  39  side 2    Res =  0.6622E+01
 Side 1  free  transition at x/c =  0.8678   68
 Side 2  free  transition at x/c =  0.1888   35

   6   rms: 0.4073E+00   max: -.1762E+01   D at   79  2   RLX: 0.284
       a = -2.500      CL = -0.0919
      Cm = -0.0559     CD =  0.01934   =>   CDf =  0.00714    CDp =  0.01220

 Side 1  free  transition at x/c =  0.8647   67
 Side 2  free  transition at x/c =  0.1785   34

   7   rms: 0.4894E+00   max: -.2093E+01   T at   67  1   RLX: 0.239
       a = -2.500      CL = -0.0143
      Cm = -0.0700     CD =  0.01733   =>   CDf =  0.00772    CDp =  0.00961

 MRCHDU: Convergence failed at  72  side 1    Res =  0.2790E+01
 MRCHDU: Convergence failed at  73  side 1    Res =  0.1366E+01
 MRCHDU: Convergence failed at  74  side 1    Res =  0.2057E+01
 MRCHDU: Convergence failed at  75  side 1    Res =  0.2539E+01
 MRCHDU: Convergence failed at  76  side 1    Res =  0.2851E+01
 MRCHDU: Convergence failed at  77  side 1    Res =  0.2975E+01
 MRCHDU: Convergence failed at  78  side 1    Res =  0.3570E+01
 Side 1  free  transition at x/c =  0.8903   70
 Side 2  free  transition at x/c =  0.1922   34

   8   rms: 0.2745E+00   max: -.1083E+01   D at   81  2   RLX: 0.461
       a = -2.500      CL = -0.0004
      Cm = -0.0801     CD =  0.01244   =>   CDf =  0.00813    CDp =  0.00431

 Side 1  free  transition at x/c =  0.8840   70
 Side 2  free  transition at x/c =  0.1848   33

   9   rms: 0.1775E+00   max: 0.7318E+00   D at   78  1   RLX: 0.751
       a = -2.500      CL =  0.1026
      Cm = -0.0962     CD =  0.01543   =>   CDf =  0.00850    CDp =  0.00692

 Side 1  free  transition at x/c =  0.8901   70
 Side 2  free  transition at x/c =  0.2018   34

  10   rms: 0.7904E-01   max: 0.6460E+00   C at   34  2
       a = -2.500      CL =  0.1028
      Cm = -0.0938     CD =  0.01754   =>   CDf =  0.00822    CDp =  0.00932

 Side 1  free  transition at x/c =  0.8822   69
 Side 2  free  transition at x/c =  0.1971   34

  11   rms: 0.5243E-01   max: -.3350E+00   T at   69  1
       a = -2.500      CL =  0.1345
      Cm = -0.0989     CD =  0.01705   =>   CDf =  0.00836    CDp =  0.00870

 Side 1  free  transition at x/c =  0.9009   71
 Side 2  free  transition at x/c =  0.2012   34

  12   rms: 0.4556E-01   max: 0.4553E+00   D at   71  1
       a = -2.500      CL =  0.1344
      Cm = -0.0996     CD =  0.01713   =>   CDf =  0.00843    CDp =  0.00869

 Side 1  free  transition at x/c =  0.8945   70
 Side 2  free  transition at x/c =  0.2010   34

  13   rms: 0.1045E+00   max: 0.6336E+00   T at   70  1
       a = -2.500      CL =  0.0582
      Cm = -0.0857     CD =  0.01898   =>   CDf =  0.00841    CDp =  0.01057

 Side 1  free  transition at x/c =  0.8669   68
 Side 2  free  transition at x/c =  0.1851   33
 idif Ue xi dudx           1  0.13989647      2.34031677E-03   59.776722    
 Uenew xinew           2  1.47506967E-02  2.46763229E-04

  14   rms: 0.6463E+00   max: 0.4799E+01   T at   68  1   RLX: 0.166
       a = -2.500      CL = -0.0206
      Cm = -0.0719     CD =  0.02319   =>   CDf =  0.00853    CDp =  0.01466

 Side 1  free  transition at x/c =  0.8417   66
 Side 2  free  transition at x/c =  0.1694   33

  15   rms: 0.1857E+00   max: -.1110E+01   T at   33  2   RLX: 0.451
       a = -2.500      CL =  0.0308
      Cm = -0.0787     CD =  0.02398   =>   CDf =  0.00855    CDp =  0.01543

 MRCHDU: Convergence failed at  34  side 2    Res =  0.1423E+01
 MRCHDU: Convergence failed at  35  side 2    Res =  0.2637E+01
 MRCHDU: Convergence failed at  36  side 2    Res =  0.1597E+01
 MRCHDU: Convergence failed at  37  side 2    Res =  0.3036E+01
 MRCHDU: Convergence failed at  38  side 2    Res =  0.5452E+01
 MRCHDU: Convergence failed at  39  side 2    Res =  0.1345E+02
 MRCHDU: Convergence failed at  40  side 2    Res =  0.5600E+02
 MRCHDU: Convergence failed at  41  side 2    Res =  0.5849E+02
 MRCHDU: Convergence failed at  42  side 2    Res =  0.2382E+02
 MRCHDU: Convergence failed at  43  side 2    Res =  0.1713E+02
 MRCHDU: Convergence failed at  44  side 2    Res =  0.1450E+02
 MRCHDU: Convergence failed at  45  side 2    Res =  0.1333E+02
 MRCHDU: Convergence failed at  46  side 2    Res =  0.1278E+02
 MRCHDU: Convergence failed at  47  side 2    Res =  0.1268E+02
 MRCHDU: Convergence failed at  48  side 2    Res =  0.1289E+02
 MRCHDU: Convergence failed at  49  side 2    Res =  0.1312E+02
 MRCHDU: Convergence failed at  50  side 2    Res =  0.1363E+02
 MRCHDU: Convergence failed at  51  side 2    Res =  0.1425E+02
 MRCHDU: Convergence failed at  52  side 2    Res =  0.1466E+02
 MRCHDU: Convergence failed at  53  side 2    Res =  0.1552E+02
 MRCHDU: Convergence failed at  54  side 2    Res =  0.1641E+02
 MRCHDU: Convergence failed at  55  side 2    Res =  0.1760E+02
 MRCHDU: Convergence failed at  56  side 2    Res =  0.1884E+02
 MRCHDU: Convergence failed at  57  side 2    Res =  0.2025E+02
 MRCHDU: Convergence failed at  58  side 2    Res =  0.2180E+02
 MRCHDU: Convergence failed at  59  side 2    Res =  0.2385E+02
 MRCHDU: Convergence failed at  60  side 2    Res =  0.2634E+02
 MRCHDU: Convergence failed at  61  side 2    Res =  0.2903E+02
 MRCHDU: Convergence failed at  62  side 2    Res =  0.3275E+02
 MRCHDU: Convergence failed at  63  side 2    Res =  0.3758E+02
 MRCHDU: Convergence failed at  64  side 2    Res =  0.4385E+02
 MRCHDU: Convergence failed at  65  side 2    Res =  0.5251E+02
 MRCHDU: Convergence failed at  66  side 2    Res =  0.6453E+02
 MRCHDU: Convergence failed at  67  side 2    Res =  0.8783E+02
 MRCHDU: Convergence failed at  68  side 2    Res =  0.1335E+03
 MRCHDU: Convergence failed at  69  side 2    Res =  0.2477E+03
 MRCHDU: Convergence failed at  70  side 2    Res =  0.1506E+04
 MRCHDU: Convergence failed at  71  side 2    Res =  0.3321E+03
 MRCHDU: Convergence failed at  72  side 2    Res =  0.1381E+03
 MRCHDU: Convergence failed at  73  side 2    Res =  0.9185E+02
 MRCHDU: Convergence failed at  74  side 2    Res =  0.6936E+02
 MRCHDU: Convergence failed at  75  side 2    Res =  0.5584E+02
 MRCHDU: Convergence failed at  76  side 2    Res =  0.4542E+02
 MRCHDU: Convergence failed at  77  side 2    Res =  0.3873E+02
 MRCHDU: Convergence failed at  78  side 2    Res =  0.3228E+02
 MRCHDU: Convergence failed at  79  side 2    Res =  0.2419E+02
 MRCHDU: Convergence failed at  80  side 2    Res =  0.1740E+02
 MRCHDU: Convergence failed at  81  side 2    Res =  0.1286E+02
 MRCHDU: Convergence failed at  82  side 2    Res =  0.1031E+02
 MRCHDU: Convergence failed at  83  side 2    Res =  0.7834E+01
 MRCHDU: Convergence failed at  84  side 2    Res =  0.7876E+01
 Side 1  free  transition at x/c =  0.8579   68
 Side 2  free  transition at x/c =  0.1847   33

  16   rms: 0.3127E+00   max: -.3082E+00   U at   84  2   RLX: 0.868
       a = -2.500      CL =  0.0807
      Cm = -0.0809     CD =  0.01533   =>   CDf =  0.00421    CDp =  0.01112

 Side 1  free  transition at x/c =  0.8791   69
 Side 2  free  transition at x/c =  0.2019   34

  17   rms: 0.6778E-01   max: -.2976E+00   D at   74  1
       a = -2.500      CL =  0.1120
      Cm = -0.0950     CD =  0.01746   =>   CDf =  0.00859    CDp =  0.00886

 Side 1  free  transition at x/c =  0.8891   70
 Side 2  free  transition at x/c =  0.1973   34

  18   rms: 0.2753E-01   max: 0.2234E+00   D at   72  1
       a = -2.500      CL =  0.1096
      Cm = -0.0950     CD =  0.01776   =>   CDf =  0.00840    CDp =  0.00937

 Side 1  free  transition at x/c =  0.8843   70
 Side 2  free  transition at x/c =  0.1956   34

  19   rms: 0.1050E-02   max: -.1168E-01   D at   70  1
       a = -2.500      CL =  0.1092
      Cm = -0.0949     CD =  0.01778   =>   CDf =  0.00840    CDp =  0.00939

 Side 1  free  transition at x/c =  0.8841   70
 Side 2  free  transition at x/c =  0.1956   34

  20   rms: 0.1469E-04   max: -.1390E-03   D at   71  1
       a = -2.500      CL =  0.1092
      Cm = -0.0949     CD =  0.01778   =>   CDf =  0.00840    CDp =  0.00939
 plradd ia,ip,cpol            4           0  1.88126843E-02

 Point added to stored polar  1
 Point written to save file  goe693_Re150k.base.pol                          
 Dump file unspecified or not available
 Calculating wake trajectory ...
 Calculating source influence matrix ...

 Solving BL system ...

 Side 1  free  transition at x/c =  0.8841   70
 Side 2  free  transition at x/c =  0.1956   34

   1   rms: 0.1063E+00   max: -.8161E+00   T at   34  2   RLX: 0.613
       a = -2.000      CL =  0.1519
      Cm = -0.0964     CD =  0.01721   =>   CDf =  0.00843    CDp =  0.00878

 Side 1  free  transition at x/c =  0.8806   70
 Side 2  free  transition at x/c =  0.2133   34

   2   rms: 0.7011E-01   max: 0.5855E+00   T at   70  1
       a = -2.000      CL =  0.1267
      Cm = -0.0885     CD =  0.01841   =>   CDf =  0.00837    CDp =  0.01004

 Side 1  free  transition at x/c =  0.8558   69
 Side 2  free  transition at x/c =  0.2138   34

   3   rms: 0.8162E-01   max: -.4414E+00   D at   75  1
       a = -2.000      CL =  0.1654
      Cm = -0.0944     CD =  0.01697   =>   CDf =  0.00832    CDp =  0.00865

 Side 1  free  transition at x/c =  0.8750   70
 Side 2  free  transition at x/c =  0.2228   35

   4   rms: 0.1805E-01   max: 0.1432E+00   D at   73  1
       a = -2.000      CL =  0.1644
      Cm = -0.0947     CD =  0.01718   =>   CDf =  0.00840    CDp =  0.00877

 Side 1  free  transition at x/c =  0.8707   70
 Side 2  free  transition at x/c =  0.2232   35

   5   rms: 0.2009E-02   max: -.1441E-01   D at   71  1
       a = -2.000      CL =  0.1651
      Cm = -0.0949     CD =  0.01715   =>   CDf =  0.00833    CDp =  0.00882

 Side 1  free  transition at x/c =  0.8711   70
 Side 2  free  transition at x/c =  0.2232   35

   6   rms: 0.1351E-04   max: 0.1096E-03   D at   35  2
       a = -2.000      CL =  0.1651
      Cm = -0.0949     CD =  0.01715   =>   CDf =  0.00833    CDp =  0.00882
 plradd ia,ip,cpol            5           0  1.88126843E-02

 Point added to stored polar  1
 Point written to save file  goe693_Re150k.base.pol                          
 Dump file unspecified or not available
 Calculating wake trajectory ...
 Calculating source influence matrix ...

 Solving BL system ...

 Side 1  free  transition at x/c =  0.8711   70
 Side 2  free  transition at x/c =  0.2232   35

   1   rms: 0.1202E+00   max: -.9593E+00   T at   35  2   RLX: 0.521
       a = -1.500      CL =  0.1980
      Cm = -0.0955     CD =  0.01645   =>   CDf =  0.00833    CDp =  0.00812

 Side 1  free  transition at x/c =  0.8666   69
 Side 2  free  transition at x/c =  0.2372   35

   2   rms: 0.7663E-01   max: 0.5246E+00   T at   69  1
       a = -1.500      CL =  0.1950
      Cm = -0.0905     CD =  0.01832   =>   CDf =  0.00862    CDp =  0.00970

 MRCHDU: Convergence failed at  36  side 2    Res =  0.4809E+01
 MRCHDU: Convergence failed at  37  side 2    Res =  0.3677E+01
 MRCHDU: Convergence failed at  38  side 2    Res =  0.1028E+02
 MRCHDU: Convergence failed at  39  side 2    Res =  0.3517E+02
 MRCHDU: Convergence failed at  40  side 2    Res =  0.4653E+03
 MRCHDU: Convergence failed at  41  side 2    Res =  0.3222E+03
 MRCHDU: Convergence failed at  42  side 2    Res =  0.4788E+03
 MRCHDU: Convergence failed at  43  side 2    Res =  0.8971E+02
 MRCHDU: Convergence failed at  44  side 2    Res =  0.4585E+02
 MRCHDU: Convergence failed at  45  side 2    Res =  0.3077E+02
 MRCHDU: Convergence failed at  46  side 2    Res =  0.2074E+02
 MRCHDU: Convergence failed at  47  side 2    Res =  0.1821E+02
 MRCHDU: Convergence failed at  48  side 2    Res =  0.2147E+02
 MRCHDU: Convergence failed at  49  side 2    Res =  0.1845E+02
 MRCHDU: Convergence failed at  50  side 2    Res =  0.1569E+02
 MRCHDU: Convergence failed at  51  side 2    Res =  0.1385E+02
 MRCHDU: Convergence failed at  52  side 2    Res =  0.1257E+02
 MRCHDU: Convergence failed at  53  side 2    Res =  0.1144E+02
 MRCHDU: Convergence failed at  54  side 2    Res =  0.1069E+02
 MRCHDU: Convergence failed at  55  side 2    Res =  0.1007E+02
 MRCHDU: Convergence failed at  56  side 2    Res =  0.9578E+01
 MRCHDU: Convergence failed at  57  side 2    Res =  0.9165E+01
 MRCHDU: Convergence failed at  58  side 2    Res =  0.8781E+01
 MRCHDU: Convergence failed at  59  side 2    Res =  0.8482E+01
 MRCHDU: Convergence failed at  60  side 2    Res =  0.8226E+01
 MRCHDU: Convergence failed at  61  side 2    Res =  0.8007E+01
 MRCHDU: Convergence failed at  62  side 2    Res =  0.7800E+01
 MRCHDU: Convergence failed at  63  side 2    Res =  0.7643E+01
 MRCHDU: Convergence failed at  64  side 2    Res =  0.7504E+01
 MRCHDU: Convergence failed at  65  side 2    Res =  0.7382E+01
 MRCHDU: Convergence failed at  66  side 2    Res =  0.7271E+01
 MRCHDU: Convergence failed at  67  side 2    Res =  0.7186E+01
 MRCHDU: Convergence failed at  68  side 2    Res =  0.7105E+01
 MRCHDU: Convergence failed at  69  side 2    Res =  0.7033E+01
 MRCHDU: Convergence failed at  70  side 2    Res =  0.6962E+01
 MRCHDU: Convergence failed at  71  side 2    Res =  0.6893E+01
 MRCHDU: Convergence failed at  72  side 2    Res =  0.6865E+01
 MRCHDU: Convergence failed at  73  side 2    Res =  0.6809E+01
 MRCHDU: Convergence failed at  74  side 2    Res =  0.6773E+01
 MRCHDU: Convergence failed at  75  side 2    Res =  0.6738E+01
 MRCHDU: Convergence failed at  76  side 2    Res =  0.6681E+01
 MRCHDU: Convergence failed at  77  side 2    Res =  0.6575E+01
 MRCHDU: Convergence failed at  78  side 2    Res =  0.6378E+01
 MRCHDU: Convergence failed at  79  side 2    Res =  0.6137E+01
 MRCHDU: Convergence failed at  80  side 2    Res =  0.5494E+01
 MRCHDU: Convergence failed at  81  side 2    Res =  0.6009E+01
 MRCHDU: Convergence failed at  82  side 2    Res =  0.6211E+01
 Side 1  free  transition at x/c =  0.8441   69
 Side 2  free  transition at x/c =  0.2589   36

   3   rms: 0.3098E+00   max: -.1114E+01   D at   47  2   RLX: 0.449
       a = -1.500      CL =  0.1238
      Cm = -0.0527     CD =  0.01445   =>   CDf =  0.00445    CDp =  0.01000

 Side 1  free  transition at x/c =  0.8557   70
 Side 2  free  transition at x/c =  0.2865   37

   4   rms: 0.9955E-01   max: -.1009E+01   C at   37  2   RLX: 0.496
       a = -1.500      CL =  0.1747
      Cm = -0.0750     CD =  0.01557   =>   CDf =  0.00878    CDp =  0.00679

 Side 1  free  transition at x/c =  0.8565   70
 Side 2  free  transition at x/c =  0.2709   37

   5   rms: 0.4768E-01   max: -.5672E+00   D at   38  2   RLX: 0.881
       a = -1.500      CL =  0.2142
      Cm = -0.0920     CD =  0.01624   =>   CDf =  0.00841    CDp =  0.00783

 Side 1  free  transition at x/c =  0.8575   70
 Side 2  free  transition at x/c =  0.2691   36

   6   rms: 0.1177E-01   max: -.1821E+00   D at   38  2
       a = -1.500      CL =  0.2208
      Cm = -0.0946     CD =  0.01636   =>   CDf =  0.00812    CDp =  0.00824

 Side 1  free  transition at x/c =  0.8578   70
 Side 2  free  transition at x/c =  0.2664   36

   7   rms: 0.8786E-03   max: -.2061E-01   D at   38  2
       a = -1.500      CL =  0.2209
      Cm = -0.0946     CD =  0.01636   =>   CDf =  0.00809    CDp =  0.00826

 Side 1  free  transition at x/c =  0.8578   70
 Side 2  free  transition at x/c =  0.2663   36

   8   rms: 0.1145E-04   max: -.2564E-03   D at   38  2
       a = -1.500      CL =  0.2209
      Cm = -0.0946     CD =  0.01636   =>   CDf =  0.00809    CDp =  0.00826
 plradd ia,ip,cpol            6           0  1.88126843E-02

 Point added to stored polar  1
 Point written to save file  goe693_Re150k.base.pol                          
 Dump file unspecified or not available
 Calculating wake trajectory ...
 Calculating source influence matrix ...

 Solving BL system ...

 Side 1  free  transition at x/c =  0.8578   70
 Side 2  free  transition at x/c =  0.2663   36

   1   rms: 0.1186E+00   max: -.9300E+00   T at   36  2   RLX: 0.538
       a = -1.000      CL =  0.2538
      Cm = -0.0948     CD =  0.01582   =>   CDf =  0.00810    CDp =  0.00773

 Side 1  free  transition at x/c =  0.8515   69
 Side 2  free  transition at x/c =  0.3177   39

   2   rms: 0.8228E-01   max: -.8469E+00   T at   39  2   RLX: 0.590
       a = -1.000      CL =  0.2591
      Cm = -0.0932     CD =  0.01605   =>   CDf =  0.00802    CDp =  0.00803

 MRCHDU: Convergence failed at  41  side 2    Res =  0.3227E+01
 MRCHDU: Convergence failed at  42  side 2    Res =  0.8182E+00
 MRCHDU: Convergence failed at  43  side 2    Res =  0.1097E+01
 MRCHDU: Convergence failed at  44  side 2    Res =  0.1163E+01
 MRCHDU: Convergence failed at  45  side 2    Res =  0.1152E+01
 MRCHDU: Convergence failed at  46  side 2    Res =  0.1120E+01
 MRCHDU: Convergence failed at  47  side 2    Res =  0.1092E+01
 Side 1  free  transition at x/c =  0.8414   69
 Side 2  free  transition at x/c =  0.5590   54

   3   rms: 0.2088E+00   max: -.3306E+01   C at   54  2   RLX: 0.151
       a = -1.000      CL =  0.2354
      Cm = -0.0871     CD =  0.01527   =>   CDf =  0.00689    CDp =  0.00838

 Side 1  free  transition at x/c =  0.8417   69
 Side 2  free  transition at x/c =  0.5717   55

   4   rms: 0.1544E+00   max: -.2431E+01   C at   55  2   RLX: 0.206
       a = -1.000      CL =  0.2431
      Cm = -0.0887     CD =  0.01497   =>   CDf =  0.00690    CDp =  0.00807

 Side 1  free  transition at x/c =  0.8421   69
 Side 2  free  transition at x/c =  0.5845   56

   5   rms: 0.1311E+00   max: -.2054E+01   C at   56  2   RLX: 0.243
       a = -1.000      CL =  0.2483
      Cm = -0.0896     CD =  0.01477   =>   CDf =  0.00681    CDp =  0.00795

 Side 1  free  transition at x/c =  0.8424   69
 Side 2  free  transition at x/c =  0.5979   56

   6   rms: 0.7822E-01   max: -.1184E+01   C at   56  2   RLX: 0.422
       a = -1.000      CL =  0.2555
      Cm = -0.0907     CD =  0.01453   =>   CDf =  0.00668    CDp =  0.00785

 Side 1  free  transition at x/c =  0.8429   69
 Side 2  free  transition at x/c =  0.6273   58

   7   rms: 0.3464E-01   max: -.4337E+00   C at   58  2
       a = -1.000      CL =  0.2644
      Cm = -0.0917     CD =  0.01413   =>   CDf =  0.00642    CDp =  0.00771

 Side 1  free  transition at x/c =  0.8436   70
 Side 2  free  transition at x/c =  0.6025   56

   8   rms: 0.1420E-01   max: -.2346E+00   T at    2  1
       a = -1.000      CL =  0.2669
      Cm = -0.0924     CD =  0.01434   =>   CDf =  0.00653    CDp =  0.00781

 Side 1  free  transition at x/c =  0.8435   70
 Side 2  free  transition at x/c =  0.5935   55

   9   rms: 0.1084E-02   max: -.1397E-01   D at    4  1
       a = -1.000      CL =  0.2670
      Cm = -0.0924     CD =  0.01435   =>   CDf =  0.00655    CDp =  0.00780

 Side 1  free  transition at x/c =  0.8435   70
 Side 2  free  transition at x/c =  0.5932   55

  10   rms: 0.7658E-05   max: -.8450E-04   D at    4  1
       a = -1.000      CL =  0.2670
      Cm = -0.0924     CD =  0.01435   =>   CDf =  0.00655    CDp =  0.00780
 plradd ia,ip,cpol            7           0  1.88126843E-02

 Point added to stored polar  1
 Point written to save file  goe693_Re150k.base.pol                          
 Dump file unspecified or not available
 Calculating wake trajectory ...
 Calculating source influence matrix ...

 Solving BL system ...

 Side 1  free  transition at x/c =  0.8435   70
 Side 2  free  transition at x/c =  0.5932   55

   1   rms: 0.9215E+00   max: -.1433E+02   C at   55  2   RLX: 0.035
       a = -0.500      CL =  0.2677
      Cm = -0.0921     CD =  0.01422   =>   CDf =  0.00655    CDp =  0.00767

 Side 1  free  transition at x/c =  0.8430   70
 Side 2  free  transition at x/c =  0.6301   57

   2   rms: 0.7354E+00   max: -.1124E+02   C at   57  2   RLX: 0.044
       a = -0.500      CL =  0.2691
      Cm = -0.0917     CD =  0.01408   =>   CDf =  0.00641    CDp =  0.00767

 Side 1  free  transition at x/c =  0.8425   70
 Side 2  free  transition at x/c =  0.6906   61

   3   rms: 0.7530E+00   max: -.1142E+02   C at   61  2   RLX: 0.044
       a = -0.500      CL =  0.2692
      Cm = -0.0907     CD =  0.01388   =>   CDf =  0.00618    CDp =  0.00770

 Side 1  free  transition at x/c =  0.8420   70
 Side 2  free  transition at x/c =  0.7398   64

   4   rms: 0.4460E+00   max: -.6689E+01   C at   64  2   RLX: 0.075
       a = -0.500      CL =  0.2715
      Cm = -0.0900     CD =  0.01373   =>   CDf =  0.00602    CDp =  0.00771

 Side 1  free  transition at x/c =  0.8413   70
 Side 2  free  transition at x/c =  0.8264   69

   5   rms: 0.1115E+01   max: -.1577E+02   C at   69  2   RLX: 0.032
       a = -0.500      CL =  0.2745
      Cm = -0.0890     CD =  0.01356   =>   CDf =  0.00580    CDp =  0.00776

 Side 1  free  transition at x/c =  0.8413   70
 Side 2  free  transition at x/c =  0.8741   72

   6   rms: 0.2583E+00   max: -.2497E+01   C at   72  2   RLX: 0.200
       a = -0.500      CL =  0.2970
      Cm = -0.0909     CD =  0.01337   =>   CDf =  0.00570    CDp =  0.00766

 Side 1  free  transition at x/c =  0.8402   70
 Side 2 forced transition at x/c =  1.0000   81

   7   rms: 0.1122E+00   max: 0.6028E+00   C at   81  2
       a = -0.500      CL =  0.3815
      Cm = -0.1015     CD =  0.01291   =>   CDf =  0.00582    CDp =  0.00709

 Side 1  free  transition at x/c =  0.8344   70
 Side 2 forced transition at x/c =  1.0000   80

   8   rms: 0.1882E-01   max: 0.1478E+00   C at   80  2
       a = -0.500      CL =  0.3812
      Cm = -0.1017     CD =  0.01327   =>   CDf =  0.00599    CDp =  0.00728

 Side 1  free  transition at x/c =  0.8311   70
 Side 2 forced transition at x/c =  1.0000   80

   9   rms: 0.3387E-02   max: -.2125E-01   D at   72  1
       a = -0.500      CL =  0.3830
      Cm = -0.1019     CD =  0.01323   =>   CDf =  0.00593    CDp =  0.00731

 Side 1  free  transition at x/c =  0.8319   70
 Side 2 forced transition at x/c =  1.0000   80

  10   rms: 0.9839E-04   max: -.6414E-03   D at   72  1
       a = -0.500      CL =  0.3831
      Cm = -0.1020     CD =  0.01323   =>   CDf =  0.00592    CDp =  0.00731
 plradd ia,ip,cpol            8           0  0.22779311    

 Point added to stored polar  1
 Point written to save file  goe693_Re150k.base.pol                          
 Dump file unspecified or not available
 Calculating wake trajectory ...
 Calculating source influence matrix ...

 Solving BL system ...

 Side 1  free  transition at x/c =  0.8319   70
 Side 2 forced transition at x/c =  1.0000   80

   1   rms: 0.8544E-01   max: -.2048E+00   n at   79  2
       a =  0.000      CL =  0.4262
      Cm = -0.0993     CD =  0.01337   =>   CDf =  0.00593    CDp =  0.00744

 Side 1  free  transition at x/c =  0.8135   69
 Side 2 forced transition at x/c =  1.0000   80

   2   rms: 0.1708E-01   max: -.1715E+00   D at   69  1
       a =  0.000      CL =  0.4333
      Cm = -0.1004     CD =  0.01316   =>   CDf =  0.00621    CDp =  0.00695

 Side 1  free  transition at x/c =  0.8163   69
 Side 2 forced transition at x/c =  1.0000   80

   3   rms: 0.2774E-02   max: 0.2448E-01   D at   71  1
       a =  0.000      CL =  0.4321
      Cm = -0.1002     CD =  0.01324   =>   CDf =  0.00619    CDp =  0.00705

 Side 1  free  transition at x/c =  0.8155   69
 Side 2 forced transition at x/c =  1.0000   80

   4   rms: 0.7747E-04   max: -.6069E-03   D at   71  1
       a =  0.000      CL =  0.4321
      Cm = -0.1002     CD =  0.01324   =>   CDf =  0.00618    CDp =  0.00705
 plradd ia,ip,cpol            9           0  0.22779311    

 Point added to stored polar  1
 Point written to save file  goe693_Re150k.base.pol                          
 Dump file unspecified or not available
 Calculating wake trajectory ...
 Calculating source influence matrix ...

 Solving BL system ...

 Side 1  free  transition at x/c =  0.8155   69
 Side 2 forced transition at x/c =  1.0000   80

   1   rms: 0.7946E-01   max: -.1381E+00   n at   79  2
       a =  0.500      CL =  0.4790
      Cm = -0.0985     CD =  0.01346   =>   CDf =  0.00622    CDp =  0.00724

 Side 1  free  transition at x/c =  0.7988   69
 Side 2 forced transition at x/c =  1.0000   79

   2   rms: 0.1772E-01   max: -.1585E+00   D at   69  1
       a =  0.500      CL =  0.4827
      Cm = -0.0988     CD =  0.01329   =>   CDf =  0.00641    CDp =  0.00688

 Side 1  free  transition at x/c =  0.8012   69
 Side 2 forced transition at x/c =  1.0000   79

   3   rms: 0.2307E-02   max: 0.2207E-01   D at   71  1
       a =  0.500      CL =  0.4819
      Cm = -0.0987     CD =  0.01335   =>   CDf =  0.00639    CDp =  0.00696

 Side 1  free  transition at x/c =  0.8006   69
 Side 2 forced transition at x/c =  1.0000   79

   4   rms: 0.4203E-04   max: -.3442E-03   D at   70  1
       a =  0.500      CL =  0.4819
      Cm = -0.0987     CD =  0.01335   =>   CDf =  0.00639    CDp =  0.00696
 plradd ia,ip,cpol           10           0  0.22779311    

 Point added to stored polar  1
 Point written to save file  goe693_Re150k.base.pol                          
 Dump file unspecified or not available
 Calculating wake trajectory ...
 Calculating source influence matrix ...

 Solving BL system ...

 Side 1  free  transition at x/c =  0.8006   69
 Side 2 forced transition at x/c =  1.0000   79

   1   rms: 0.7763E-01   max: -.1437E+00   C at   79  2
       a =  1.000      CL =  0.5273
      Cm = -0.0967     CD =  0.01364   =>   CDf =  0.00641    CDp =  0.00723

 Side 1  free  transition at x/c =  0.7805   69
 Side 2 forced transition at x/c =  1.0000   78

   2   rms: 0.2520E-01   max: -.2134E+00   D at   69  1
       a =  1.000      CL =  0.5328
      Cm = -0.0972     CD =  0.01336   =>   CDf =  0.00658    CDp =  0.00678

 Side 1  free  transition at x/c =  0.7846   69
 Side 2 forced transition at x/c =  1.0000   78

   3   rms: 0.3472E-02   max: 0.3599E-01   D at   71  1
       a =  1.000      CL =  0.5316
      Cm = -0.0971     CD =  0.01344   =>   CDf =  0.00657    CDp =  0.00687

 Side 1  free  transition at x/c =  0.7837   69
 Side 2 forced transition at x/c =  1.0000   78

   4   rms: 0.8065E-04   max: -.7475E-03   D at   70  1
       a =  1.000      CL =  0.5317
      Cm = -0.0971     CD =  0.01343   =>   CDf =  0.00657    CDp =  0.00687
 plradd ia,ip,cpol           11           0  0.21404360    

 Point added to stored polar  1
 Point written to save file  goe693_Re150k.base.pol                          
 Dump file unspecified or not available
 Calculating wake trajectory ...
 Calculating source influence matrix ...

 Solving BL system ...

 Side 1  free  transition at x/c =  0.7837   69
 Side 2 forced transition at x/c =  1.0000   78

   1   rms: 0.7978E-01   max: -.1286E+00   C at   78  2
       a =  1.500      CL =  0.5793
      Cm = -0.0952     CD =  0.01360   =>   CDf =  0.00657    CDp =  0.00703

 Side 1  free  transition at x/c =  0.7638   69
 Side 2 forced transition at x/c =  1.0000   77

   2   rms: 0.1990E-01   max: -.2047E+00   D at   69  1
       a =  1.500      CL =  0.5828
      Cm = -0.0956     CD =  0.01346   =>   CDf =  0.00674    CDp =  0.00672

 Side 1  free  transition at x/c =  0.7663   69
 Side 2 forced transition at x/c =  1.0000   77

   3   rms: 0.2443E-02   max: 0.2332E-01   D at   71  1
       a =  1.500      CL =  0.5819
      Cm = -0.0955     CD =  0.01352   =>   CDf =  0.00671    CDp =  0.00680

 Side 1  free  transition at x/c =  0.7656   69
 Side 2 forced transition at x/c =  1.0000   77

   4   rms: 0.3091E-04   max: -.3033E-03   D at   70  1
       a =  1.500      CL =  0.5819
      Cm = -0.0955     CD =  0.01351   =>   CDf =  0.00672    CDp =  0.00680
 plradd ia,ip,cpol           12           0  0.11393616    

 Point added to stored polar  1
 Point written to save file  goe693_Re150k.base.pol                          
 Dump file unspecified or not available
 Calculating wake trajectory ...
 Calculating source influence matrix ...

 Solving BL system ...

 Side 1  free  transition at x/c =  0.7656   69
 Side 2 forced transition at x/c =  1.0000   77

   1   rms: 0.8783E-01   max: -.1885E+00   n at   76  2
       a =  2.000      CL =  0.6329
      Cm = -0.0939     CD =  0.01357   =>   CDf =  0.00672    CDp =  0.00685

 Side 1  free  transition at x/c =  0.7498   68
 Side 2 forced transition at x/c =  1.0000   77

   2   rms: 0.8046E-02   max: -.1336E+00   D at   68  1
       a =  2.000      CL =  0.6325
      Cm = -0.0940     CD =  0.01368   =>   CDf =  0.00685    CDp =  0.00683

 Side 1  free  transition at x/c =  0.7482   68
 Side 2 forced transition at x/c =  1.0000   77

   3   rms: 0.9943E-03   max: -.8321E-02   D at   69  1
       a =  2.000      CL =  0.6329
      Cm = -0.0941     CD =  0.01366   =>   CDf =  0.00684    CDp =  0.00683

 Side 1  free  transition at x/c =  0.7484   68
 Side 2 forced transition at x/c =  1.0000   77

   4   rms: 0.9015E-05   max: -.7476E-04   D at    4  2
       a =  2.000      CL =  0.6329
      Cm = -0.0941     CD =  0.01366   =>   CDf =  0.00684    CDp =  0.00683
 plradd ia,ip,cpol           13           0  0.11393616    

 Point added to stored polar  1
 Point written to save file  goe693_Re150k.base.pol                          
 Dump file unspecified or not available
 Calculating wake trajectory ...
 Calculating source influence matrix ...

 Solving BL system ...

 Side 1  free  transition at x/c =  0.7484   68
 Side 2 forced transition at x/c =  1.0000   77

   1   rms: 0.7964E-01   max: -.9686E-01   C at   77  2
       a =  2.500      CL =  0.6856
      Cm = -0.0929     CD =  0.01376   =>   CDf =  0.00680    CDp =  0.00696

 Side 1  free  transition at x/c =  0.7333   68
 Side 2 forced transition at x/c =  1.0000   76

   2   rms: 0.9387E-02   max: -.1378E+00   D at   68  1
       a =  2.500      CL =  0.6837
      Cm = -0.0928     CD =  0.01389   =>   CDf =  0.00692    CDp =  0.00696

 Side 1  free  transition at x/c =  0.7311   68
 Side 2 forced transition at x/c =  1.0000   76

   3   rms: 0.1786E-02   max: -.1521E-01   D at   69  1
       a =  2.500      CL =  0.6843
      Cm = -0.0928     CD =  0.01386   =>   CDf =  0.00692    CDp =  0.00694

 Side 1  free  transition at x/c =  0.7315   68
 Side 2 forced transition at x/c =  1.0000   76

   4   rms: 0.1380E-04   max: -.1184E-03   D at   68  1
       a =  2.500      CL =  0.6843
      Cm = -0.0928     CD =  0.01386   =>   CDf =  0.00691    CDp =  0.00695
 plradd ia,ip,cpol           14           0  0.10208405    

 Point added to stored polar  1
 Point written to save file  goe693_Re150k.base.pol                          
 Dump file unspecified or not available
 Calculating wake trajectory ...
 Calculating source influence matrix ...

 Solving BL system ...

 Side 1  free  transition at x/c =  0.7315   68
 Side 2 forced transition at x/c =  1.0000   76

   1   rms: 0.8015E-01   max: -.8684E-01   C at   76  2
       a =  3.000      CL =  0.7382
      Cm = -0.0919     CD =  0.01394   =>   CDf =  0.00686    CDp =  0.00708

 Side 1  free  transition at x/c =  0.7142   68
 Side 2 forced transition at x/c =  1.0000   75

   2   rms: 0.1475E-01   max: -.1902E+00   D at   68  1
       a =  3.000      CL =  0.7360
      Cm = -0.0916     CD =  0.01403   =>   CDf =  0.00697    CDp =  0.00706

 Side 1  free  transition at x/c =  0.7128   68
 Side 2 forced transition at x/c =  1.0000   75

   3   rms: 0.1445E-02   max: -.1129E-01   D at   68  1
       a =  3.000      CL =  0.7364
      Cm = -0.0916     CD =  0.01401   =>   CDf =  0.00699    CDp =  0.00702

 Side 1  free  transition at x/c =  0.7131   68
 Side 2 forced transition at x/c =  1.0000   75

   4   rms: 0.8801E-05   max: -.7952E-04   D at   72  1
       a =  3.000      CL =  0.7364
      Cm = -0.0916     CD =  0.01401   =>   CDf =  0.00699    CDp =  0.00703
 plradd ia,ip,cpol           15           0  0.10208405    

 Point added to stored polar  1
 Point written to save file  goe693_Re150k.base.pol                          
 Dump file unspecified or not available
 Calculating wake trajectory ...
 Calculating source influence matrix ...

 Solving BL system ...

 Side 1  free  transition at x/c =  0.7131   68
 Side 2 forced transition at x/c =  1.0000   75

   1   rms: 0.8661E-01   max: -.5768E-01   C at   75  2
       a =  3.500      CL =  0.7940
      Cm = -0.0910     CD =  0.01391   =>   CDf =  0.00691    CDp =  0.00700

 Side 1  free  transition at x/c =  0.6950   68
 Side 2 forced transition at x/c =  1.0000   74

   2   rms: 0.1994E-01   max: -.2127E+00   D at   68  1
       a =  3.500      CL =  0.7894
      Cm = -0.0904     CD =  0.01409   =>   CDf =  0.00699    CDp =  0.00710

 Side 1  free  transition at x/c =  0.6921   67
 Side 2 forced transition at x/c =  1.0000   74

   3   rms: 0.3285E-02   max: -.2911E-01   C at   67  1
       a =  3.500      CL =  0.7878
      Cm = -0.0902     CD =  0.01412   =>   CDf =  0.00707    CDp =  0.00705

 Side 1  free  transition at x/c =  0.6914   67
 Side 2 forced transition at x/c =  1.0000   74

   4   rms: 0.1250E-03   max: -.1013E-02   D at   69  1
       a =  3.500      CL =  0.7879
      Cm = -0.0902     CD =  0.01412   =>   CDf =  0.00705    CDp =  0.00707

 Side 1  free  transition at x/c =  0.6914   67
 Side 2 forced transition at x/c =  1.0000   74

   5   rms: 0.7520E-06   max: -.4035E-05   D at   81  1
       a =  3.500      CL =  0.7879
      Cm = -0.0902     CD =  0.01412   =>   CDf =  0.00705    CDp =  0.00707
 plradd ia,ip,cpol           16           0  0.10208405    

 Point added to stored polar  1
 Point written to save file  goe693_Re150k.base.pol                          
 Dump file unspecified or not available
 Calculating wake trajectory ...
 Calculating source influence matrix ...

 Solving BL system ...

 Side 1  free  transition at x/c =  0.6914   67
 Side 2 forced transition at x/c =  1.0000   74

   1   rms: 0.7814E-01   max: 0.4677E+00   T at   67  1
       a =  4.000      CL =  0.8281
      Cm = -0.0874     CD =  0.01457   =>   CDf =  0.00706    CDp =  0.00751

 Side 1  free  transition at x/c =  0.6618   65
 Side 2 forced transition at x/c =  1.0000   74

   2   rms: 0.4084E-01   max: -.3512E+00   D at   66  1
       a =  4.000      CL =  0.8438
      Cm = -0.0893     CD =  0.01426   =>   CDf =  0.00715    CDp =  0.00710

 Side 1  free  transition at x/c =  0.6757   66
 Side 2 forced transition at x/c =  1.0000   74

   3   rms: 0.3417E-01   max: 0.3250E+00   D at   67  1
       a =  4.000      CL =  0.8438
      Cm = -0.0895     CD =  0.01393   =>   CDf =  0.00690    CDp =  0.00703

 Side 1  free  transition at x/c =  0.6714   66
 Side 2 forced transition at x/c =  1.0000   74

   4   rms: 0.9860E-02   max: 0.7700E-01   D at   67  1
       a =  4.000      CL =  0.8379
      Cm = -0.0887     CD =  0.01428   =>   CDf =  0.00700    CDp =  0.00728

 Side 1  free  transition at x/c =  0.6674   66
 Side 2 forced transition at x/c =  1.0000   74

   5   rms: 0.1227E-02   max: -.1231E-01   D at   67  1
       a =  4.000      CL =  0.8381
      Cm = -0.0887     CD =  0.01427   =>   CDf =  0.00706    CDp =  0.00721

 Side 1  free  transition at x/c =  0.6677   66
 Side 2 forced transition at x/c =  1.0000   74

   6   rms: 0.7231E-05   max: 0.6686E-04   D at   67  1
       a =  4.000      CL =  0.8381
      Cm = -0.0887     CD =  0.01427   =>   CDf =  0.00706    CDp =  0.00722
 plradd ia,ip,cpol           17           0  0.10208405    

 Point added to stored polar  1
 Point written to save file  goe693_Re150k.base.pol                          
 Dump file unspecified or not available
 Calculating wake trajectory ...
 Calculating source influence matrix ...

 Solving BL system ...

 Side 1  free  transition at x/c =  0.6677   66
 Side 2 forced transition at x/c =  1.0000   74

   1   rms: 0.8287E-01   max: -.7631E-01   C at   74  2
       a =  4.500      CL =  0.8918
      Cm = -0.0876     CD =  0.01430   =>   CDf =  0.00694    CDp =  0.00735

 Side 1  free  transition at x/c =  0.6458   65
 Side 2 forced transition at x/c =  1.0000   73

   2   rms: 0.1918E-01   max: -.2322E+00   D at   66  1
       a =  4.500      CL =  0.8895
      Cm = -0.0873     CD =  0.01438   =>   CDf =  0.00705    CDp =  0.00733

 Side 1  free  transition at x/c =  0.6431   65
 Side 2 forced transition at x/c =  1.0000   73

   3   rms: 0.1280E-02   max: -.1436E-01   D at   66  1
       a =  4.500      CL =  0.8892
      Cm = -0.0873     CD =  0.01441   =>   CDf =  0.00707    CDp =  0.00733

 Side 1  free  transition at x/c =  0.6430   65
 Side 2 forced transition at x/c =  1.0000   73

   4   rms: 0.1214E-04   max: 0.2033E-03   D at   66  1
       a =  4.500      CL =  0.8892
      Cm = -0.0873     CD =  0.01441   =>   CDf =  0.00708    CDp =  0.00733
 plradd ia,ip,cpol           18           0  5.56982681E-02

 Point added to stored polar  1
 Point written to save file  goe693_Re150k.base.pol                          
 Dump file unspecified or not available
 Calculating wake trajectory ...
 Calculating source influence matrix ...

 Solving BL system ...

 Side 1  free  transition at x/c =  0.6430   65
 Side 2 forced transition at x/c =  1.0000   73

   1   rms: 0.7864E-01   max: 0.4594E+00   T at   65  1
       a =  5.000      CL =  0.9300
      Cm = -0.0845     CD =  0.01475   =>   CDf =  0.00694    CDp =  0.00782

 Side 1  free  transition at x/c =  0.6043   64
 Side 2 forced transition at x/c =  1.0000   72

   2   rms: 0.3838E-01   max: -.3962E+00   D at   65  1
       a =  5.000      CL =  0.9397
      Cm = -0.0857     CD =  0.01445   =>   CDf =  0.00719    CDp =  0.00727

 Side 1  free  transition at x/c =  0.6132   64
 Side 2 forced transition at x/c =  1.0000   72

   3   rms: 0.3271E-02   max: 0.2996E-01   D at   66  1
       a =  5.000      CL =  0.9382
      Cm = -0.0854     CD =  0.01450   =>   CDf =  0.00710    CDp =  0.00741

 Side 1  free  transition at x/c =  0.6114   64
 Side 2 forced transition at x/c =  1.0000   72

   4   rms: 0.2513E-03   max: -.2647E-02   D at   65  1
       a =  5.000      CL =  0.9383
      Cm = -0.0854     CD =  0.01450   =>   CDf =  0.00709    CDp =  0.00741

 Side 1  free  transition at x/c =  0.6115   64
 Side 2 forced transition at x/c =  1.0000   72

   5   rms: 0.3960E-05   max: -.1943E-04   D at   90  1
       a =  5.000      CL =  0.9383
      Cm = -0.0854     CD =  0.01450   =>   CDf =  0.00709    CDp =  0.00741
 plradd ia,ip,cpol           19           0  4.68760543E-02

 Point added to stored polar  1
 Point written to save file  goe693_Re150k.base.pol                          
 Dump file unspecified or not available
 Calculating wake trajectory ...
 Calculating source influence matrix ...

 Solving BL system ...

 Side 1  free  transition at x/c =  0.6115   64
 Side 2 forced transition at x/c =  1.0000   72

   1   rms: 0.7931E-01   max: 0.4584E+00   T at   64  1
       a =  5.500      CL =  0.9787
      Cm = -0.0826     CD =  0.01484   =>   CDf =  0.00710    CDp =  0.00774

 Side 1  free  transition at x/c =  0.5651   61
 Side 2 forced transition at x/c =  1.0000   72

   2   rms: 0.4420E-01   max: -.4773E+00   D at   63  1
       a =  5.500      CL =  0.9890
      Cm = -0.0838     CD =  0.01462   =>   CDf =  0.00727    CDp =  0.00736

 Side 1  free  transition at x/c =  0.5813   62
 Side 2 forced transition at x/c =  1.0000   72

   3   rms: 0.2978E-01   max: 0.3387E+00   C at   62  1
       a =  5.500      CL =  0.9868
      Cm = -0.0834     CD =  0.01445   =>   CDf =  0.00691    CDp =  0.00754

 Side 1  free  transition at x/c =  0.5756   62
 Side 2 forced transition at x/c =  1.0000   72

   4   rms: 0.5450E-02   max: -.5291E-01   D at   67  1
       a =  5.500      CL =  0.9851
      Cm = -0.0833     CD =  0.01465   =>   CDf =  0.00707    CDp =  0.00758

 Side 1  free  transition at x/c =  0.5727   62
 Side 2 forced transition at x/c =  1.0000   72

   5   rms: 0.5622E-03   max: -.5631E-02   D at   63  1
       a =  5.500      CL =  0.9852
      Cm = -0.0833     CD =  0.01466   =>   CDf =  0.00712    CDp =  0.00754

 Side 1  free  transition at x/c =  0.5729   62
 Side 2 forced transition at x/c =  1.0000   72

   6   rms: 0.7364E-05   max: 0.3566E-04   C at   72  2
       a =  5.500      CL =  0.9852
      Cm = -0.0833     CD =  0.01466   =>   CDf =  0.00712    CDp =  0.00754
 plradd ia,ip,cpol           20           0  4.68760543E-02

 Point added to stored polar  1
 Point written to save file  goe693_Re150k.base.pol                          
 Dump file unspecified or not available
 Calculating wake trajectory ...
 Calculating source influence matrix ...

 Solving BL system ...

 Side 1  free  transition at x/c =  0.5729   62
 Side 2 forced transition at x/c =  1.0000   72

   1   rms: 0.8634E-01   max: 0.4082E+00   T at   62  1
       a =  6.000      CL =  1.0330
      Cm = -0.0812     CD =  0.01478   =>   CDf =  0.00693    CDp =  0.00784

 Side 1  free  transition at x/c =  0.5370   61
 Side 2 forced transition at x/c =  1.0000   71

   2   rms: 0.2632E-01   max: -.2922E+00   D at   62  1
       a =  6.000      CL =  1.0317
      Cm = -0.0811     CD =  0.01486   =>   CDf =  0.00712    CDp =  0.00773

 Side 1  free  transition at x/c =  0.5336   60
 Side 2 forced transition at x/c =  1.0000   71

   3   rms: 0.2901E-02   max: 0.4265E-01   D at   61  1
       a =  6.000      CL =  1.0312
      Cm = -0.0811     CD =  0.01499   =>   CDf =  0.00718    CDp =  0.00781

 Side 1  free  transition at x/c =  0.5311   60
 Side 2 forced transition at x/c =  1.0000   71

   4   rms: 0.4160E-03   max: -.3940E-02   C at   60  1
       a =  6.000      CL =  1.0313
      Cm = -0.0811     CD =  0.01499   =>   CDf =  0.00718    CDp =  0.00781

 Side 1  free  transition at x/c =  0.5313   60
 Side 2 forced transition at x/c =  1.0000   71

   5   rms: 0.3929E-05   max: -.1669E-04   D at   88  1
       a =  6.000      CL =  1.0313
      Cm = -0.0811     CD =  0.01499   =>   CDf =  0.00718    CDp =  0.00781
 plradd ia,ip,cpol           21           0  4.68760543E-02

 Point added to stored polar  1
 Point written to save file  goe693_Re150k.base.pol                          
 Dump file unspecified or not available
 Calculating wake trajectory ...
 Calculating source influence matrix ...

 Solving BL system ...

 Side 1  free  transition at x/c =  0.5313   60
 Side 2 forced transition at x/c =  1.0000   71

   1   rms: 0.7859E-01   max: 0.3356E+00   T at   60  1
       a =  6.500      CL =  1.0747
      Cm = -0.0787     CD =  0.01546   =>   CDf =  0.00719    CDp =  0.00827

 Side 1  free  transition at x/c =  0.4845   57
 Side 2 forced transition at x/c =  1.0000   71

   2   rms: 0.3552E-01   max: -.4503E+00   D at   59  1
       a =  6.500      CL =  1.0753
      Cm = -0.0787     CD =  0.01542   =>   CDf =  0.00741    CDp =  0.00801

 Side 1  free  transition at x/c =  0.4926   58
 Side 2 forced transition at x/c =  1.0000   71

   3   rms: 0.6033E-02   max: 0.6497E-01   C at   58  1
       a =  6.500      CL =  1.0758
      Cm = -0.0788     CD =  0.01553   =>   CDf =  0.00727    CDp =  0.00826

 Side 1  free  transition at x/c =  0.4895   57
 Side 2 forced transition at x/c =  1.0000   71

   4   rms: 0.5378E-03   max: 0.5425E-02   D at   58  1
       a =  6.500      CL =  1.0757
      Cm = -0.0788     CD =  0.01554   =>   CDf =  0.00731    CDp =  0.00823

 Side 1  free  transition at x/c =  0.4891   57
 Side 2 forced transition at x/c =  1.0000   71

   5   rms: 0.1043E-04   max: -.1065E-03   D at   58  1
       a =  6.500      CL =  1.0757
      Cm = -0.0788     CD =  0.01554   =>   CDf =  0.00731    CDp =  0.00823
 plradd ia,ip,cpol           22           0  2.92287883E-03

 Point added to stored polar  1
 Point written to save file  goe693_Re150k.base.pol                          
 Dump file unspecified or not available
 Calculating wake trajectory ...
 Calculating source influence matrix ...

 Solving BL system ...

 Side 1  free  transition at x/c =  0.4891   57
 Side 2 forced transition at x/c =  1.0000   71

   1   rms: 0.7754E-01   max: 0.3233E+00   T at   57  1
       a =  7.000      CL =  1.1176
      Cm = -0.0764     CD =  0.01620   =>   CDf =  0.00708    CDp =  0.00912

 Side 1  free  transition at x/c =  0.4430   55
 Side 2 forced transition at x/c =  1.0000   70

   2   rms: 0.3729E-01   max: -.4891E+00   D at   57  1
       a =  7.000      CL =  1.1178
      Cm = -0.0762     CD =  0.01627   =>   CDf =  0.00762    CDp =  0.00865

 Side 1  free  transition at x/c =  0.4552   56
 Side 2 forced transition at x/c =  1.0000   70

   3   rms: 0.2238E-01   max: 0.3219E+00   C at   56  1
       a =  7.000      CL =  1.1178
      Cm = -0.0762     CD =  0.01625   =>   CDf =  0.00722    CDp =  0.00903

 Side 1  free  transition at x/c =  0.4501   56
 Side 2 forced transition at x/c =  1.0000   70

   4   rms: 0.3464E-02   max: 0.3580E-01   C at   56  1
       a =  7.000      CL =  1.1183
      Cm = -0.0764     CD =  0.01631   =>   CDf =  0.00736    CDp =  0.00894

 Side 1  free  transition at x/c =  0.4484   56
 Side 2 forced transition at x/c =  1.0000   70

   5   rms: 0.1302E-03   max: -.1343E-02   D at   56  1
       a =  7.000      CL =  1.1183
      Cm = -0.0764     CD =  0.01631   =>   CDf =  0.00740    CDp =  0.00891

 Side 1  free  transition at x/c =  0.4484   56
 Side 2 forced transition at x/c =  1.0000   70

   6   rms: 0.1981E-05   max: -.8068E-05   D at   92  1
       a =  7.000      CL =  1.1183
      Cm = -0.0764     CD =  0.01631   =>   CDf =  0.00740    CDp =  0.00891
 plradd ia,ip,cpol           23           0  2.92287883E-03

 Point added to stored polar  1
 Point written to save file  goe693_Re150k.base.pol                          
 Dump file unspecified or not available
 Calculating wake trajectory ...
 Calculating source influence matrix ...

 Solving BL system ...

 Side 1  free  transition at x/c =  0.4484   56
 Side 2 forced transition at x/c =  1.0000   70

   1   rms: 0.8432E-01   max: 0.4800E+00   C at   56  1
       a =  7.500      CL =  1.1600
      Cm = -0.0739     CD =  0.01723   =>   CDf =  0.00715    CDp =  0.01008

 Side 1  free  transition at x/c =  0.4110   54
 Side 2 forced transition at x/c =  1.0000   69
 idif Ue xi dudx           1  0.12663113      3.63075733E-03   34.877331    
 Uenew xinew           2  7.89963378E-05  2.26497650E-06

   2   rms: 0.2140E-01   max: -.2896E+00   D at   55  1
       a =  7.500      CL =  1.1580
      Cm = -0.0737     CD =  0.01738   =>   CDf =  0.00787    CDp =  0.00950

 Side 1  free  transition at x/c =  0.4101   53
 Side 2 forced transition at x/c =  1.0000   70

   3   rms: 0.1460E-01   max: 0.2562E+00   D at    2  2
       a =  7.500      CL =  1.1586
      Cm = -0.0737     CD =  0.01728   =>   CDf =  0.00724    CDp =  0.01005

 Side 1  free  transition at x/c =  0.4093   54
 Side 2 forced transition at x/c =  1.0000   69
 idif Ue xi dudx           1  0.12588041      3.64005566E-03   34.582001    
 Uenew xinew           2  3.99882090E-04  1.15633011E-05

   4   rms: 0.4561E-01   max: -.8160E+00   D at    2  1   RLX: 0.613
       a =  7.500      CL =  1.1586
      Cm = -0.0737     CD =  0.01728   =>   CDf =  0.00780    CDp =  0.00948

 Side 1  free  transition at x/c =  0.4093   53
 Side 2 forced transition at x/c =  1.0000   70

   5   rms: 0.1033E-01   max: 0.1760E+00   D at    2  2
       a =  7.500      CL =  1.1585
      Cm = -0.0737     CD =  0.01728   =>   CDf =  0.00725    CDp =  0.01003

 Side 1  free  transition at x/c =  0.4093   54
 Side 2 forced transition at x/c =  1.0000   69

   6   rms: 0.4342E-01   max: 0.7752E+00   T at    2  1
       a =  7.500      CL =  1.1585
      Cm = -0.0737     CD =  0.01728   =>   CDf =  0.00751    CDp =  0.00977

 Side 1  free  transition at x/c =  0.4093   54
 Side 2 forced transition at x/c =  1.0000   69

   7   rms: 0.3494E-02   max: 0.4746E-01   D at    4  1
       a =  7.500      CL =  1.1585
      Cm = -0.0737     CD =  0.01728   =>   CDf =  0.00751    CDp =  0.00977

 Side 1  free  transition at x/c =  0.4093   54
 Side 2 forced transition at x/c =  1.0000   69

   8   rms: 0.3377E-04   max: 0.4028E-03   D at    6  1
       a =  7.500      CL =  1.1585
      Cm = -0.0737     CD =  0.01728   =>   CDf =  0.00751    CDp =  0.00977
 plradd ia,ip,cpol           24           0  1.87543535E-03

 Point added to stored polar  1
 Point written to save file  goe693_Re150k.base.pol                          
 Dump file unspecified or not available
 Calculating wake trajectory ...
 Calculating source influence matrix ...

 Solving BL system ...

 Side 1  free  transition at x/c =  0.4093   54
 Side 2 forced transition at x/c =  1.0000   69

   1   rms: 0.7945E-01   max: 0.3515E+00   T at   54  1
       a =  8.000      CL =  1.1981
      Cm = -0.0710     CD =  0.01821   =>   CDf =  0.00751    CDp =  0.01070

 Side 1  free  transition at x/c =  0.3700   52
 Side 2 forced transition at x/c =  1.0000   69

   2   rms: 0.3877E-01   max: -.4634E+00   D at   53  1
       a =  8.000      CL =  1.1940
      Cm = -0.0702     CD =  0.01825   =>   CDf =  0.00774    CDp =  0.01051

 Side 1  free  transition at x/c =  0.3736   52
 Side 2 forced transition at x/c =  1.0000   69

   3   rms: 0.8172E-02   max: 0.1039E+00   C at   52  1
       a =  8.000      CL =  1.1957
      Cm = -0.0706     CD =  0.01841   =>   CDf =  0.00751    CDp =  0.01091

 Side 1  free  transition at x/c =  0.3700   52
 Side 2 forced transition at x/c =  1.0000   69

   4   rms: 0.5662E-03   max: -.7192E-02   D at   52  1
       a =  8.000      CL =  1.1958
      Cm = -0.0706     CD =  0.01842   =>   CDf =  0.00760    CDp =  0.01083

 Side 1  free  transition at x/c =  0.3700   52
 Side 2 forced transition at x/c =  1.0000   69

   5   rms: 0.1148E-04   max: 0.4648E-04   C at   52  1
       a =  8.000      CL =  1.1958
      Cm = -0.0706     CD =  0.01842   =>   CDf =  0.00759    CDp =  0.01083
 plradd ia,ip,cpol           25           0  1.87543535E-03

 Point added to stored polar  1
 Point written to save file  goe693_Re150k.base.pol                          
 Dump file unspecified or not available
 Calculating wake trajectory ...
 Calculating source influence matrix ...

 Solving BL system ...

 Side 1  free  transition at x/c =  0.3700   52
 Side 2 forced transition at x/c =  1.0000   69

   1   rms: 0.8895E-01   max: 0.4872E+00   C at   52  1
       a =  8.500      CL =  1.2307
      Cm = -0.0672     CD =  0.01982   =>   CDf =  0.00760    CDp =  0.01222

 Side 1  free  transition at x/c =  0.3352   50
 Side 2 forced transition at x/c =  1.0000   69

   2   rms: 0.2690E-01   max: 0.3076E+00   D at   51  1
       a =  8.500      CL =  1.2280
      Cm = -0.0669     CD =  0.01992   =>   CDf =  0.00772    CDp =  0.01221

 Side 1  free  transition at x/c =  0.3302   49
 Side 2 forced transition at x/c =  1.0000   69

   3   rms: 0.3204E-02   max: -.3736E-01   C at   49  1
       a =  8.500      CL =  1.2288
      Cm = -0.0670     CD =  0.01977   =>   CDf =  0.00773    CDp =  0.01204

 Side 1  free  transition at x/c =  0.3291   49
 Side 2 forced transition at x/c =  1.0000   69

   4   rms: 0.8263E-04   max: -.5813E-03   C at   49  1
       a =  8.500      CL =  1.2288
      Cm = -0.0670     CD =  0.01977   =>   CDf =  0.00769    CDp =  0.01208
 plradd ia,ip,cpol           26           0  1.06845202E-03

 Point added to stored polar  1
 Point written to save file  goe693_Re150k.base.pol                          
 Dump file unspecified or not available
 Calculating wake trajectory ...
 Calculating source influence matrix ...

 Solving BL system ...

 Side 1  free  transition at x/c =  0.3292   49
 Side 2 forced transition at x/c =  1.0000   69

   1   rms: 0.8126E-01   max: 0.5249E+00   T at   49  1
       a =  9.000      CL =  1.2605
      Cm = -0.0631     CD =  0.02095   =>   CDf =  0.00740    CDp =  0.01355

 Side 1  free  transition at x/c =  0.2812   47
 Side 2 forced transition at x/c =  1.0000   68

   2   rms: 0.2852E-01   max: -.4322E+00   D at   48  1
       a =  9.000      CL =  1.2538
      Cm = -0.0623     CD =  0.02155   =>   CDf =  0.00799    CDp =  0.01356

 Side 1  free  transition at x/c =  0.2897   48
 Side 2 forced transition at x/c =  1.0000   68

   3   rms: 0.7233E-02   max: 0.7913E-01   D at   48  1
       a =  9.000      CL =  1.2562
      Cm = -0.0626     CD =  0.02118   =>   CDf =  0.00772    CDp =  0.01346

 Side 1  free  transition at x/c =  0.2879   48
 Side 2 forced transition at x/c =  1.0000   68

   4   rms: 0.3752E-03   max: 0.3605E-02   C at   48  1
       a =  9.000      CL =  1.2561
      Cm = -0.0625     CD =  0.02118   =>   CDf =  0.00775    CDp =  0.01343

 Side 1  free  transition at x/c =  0.2878   48
 Side 2 forced transition at x/c =  1.0000   68

   5   rms: 0.5260E-05   max: 0.1917E-04   D at   49  1
       a =  9.000      CL =  1.2561
      Cm = -0.0625     CD =  0.02118   =>   CDf =  0.00776    CDp =  0.01342
 plradd ia,ip,cpol           27           0  1.06845202E-03

 Point added to stored polar  1
 Point written to save file  goe693_Re150k.base.pol                          
 Dump file unspecified or not available
 Calculating wake trajectory ...
 Calculating source influence matrix ...

 Solving BL system ...

 Side 1  free  transition at x/c =  0.2879   48
 Side 2 forced transition at x/c =  1.0000   68

   1   rms: 0.9098E-01   max: -.5563E+00   D at   49  1   RLX: 0.899
       a =  9.500      CL =  1.2763
      Cm = -0.0580     CD =  0.02273   =>   CDf =  0.00776    CDp =  0.01497

 Side 1  free  transition at x/c =  0.2533   45
 Side 2 forced transition at x/c =  1.0000   68

   2   rms: 0.3074E-01   max: 0.3972E+00   D at   47  1
       a =  9.500      CL =  1.2780
      Cm = -0.0574     CD =  0.02257   =>   CDf =  0.00783    CDp =  0.01473

 Side 1  free  transition at x/c =  0.2487   45
 Side 2 forced transition at x/c =  1.0000   68

   3   rms: 0.2530E-02   max: 0.2541E-01   D at   48  1
       a =  9.500      CL =  1.2774
      Cm = -0.0572     CD =  0.02248   =>   CDf =  0.00776    CDp =  0.01472

 Side 1  free  transition at x/c =  0.2485   45
 Side 2 forced transition at x/c =  1.0000   68

   4   rms: 0.6175E-04   max: 0.3544E-03   D at   93  1
       a =  9.500      CL =  1.2773
      Cm = -0.0572     CD =  0.02248   =>   CDf =  0.00777    CDp =  0.01471
 plradd ia,ip,cpol           28           0  1.06845202E-03

 Point added to stored polar  1
 Point written to save file  goe693_Re150k.base.pol                          
 Dump file unspecified or not available
 Calculating wake trajectory ...
 Calculating source influence matrix ...

 Solving BL system ...

 Side 1  free  transition at x/c =  0.2485   45
 Side 2 forced transition at x/c =  1.0000   68

   1   rms: 0.7768E-01   max: -.3829E+00   D at   46  1
       a = 10.000      CL =  1.2941
      Cm = -0.0513     CD =  0.02389   =>   CDf =  0.00744    CDp =  0.01645

 Side 1  free  transition at x/c =  0.2152   44
 Side 2 forced transition at x/c =  1.0000   67

   2   rms: 0.2295E-01   max: 0.3328E+00   D at   45  1
       a = 10.000      CL =  1.2925
      Cm = -0.0515     CD =  0.02421   =>   CDf =  0.00793    CDp =  0.01628

 Side 1  free  transition at x/c =  0.2174   44
 Side 2 forced transition at x/c =  1.0000   67

   3   rms: 0.5518E-02   max: 0.7136E-01   C at   44  1
       a = 10.000      CL =  1.2936
      Cm = -0.0516     CD =  0.02412   =>   CDf =  0.00779    CDp =  0.01633

 Side 1  free  transition at x/c =  0.2159   44
 Side 2 forced transition at x/c =  1.0000   67

   4   rms: 0.1323E-03   max: -.1691E-02   D at   44  1
       a = 10.000      CL =  1.2935
      Cm = -0.0516     CD =  0.02412   =>   CDf =  0.00784    CDp =  0.01628

 Side 1  free  transition at x/c =  0.2159   44
 Side 2 forced transition at x/c =  1.0000   67

   5   rms: 0.5700E-05   max: -.1948E-04   D at   45  1
       a = 10.000      CL =  1.2936
      Cm = -0.0516     CD =  0.02412   =>   CDf =  0.00784    CDp =  0.01628
 plradd ia,ip,cpol           29           0  1.06845202E-03

 Point added to stored polar  1
 Point written to save file  goe693_Re150k.base.pol                          
 Dump file unspecified or not available

.OPERva   c>  
 Solving BL system ...

 Side 1  free  transition at x/c =  0.2159   44
 Side 2 forced transition at x/c =  1.0000   67

   1   rms: 0.7056E-06   max: -.3720E-05   D at    4  1
       a = 10.000      CL =  1.2936
      Cm = -0.0516     CD =  0.02412   =>   CDf =  0.00784    CDp =  0.01628
 plradd ia,ip,cpol           30         182  1.06845202E-03

 Point added to stored polar  1
 Point written to save file  goe693_Re150k.base.pol                          
 Dump file unspecified or not available
 Calculating wake trajectory ...
 Calculating source influence matrix ...

 Solving BL system ...

 Side 1  free  transition at x/c =  0.2159   44
 Side 2 forced transition at x/c =  1.0000   67

   1   rms: 0.4235E-01   max: 0.2547E+00   C at   44  1
       a = 10.250      CL =  1.2989
      Cm = -0.0486     CD =  0.02526   =>   CDf =  0.00784    CDp =  0.01742

 Side 1  free  transition at x/c =  0.2031   43
 Side 2 forced transition at x/c =  1.0000   67

   2   rms: 0.1129E-01   max: -.1638E+00   D at   43  1
       a = 10.250      CL =  1.3008
      Cm = -0.0489     CD =  0.02509   =>   CDf =  0.00787    CDp =  0.01722

 Side 1  free  transition at x/c =  0.2016   43
 Side 2 forced transition at x/c =  1.0000   67

   3   rms: 0.7035E-03   max: 0.4220E-02   C at   43  1
       a = 10.250      CL =  1.3010
      Cm = -0.0490     CD =  0.02514   =>   CDf =  0.00789    CDp =  0.01725

 Side 1  free  transition at x/c =  0.2015   43
 Side 2 forced transition at x/c =  1.0000   67

   4   rms: 0.1316E-04   max: 0.7760E-04   D at   79  2
       a = 10.250      CL =  1.3010
      Cm = -0.0490     CD =  0.02514   =>   CDf =  0.00789    CDp =  0.01725
 plradd ia,ip,cpol           31           0  1.06845202E-03

 Point added to stored polar  1
 Point written to save file  goe693_Re150k.base.pol                          
 Dump file unspecified or not available
 Calculating wake trajectory ...
 Calculating source influence matrix ...

 Solving BL system ...

 Side 1  free  transition at x/c =  0.2015   43
 Side 2 forced transition at x/c =  1.0000   67

   1   rms: 0.4308E-01   max: 0.2385E+00   C at   43  1
       a = 10.500      CL =  1.3055
      Cm = -0.0461     CD =  0.02649   =>   CDf =  0.00790    CDp =  0.01859

 Side 1  free  transition at x/c =  0.1907   42
 Side 2 forced transition at x/c =  1.0000   67

   2   rms: 0.1193E-01   max: -.1543E+00   D at   42  1
       a = 10.500      CL =  1.3086
      Cm = -0.0465     CD =  0.02619   =>   CDf =  0.00789    CDp =  0.01830

 Side 1  free  transition at x/c =  0.1886   42
 Side 2 forced transition at x/c =  1.0000   67

   3   rms: 0.7292E-03   max: -.4204E-02   D at   89  1
       a = 10.500      CL =  1.3086
      Cm = -0.0465     CD =  0.02626   =>   CDf =  0.00791    CDp =  0.01835

 Side 1  free  transition at x/c =  0.1886   42
 Side 2 forced transition at x/c =  1.0000   67

   4   rms: 0.1183E-04   max: -.5358E-04   D at   43  1
       a = 10.500      CL =  1.3086
      Cm = -0.0465     CD =  0.02626   =>   CDf =  0.00792    CDp =  0.01835
 plradd ia,ip,cpol           32           0  1.06845202E-03

 Point added to stored polar  1
 Point written to save file  goe693_Re150k.base.pol                          
 Dump file unspecified or not available
 Calculating wake trajectory ...
 Calculating source influence matrix ...

 Solving BL system ...

 Side 1  free  transition at x/c =  0.1886   42
 Side 2 forced transition at x/c =  1.0000   67

   1   rms: 0.4224E-01   max: -.2140E+00   D at   43  1
       a = 10.750      CL =  1.3138
      Cm = -0.0440     CD =  0.02771   =>   CDf =  0.00792    CDp =  0.01979

 Side 1  free  transition at x/c =  0.1783   41
 Side 2 forced transition at x/c =  1.0000   67

   2   rms: 0.1239E-01   max: -.1522E+00   D at   41  1
       a = 10.750      CL =  1.3157
[...]

 Side 1  free  transition at x/c =  0.0577   33
 Side 2 forced transition at x/c =  1.0000   66

   5   rms: 0.2853E-04   max: -.3570E-03   D at   34  1
       a = 12.750      CL =  1.3189
      Cm = -0.0284     CD =  0.04405   =>   CDf =  0.00796    CDp =  0.03609
 plradd ia,ip,cpol           41           0  4.84828721E-04

 Point added to stored polar  1
 Point written to save file  goe693_Re150k.base.pol                          
 Dump file unspecified or not available
 Calculating wake trajectory ...
 Calculating source influence matrix ...

 Solving BL system ...

 Side 1  free  transition at x/c =  0.0577   33
 Side 2 forced transition at x/c =  1.0000   66

   1   rms: 0.4271E-01   max: -.1543E+00   D at   34  1   RLX: 0.786
       a = 13.000      CL =  1.3173
      Cm = -0.0275     CD =  0.04658   =>   CDf =  0.00796    CDp =  0.03861

 Side 1  free  transition at x/c =  0.0545   32
 Side 2 forced transition at x/c =  1.0000   66

   2   rms: 0.8469E-02   max: -.7532E-01   C at   32  1
       a = 13.000      CL =  1.3174
      Cm = -0.0271     CD =  0.04681   =>   CDf =  0.00796    CDp =  0.03884

 Side 1  free  transition at x/c =  0.0532   32
 Side 2 forced transition at x/c =  1.0000   66

   3   rms: 0.7347E-03   max: -.5218E-02   T at   32  1
       a = 13.000      CL =  1.3168
      Cm = -0.0271     CD =  0.04679   =>   CDf =  0.00791    CDp =  0.03887

 Side 1  free  transition at x/c =  0.0533   32
 Side 2 forced transition at x/c =  1.0000   66

   4   rms: 0.2551E-04   max: -.1296E-03   D at   76  1
       a = 13.000      CL =  1.3168
      Cm = -0.0271     CD =  0.04678   =>   CDf =  0.00791    CDp =  0.03887
 plradd ia,ip,cpol           42           0  4.84828721E-04

 Point added to stored polar  1
 Point written to save file  goe693_Re150k.base.pol                          
 Dump file unspecified or not available
 Calculating wake trajectory ...
 Calculating source influence matrix ...

 Solving BL system ...

 Side 1  free  transition at x/c =  0.0533   32
 Side 2 forced transition at x/c =  1.0000   66

   1   rms: 0.3529E-01   max: 0.1870E+00   T at   32  1   RLX: 0.756
       a = 13.250      CL =  1.3198
      Cm = -0.0264     CD =  0.04880   =>   CDf =  0.00792    CDp =  0.04088

 Side 1  free  transition at x/c =  0.0501   32
 Side 2 forced transition at x/c =  1.0000   66

   2   rms: 0.8563E-02   max: -.5355E-01   D at   32  1
       a = 13.250      CL =  1.3174
      Cm = -0.0261     CD =  0.04945   =>   CDf =  0.00788    CDp =  0.04158

 Side 1  free  transition at x/c =  0.0499   32
 Side 2 forced transition at x/c =  1.0000   66

   3   rms: 0.5391E-03   max: 0.3635E-02   D at   80  2
       a = 13.250      CL =  1.3169
      Cm = -0.0260     CD =  0.04937   =>   CDf =  0.00784    CDp =  0.04153

 Side 1  free  transition at x/c =  0.0499   32
 Side 2 forced transition at x/c =  1.0000   66

   4   rms: 0.8702E-05   max: 0.6785E-04   D at   80  2
       a = 13.250      CL =  1.3169
      Cm = -0.0260     CD =  0.04936   =>   CDf =  0.00784    CDp =  0.04153
 plradd ia,ip,cpol           43           0  4.84828721E-04

 Point added to stored polar  1
 Point written to save file  goe693_Re150k.base.pol                          
 Dump file unspecified or not available
 Calculating wake trajectory ...
 Calculating source influence matrix ...

 Solving BL system ...

 Side 1  free  transition at x/c =  0.0499   32
 Side 2 forced transition at x/c =  1.0000   66

   1   rms: 0.3570E-01   max: 0.1888E+00   T at   32  1   RLX: 0.722
       a = 13.500      CL =  1.3182
      Cm = -0.0255     CD =  0.05151   =>   CDf =  0.00784    CDp =  0.04367

 Side 1  free  transition at x/c =  0.0478   32
 Side 2 forced transition at x/c =  1.0000   66

   2   rms: 0.1051E-01   max: 0.4164E-01   D at   74  1
       a = 13.500      CL =  1.3140
      Cm = -0.0251     CD =  0.05247   =>   CDf =  0.00786    CDp =  0.04461

 Side 1  free  transition at x/c =  0.0475   32
 Side 2 forced transition at x/c =  1.0000   66

   3   rms: 0.1063E-02   max: 0.6463E-02   D at   80  2
       a = 13.500      CL =  1.3132
      Cm = -0.0250     CD =  0.05237   =>   CDf =  0.00785    CDp =  0.04453

 Side 1  free  transition at x/c =  0.0475   32
 Side 2 forced transition at x/c =  1.0000   66

   4   rms: 0.2506E-04   max: 0.2694E-03   D at   80  2
       a = 13.500      CL =  1.3132
      Cm = -0.0250     CD =  0.05236   =>   CDf =  0.00784    CDp =  0.04452
 plradd ia,ip,cpol           44           0  4.84828721E-04

 Point added to stored polar  1
 Point written to save file  goe693_Re150k.base.pol                          
 Dump file unspecified or not available
 Calculating wake trajectory ...
 Calculating source influence matrix ...

 Solving BL system ...

 Side 1  free  transition at x/c =  0.0475   32
 Side 2 forced transition at x/c =  1.0000   66

   1   rms: 0.3824E-01   max: 0.1614E+00   T at   32  1   RLX: 0.685
       a = 13.750      CL =  1.3107
      Cm = -0.0244     CD =  0.05487   =>   CDf =  0.00785    CDp =  0.04702

 Side 1  free  transition at x/c =  0.0463   31
 Side 2 forced transition at x/c =  1.0000   66

   2   rms: 0.1047E-01   max: -.7980E-01   C at   31  1
       a = 13.750      CL =  1.3136
      Cm = -0.0240     CD =  0.05515   =>   CDf =  0.00783    CDp =  0.04732

 Side 1  free  transition at x/c =  0.0454   31
 Side 2 forced transition at x/c =  1.0000   66

   3   rms: 0.8691E-03   max: 0.4919E-02   D at   80  2
       a = 13.750      CL =  1.3128
      Cm = -0.0240     CD =  0.05510   =>   CDf =  0.00775    CDp =  0.04735

 Side 1  free  transition at x/c =  0.0454   31
 Side 2 forced transition at x/c =  1.0000   66

   4   rms: 0.2335E-04   max: -.1422E-03   D at   73  1
       a = 13.750      CL =  1.3128
      Cm = -0.0240     CD =  0.05509   =>   CDf =  0.00775    CDp =  0.04734
 plradd ia,ip,cpol           45           0  4.84828721E-04

 Point added to stored polar  1
 Point written to save file  goe693_Re150k.base.pol                          
 Dump file unspecified or not available
 Calculating wake trajectory ...
 Calculating source influence matrix ...

 Solving BL system ...

 Side 1  free  transition at x/c =  0.0454   31
 Side 2 forced transition at x/c =  1.0000   66

   1   rms: 0.3214E-01   max: 0.1544E+00   T at   31  1   RLX: 0.665
       a = 14.000      CL =  1.3158
      Cm = -0.0235     CD =  0.05695   =>   CDf =  0.00733    CDp =  0.04962

 Side 1  free  transition at x/c =  0.0438   32
 Side 2 forced transition at x/c =  1.0000   65

   2   rms: 0.1108E-01   max: 0.6110E-01   T at    2  1
       a = 14.000      CL =  1.3148
      Cm = -0.0233     CD =  0.05785   =>   CDf =  0.00767    CDp =  0.05018

 Side 1  free  transition at x/c =  0.0433   32
 Side 2 forced transition at x/c =  1.0000   65

   3   rms: 0.1412E-02   max: -.7441E-02   D at    4  1
       a = 14.000      CL =  1.3138
      Cm = -0.0232     CD =  0.05776   =>   CDf =  0.00763    CDp =  0.05013

 Side 1  free  transition at x/c =  0.0434   32
 Side 2 forced transition at x/c =  1.0000   65

   4   rms: 0.3187E-04   max: 0.2634E-03   D at   79  2
       a = 14.000      CL =  1.3138
      Cm = -0.0232     CD =  0.05775   =>   CDf =  0.00763    CDp =  0.05012
 plradd ia,ip,cpol           46           0  4.84828721E-04

 Point added to stored polar  1
 Point written to save file  goe693_Re150k.base.pol                          
 Dump file unspecified or not available
 Calculating wake trajectory ...
 Calculating source influence matrix ...

 Solving BL system ...

 Side 1  free  transition at x/c =  0.0434   32
 Side 2 forced transition at x/c =  1.0000   65

   1   rms: 0.3162E-01   max: 0.1559E+00   T at   32  1   RLX: 0.641
       a = 14.250      CL =  1.3162
      Cm = -0.0229     CD =  0.05963   =>   CDf =  0.00763    CDp =  0.05200

 Side 1  free  transition at x/c =  0.0420   32
 Side 2 forced transition at x/c =  1.0000   65

   2   rms: 0.1093E-01   max: 0.4247E-01   T at   32  1
       a = 14.250      CL =  1.3152
      Cm = -0.0227     CD =  0.06063   =>   CDf =  0.00761    CDp =  0.05302

 Side 1  free  transition at x/c =  0.0415   32
 Side 2 forced transition at x/c =  1.0000   65

   3   rms: 0.1316E-02   max: 0.6975E-02   D at   80  2
       a = 14.250      CL =  1.3141
      Cm = -0.0226     CD =  0.06052   =>   CDf =  0.00758    CDp =  0.05294

 Side 1  free  transition at x/c =  0.0415   32
 Side 2 forced transition at x/c =  1.0000   65

   4   rms: 0.5923E-04   max: -.3490E-03   D at   72  1
       a = 14.250      CL =  1.3142
      Cm = -0.0226     CD =  0.06050   =>   CDf =  0.00758    CDp =  0.05292
 plradd ia,ip,cpol           47           0  4.84828721E-04

 Point added to stored polar  1
 Point written to save file  goe693_Re150k.base.pol                          
 Dump file unspecified or not available
 Calculating wake trajectory ...
 Calculating source influence matrix ...

 Solving BL system ...

 Side 1  free  transition at x/c =  0.0415   32
 Side 2 forced transition at x/c =  1.0000   65

   1   rms: 0.3198E-01   max: 0.1781E+00   T at   32  1   RLX: 0.618
       a = 14.500      CL =  1.3159
      Cm = -0.0223     CD =  0.06240   =>   CDf =  0.00758    CDp =  0.05482

 Side 1  free  transition at x/c =  0.0404   32
 Side 2 forced transition at x/c =  1.0000   65

   2   rms: 0.1149E-01   max: 0.6173E-01   T at   32  1
       a = 14.500      CL =  1.3151
      Cm = -0.0219     CD =  0.06339   =>   CDf =  0.00759    CDp =  0.05580

 Side 1  free  transition at x/c =  0.0399   32
 Side 2 forced transition at x/c =  1.0000   65

   3   rms: 0.1159E-02   max: 0.9660E-02   D at   32  1
       a = 14.500      CL =  1.3143
      Cm = -0.0218     CD =  0.06326   =>   CDf =  0.00761    CDp =  0.05565

 Side 1  free  transition at x/c =  0.0399   32
 Side 2 forced transition at x/c =  1.0000   65

   4   rms: 0.7977E-04   max: 0.3958E-03   D at   80  2
       a = 14.500      CL =  1.3142
      Cm = -0.0218     CD =  0.06326   =>   CDf =  0.00761    CDp =  0.05565
 plradd ia,ip,cpol           48           0  1.16448333E-04

 Point added to stored polar  1
 Point written to save file  goe693_Re150k.base.pol                          
 Dump file unspecified or not available
 Calculating wake trajectory ...
 Calculating source influence matrix ...

 Solving BL system ...

 Side 1  free  transition at x/c =  0.0399   32
 Side 2 forced transition at x/c =  1.0000   65

   1   rms: 0.3647E-01   max: 0.2057E+00   T at   32  1   RLX: 0.598
       a = 14.750      CL =  1.3177
      Cm = -0.0208     CD =  0.06468   =>   CDf =  0.00761    CDp =  0.05706

 Side 1  free  transition at x/c =  0.0390   31
 Side 2 forced transition at x/c =  1.0000   65

   2   rms: 0.1333E-01   max: 0.6306E-01   T at   31  1
       a = 14.750      CL =  1.3195
      Cm = -0.0207     CD =  0.06585   =>   CDf =  0.00763    CDp =  0.05822

 Side 1  free  transition at x/c =  0.0386   31
 Side 2 forced transition at x/c =  1.0000   65

   3   rms: 0.1825E-02   max: 0.7798E-02   D at   80  2
       a = 14.750      CL =  1.3182
      Cm = -0.0206     CD =  0.06570   =>   CDf =  0.00754    CDp =  0.05817

 Side 1  free  transition at x/c =  0.0386   31
 Side 2 forced transition at x/c =  1.0000   65

   4   rms: 0.1677E-03   max: 0.8343E-03   D at   80  2
       a = 14.750      CL =  1.3181
      Cm = -0.0206     CD =  0.06568   =>   CDf =  0.00754    CDp =  0.05814

 Side 1  free  transition at x/c =  0.0386   31
 Side 2 forced transition at x/c =  1.0000   65

   5   rms: 0.6285E-05   max: 0.5209E-04   D at   80  2
       a = 14.750      CL =  1.3181
      Cm = -0.0206     CD =  0.06568   =>   CDf =  0.00754    CDp =  0.05814
 plradd ia,ip,cpol           49           0  1.16448333E-04

 Point added to stored polar  1
 Point written to save file  goe693_Re150k.base.pol                          
 Dump file unspecified or not available
 Calculating wake trajectory ...
 Calculating source influence matrix ...

 Solving BL system ...

 Side 1  free  transition at x/c =  0.0386   31
 Side 2 forced transition at x/c =  1.0000   65

   1   rms: 0.3059E-01   max: 0.1274E+00   T at   31  1   RLX: 0.583
       a = 15.000      CL =  1.3227
      Cm = -0.0202     CD =  0.06717   =>   CDf =  0.00754    CDp =  0.05962

 Side 1  free  transition at x/c =  0.0379   31
 Side 2 forced transition at x/c =  1.0000   65

   2   rms: 0.1239E-01   max: 0.4213E-01   T at   31  1
       a = 15.000      CL =  1.3240
      Cm = -0.0199     CD =  0.06826   =>   CDf =  0.00745    CDp =  0.06081

 Side 1  free  transition at x/c =  0.0375   31
 Side 2 forced transition at x/c =  1.0000   65

   3   rms: 0.2257E-02   max: 0.7838E-02   D at   81  2
       a = 15.000      CL =  1.3223
      Cm = -0.0199     CD =  0.06824   =>   CDf =  0.00738    CDp =  0.06085

 Side 1  free  transition at x/c =  0.0375   31
 Side 2 forced transition at x/c =  1.0000   65

   4   rms: 0.8550E-04   max: 0.7445E-03   D at   80  2
       a = 15.000      CL =  1.3222
      Cm = -0.0199     CD =  0.06819   =>   CDf =  0.00738    CDp =  0.06081
 plradd ia,ip,cpol           50           0  1.16448333E-04

 Point added to stored polar  1
 Point written to save file  goe693_Re150k.base.pol                          
 Dump file unspecified or not available
 Calculating wake trajectory ...
 Calculating source influence matrix ...

 Solving BL system ...

 Side 1  free  transition at x/c =  0.0375   31
 Side 2 forced transition at x/c =  1.0000   65

   1   rms: 0.3073E-01   max: 0.1140E+00   T at   31  1   RLX: 0.567
       a = 15.250      CL =  1.3270
      Cm = -0.0194     CD =  0.06963   =>   CDf =  0.00739    CDp =  0.06224

 Side 1  free  transition at x/c =  0.0369   31
 Side 2 forced transition at x/c =  1.0000   65

   2   rms: 0.1272E-01   max: 0.3994E-01   T at   31  1
       a = 15.250      CL =  1.3284
      Cm = -0.0191     CD =  0.07082   =>   CDf =  0.00731    CDp =  0.06351

 Side 1  free  transition at x/c =  0.0365   31
 Side 2 forced transition at x/c =  1.0000   65

   3   rms: 0.2389E-02   max: 0.8542E-02   D at   81  2
       a = 15.250      CL =  1.3265
      Cm = -0.0191     CD =  0.07079   =>   CDf =  0.00725    CDp =  0.06354

 Side 1  free  transition at x/c =  0.0365   31
 Side 2 forced transition at x/c =  1.0000   65

   4   rms: 0.1047E-03   max: 0.8249E-03   D at   81  2
       a = 15.250      CL =  1.3265
      Cm = -0.0191     CD =  0.07074   =>   CDf =  0.00725    CDp =  0.06349

 Side 1  free  transition at x/c =  0.0365   31
 Side 2 forced transition at x/c =  1.0000   65

   5   rms: 0.1273E-04   max: 0.6615E-04   C at   65  2
       a = 15.250      CL =  1.3265
      Cm = -0.0191     CD =  0.07074   =>   CDf =  0.00725    CDp =  0.06349
 plradd ia,ip,cpol           51           0  1.16448333E-04

 Point added to stored polar  1
 Point written to save file  goe693_Re150k.base.pol                          
 Dump file unspecified or not available
 Calculating wake trajectory ...
 Calculating source influence matrix ...

 Solving BL system ...

 Side 1  free  transition at x/c =  0.0365   31
 Side 2 forced transition at x/c =  1.0000   65

   1   rms: 0.3041E-01   max: 0.1126E+00   T at   31  1   RLX: 0.551
       a = 15.500      CL =  1.3310
      Cm = -0.0187     CD =  0.07219   =>   CDf =  0.00725    CDp =  0.06494

 Side 1  free  transition at x/c =  0.0359   31
 Side 2 forced transition at x/c =  1.0000   65

   2   rms: 0.1262E-01   max: 0.4420E-01   T at   31  1
       a = 15.500      CL =  1.3322
      Cm = -0.0185     CD =  0.07346   =>   CDf =  0.00719    CDp =  0.06627

 Side 1  free  transition at x/c =  0.0355   31
 Side 2 forced transition at x/c =  1.0000   65

   3   rms: 0.2366E-02   max: 0.1024E-01   D at   81  2
       a = 15.500      CL =  1.3304
      Cm = -0.0185     CD =  0.07341   =>   CDf =  0.00714    CDp =  0.06628

 Side 1  free  transition at x/c =  0.0355   31
 Side 2 forced transition at x/c =  1.0000   65

   4   rms: 0.1146E-03   max: 0.9235E-03   D at   81  2
       a = 15.500      CL =  1.3304
      Cm = -0.0185     CD =  0.07336   =>   CDf =  0.00713    CDp =  0.06623

 Side 1  free  transition at x/c =  0.0355   31
 Side 2 forced transition at x/c =  1.0000   65

   5   rms: 0.1456E-04   max: 0.8496E-04   C at   65  2
       a = 15.500      CL =  1.3304
      Cm = -0.0185     CD =  0.07336   =>   CDf =  0.00713    CDp =  0.06623
 plradd ia,ip,cpol           52           0  1.16448333E-04

 Point added to stored polar  1
 Point written to save file  goe693_Re150k.base.pol                          
 Dump file unspecified or not available
 Calculating wake trajectory ...
 Calculating source influence matrix ...

 Solving BL system ...

 Side 1  free  transition at x/c =  0.0355   31
 Side 2 forced transition at x/c =  1.0000   65

   1   rms: 0.2972E-01   max: 0.1240E+00   T at   31  1   RLX: 0.536
       a = 15.750      CL =  1.3344
      Cm = -0.0182     CD =  0.07483   =>   CDf =  0.00714    CDp =  0.06769

 Side 1  free  transition at x/c =  0.0349   31
 Side 2 forced transition at x/c =  1.0000   65

   2   rms: 0.1260E-01   max: 0.5185E-01   T at   31  1
       a = 15.750      CL =  1.3355
      Cm = -0.0180     CD =  0.07615   =>   CDf =  0.00709    CDp =  0.06906

 Side 1  free  transition at x/c =  0.0345   31
 Side 2 forced transition at x/c =  1.0000   65

   3   rms: 0.2212E-02   max: -.8613E-02   T at   31  1
       a = 15.750      CL =  1.3337
      Cm = -0.0180     CD =  0.07608   =>   CDf =  0.00705    CDp =  0.06902

 Side 1  free  transition at x/c =  0.0346   31
 Side 2 forced transition at x/c =  1.0000   65

   4   rms: 0.2048E-03   max: -.1042E-02   D at   69  1
       a = 15.750      CL =  1.3338
      Cm = -0.0180     CD =  0.07603   =>   CDf =  0.00705    CDp =  0.06898

 Side 1  free  transition at x/c =  0.0346   31
 Side 2 forced transition at x/c =  1.0000   65

   5   rms: 0.2313E-04   max: -.1401E-03   D at   81  2
       a = 15.750      CL =  1.3339
      Cm = -0.0180     CD =  0.07603   =>   CDf =  0.00705    CDp =  0.06898
 plradd ia,ip,cpol           53           0  1.16448333E-04

 Point added to stored polar  1
 Point written to save file  goe693_Re150k.base.pol                          
 Dump file unspecified or not available
 Calculating wake trajectory ...
 Calculating source influence matrix ...

 Solving BL system ...

 Side 1  free  transition at x/c =  0.0346   31
 Side 2 forced transition at x/c =  1.0000   65

   1   rms: 0.2982E-01   max: 0.1492E+00   T at   31  1   RLX: 0.522
       a = 16.000      CL =  1.3377
      Cm = -0.0178     CD =  0.07747   =>   CDf =  0.00705    CDp =  0.07041

 Side 1  free  transition at x/c =  0.0340   31
 Side 2 forced transition at x/c =  1.0000   65

   2   rms: 0.1363E-01   max: 0.7337E-01   T at   31  1
       a = 16.000      CL =  1.3403
      Cm = -0.0174     CD =  0.07861   =>   CDf =  0.00655    CDp =  0.07205

 Side 1  free  transition at x/c =  0.0335   32
 Side 2 forced transition at x/c =  1.0000   64

   3   rms: 0.2838E-02   max: -.3641E-01   T at    2  1
       a = 16.000      CL =  1.3388
      Cm = -0.0174     CD =  0.07853   =>   CDf =  0.00701    CDp =  0.07152

 Side 1  free  transition at x/c =  0.0336   32
 Side 2 forced transition at x/c =  1.0000   64

   4   rms: 0.1114E-02   max: -.1342E-01   D at    4  1
       a = 16.000      CL =  1.3391
      Cm = -0.0174     CD =  0.07850   =>   CDf =  0.00701    CDp =  0.07149

 Side 1  free  transition at x/c =  0.0336   32
 Side 2 forced transition at x/c =  1.0000   64

   5   rms: 0.2852E-04   max: -.2053E-03   D at   80  2
       a = 16.000      CL =  1.3391
      Cm = -0.0174     CD =  0.07851   =>   CDf =  0.00701    CDp =  0.07150
 plradd ia,ip,cpol           54           0  1.16448333E-04

 Point added to stored polar  1
 Point written to save file  goe693_Re150k.base.pol                          
 Dump file unspecified or not available

.OPERva   c>  
 Polar accumulation disabled

.OPERv   c>  
 XFOIL   c>  
 XFOIL   c>  