
 ===================================================
  XFOIL Version 6.99
  Copyright (C) 2000   Mark Drela, Harold Youngren

  This software comes with ABSOLUTELY NO WARRANTY,
    subject to the GNU General Public License.

  Caveat computor
 ===================================================

 File  xfoil.def  not found

   QUIT    Exit program

  .OPER    Direct operating point(s)
  .MDES    Complex mapping design routine
  .QDES    Surface speed design routine
  .GDES    Geometry design routine

   SAVE f  Write airfoil to labeled coordinate file
   PSAV f  Write airfoil to plain coordinate file
   ISAV f  Write airfoil to ISES coordinate file
   MSAV f  Write airfoil to MSES coordinate file
   REVE    Reverse written-airfoil node ordering

   LOAD f  Read buffer airfoil from coordinate file
   NACA i  Set NACA 4,5-digit airfoil and buffer airfoil
   INTE    Set buffer airfoil by interpolating two airfoils
   NORM    Buffer airfoil normalization toggle
   XYCM rr Change CM reference location, currently  0.25000 0.00000

   BEND    Display structural properties of current airfoil

   PCOP    Set current-airfoil panel nodes directly from buffer airfoil points
   PANE    Set current-airfoil panel nodes ( 160 ) based on curvature
  .PPAR    Show/change paneling

  .PLOP    Plotting options

   WDEF f  Write  current-settings file
   RDEF f  Reread current-settings file
   NAME s  Specify new airfoil name
   NINC    Increment name version number

   Z       Zoom    | (available in all menus)
   U       Unzoom  | 

 XFOIL   c>  
 Labeled airfoil file.  Name:  GOE 612 AIRFOIL                                 

 Number of input coordinate points:  33
 Counterclockwise ordering
 Max thickness =     0.150263  at x =   0.294
 Max camber    =     0.049265  at x =   0.495

  LE  x,y  =  -0.00009   0.00185  |   Chord =   1.00009
  TE  x,y  =   1.00000   0.00000  |

 Current airfoil nodes set from buffer airfoil nodes (  33 )

 WARNING: Poor input coordinate distribution
          Excessive panel angle   56.4  at i =  17
          Repaneling with PANE and/or PPAR suggested
           (doing GDES,CADD before repaneling _may_
            improve excessively coarse LE spacing

 XFOIL   c>  
 XFOIL   c>  
 Sharp trailing edge

 Paneling parameters used...
   Number of panel nodes       160
   Panel bunching parameter    1.000
   TE/LE panel density ratio   0.150
   Refined-area/LE panel density ratio    0.200
   Top    side refined area x/c limits  1.000 1.000
   Bottom side refined area x/c limits  1.000 1.000

 XFOIL   c>  
.OPERi   c>  
 Xtr/c     =  1.0000    top    side
 Xtr/c     =  1.0000    bottom side
 Ncrit     =    9.00   ( 0.070 % turb. level )
 Vacc      =  0.0100

 Klag  =  5.6000     Uxwt  =    1.00
 A     =  6.7000     B     =  0.7500       KCt = 0.01485
 CtiniK=  1.8000     CtiniX=  3.3000

..VPAR   c>  
..VPAR   c>  
.OPERi   c>  
 M  =    0.0000
 Re =    300000

.OPERv   c>  
.OPERv   c>  
.OPERv   c>  
 Polar  1 newly created for accumulation
 Airfoil archived with polar: GOE 612 AIRFOIL                                 

Enter  polar save filename  OR  <return> for no file   s>  
 New polar save file available

Enter  polar dump filename  OR  <return> for no file   s>  
 Polar dump file will NOT be written

 Polar accumulation enabled

.OPERva   c>   Calculating unit vorticity distributions ...
 Calculating wake trajectory ...
 Calculating source influence matrix ...

 Solving BL system ...

 Initializing BL ...
    side            1  ...
 MRCHUE: Inverse mode at  30     Hk =   4.102
 MRCHUE: Inverse mode at  31     Hk =   4.776
 MRCHUE: Inverse mode at  32     Hk =   5.451
 MRCHUE: Inverse mode at  33     Hk =   6.140
 MRCHUE: Inverse mode at  34     Hk =   6.848
 MRCHUE: Inverse mode at  35     Hk =   7.578
 MRCHUE: Inverse mode at  36     Hk =   8.326
 MRCHUE: Inverse mode at  37     Hk =   9.091
 MRCHUE: Inverse mode at  38     Hk =   9.875
 MRCHUE: Inverse mode at  39     Hk =   6.848
 MRCHUE: Inverse mode at  40     Hk =   4.473
 MRCHUE: Inverse mode at  41     Hk =   2.911
 MRCHUE: Inverse mode at  82     Hk =   2.500
 MRCHUE: Inverse mode at  83     Hk =   2.500
 MRCHUE: Inverse mode at  84     Hk =   2.500
 MRCHUE: Inverse mode at  85     Hk =   2.500
 MRCHUE: Inverse mode at  86     Hk =   2.500
 MRCHUE: Inverse mode at  87     Hk =   2.500
 MRCHUE: Inverse mode at  88     Hk =   2.500
 MRCHUE: Inverse mode at  89     Hk =   2.500
 MRCHUE: Inverse mode at  90     Hk =   2.500
 MRCHUE: Inverse mode at  91     Hk =   2.500
 MRCHUE: Inverse mode at  92     Hk =   2.500
 MRCHUE: Inverse mode at  93     Hk =   2.500
 MRCHUE: Inverse mode at  94     Hk =   2.500
 MRCHUE: Inverse mode at  95     Hk =   2.500
 MRCHUE: Inverse mode at  96     Hk =   2.500
 MRCHUE: Inverse mode at  97     Hk =   2.500
 MRCHUE: Convergence failed at  98  side 1    Res =  0.5335E+01
 MRCHUE: Inverse mode at  99     Hk =   2.500
 MRCHUE: Inverse mode at 100     Hk =   2.500
 MRCHUE: Inverse mode at 101     Hk =   2.500
 MRCHUE: Convergence failed at 102  side 1    Res =  0.5131E+01
 MRCHUE: Inverse mode at 103     Hk =   2.500
 MRCHUE: Inverse mode at 104     Hk =   2.500
 MRCHUE: Convergence failed at 105  side 1    Res =  0.4524E+01
 MRCHUE: Inverse mode at 106     Hk =   2.500
    side            2  ...
 MRCHUE: Inverse mode at  55     Hk =   3.800
 MRCHUE: Inverse mode at  56     Hk =   4.019

 MRCHDU: Convergence failed at  98  side 1    Res =  0.1403E+01
 MRCHDU: Convergence failed at  99  side 1    Res =  0.1469E+01
 MRCHDU: Convergence failed at 100  side 1    Res =  0.1534E+01
 MRCHDU: Convergence failed at 101  side 1    Res =  0.1599E+01
 MRCHDU: Convergence failed at 102  side 1    Res =  0.4488E+01
 MRCHDU: Convergence failed at 103  side 1    Res =  0.4167E+01
 MRCHDU: Convergence failed at 104  side 1    Res =  0.3927E+01
 MRCHDU: Convergence failed at 105  side 1    Res =  0.1193E+02
 MRCHDU: Convergence failed at 106  side 1    Res =  0.1195E+02
 Side 1  free  transition at x/c =  0.0211   39
 Side 2 forced transition at x/c =  1.0000   56

   1   rms: 0.8038E+00   max: 0.3770E+01   D at   58  2   RLX: 0.233
       a = 16.250      CL =  2.5409
      Cm = -0.2214     CD =  0.01100   =>   CDf =  0.00850    CDp =  0.00251

 Side 1  free  transition at x/c =  0.0230   39
 Side 2 forced transition at x/c =  1.0000   56
 idif Ue xi dudx           1  9.05573666E-02  1.06054544E-02   8.5387545    
 Uenew xinew           2  1.98561531E-02  2.32541561E-03

   2   rms: 0.9088E+00   max: -.3718E+01   T at   39  1   RLX: 0.134
       a = 16.250      CL =  2.4147
      Cm = -0.2013     CD =  0.01536   =>   CDf =  0.00922    CDp =  0.00615

 Side 1  free  transition at x/c =  0.0260   39
 Side 2 forced transition at x/c =  1.0000   57

   3   rms: 0.7069E+00   max: -.2373E+01   T at   39  1   RLX: 0.211
       a = 16.250      CL =  2.2396
      Cm = -0.1560     CD =  0.01794   =>   CDf =  0.00799    CDp =  0.00995

 Side 1  free  transition at x/c =  0.0303   40
 Side 2 forced transition at x/c =  1.0000   57
 idif Ue xi dudx           1  9.48575065E-02  1.01196766E-02   9.3735714    
 Uenew xinew           2  2.47373730E-02  2.63905525E-03

   4   rms: 0.4829E+00   max: -.2356E+01   T at   40  1   RLX: 0.212
       a = 16.250      CL =  2.1264
      Cm = -0.1297     CD =  0.02183   =>   CDf =  0.00850    CDp =  0.01333

 Side 1  free  transition at x/c =  0.0366   41
 Side 2 forced transition at x/c =  1.0000   58

   5   rms: 0.4692E+00   max: -.4714E+01   C at   41  1   RLX: 0.106
       a = 16.250      CL =  2.0960
      Cm = -0.1240     CD =  0.02309   =>   CDf =  0.00799    CDp =  0.01510

 Side 1  free  transition at x/c =  0.0460   42
 Side 2 forced transition at x/c =  1.0000   58

   6   rms: 0.2047E+01   max: -.4312E+02   C at   42  1   RLX: 0.012
       a = 16.250      CL =  2.0916
      Cm = -0.1223     CD =  0.02309   =>   CDf =  0.00770    CDp =  0.01539

 Side 1  free  transition at x/c =  0.0467   42
 Side 2 forced transition at x/c =  1.0000   58

   7   rms: 0.2141E+01   max: -.4330E+02   C at   42  1   RLX: 0.012
       a = 16.250      CL =  2.0901
      Cm = -0.1212     CD =  0.02305   =>   CDf =  0.00762    CDp =  0.01543

 Side 1  free  transition at x/c =  0.0457   42
 Side 2 forced transition at x/c =  1.0000   58

   8   rms: 0.4760E+00   max: -.1350E+01   T at   43  1   RLX: 0.120
       a = 16.250      CL =  2.0495
      Cm = -0.1159     CD =  0.02480   =>   CDf =  0.00783    CDp =  0.01698

 Side 1  free  transition at x/c =  0.0640   45
 Side 2 forced transition at x/c =  1.0000   58

   9   rms: 0.1325E+01   max: -.2835E+02   C at   45  1   RLX: 0.018
       a = 16.250      CL =  2.0344
      Cm = -0.1135     CD =  0.02457   =>   CDf =  0.00747    CDp =  0.01710

 Side 1  free  transition at x/c =  0.0670   45
 Side 2 forced transition at x/c =  1.0000   58

  10   rms: 0.2433E+01   max: -.4974E+02   C at   45  1   RLX: 0.010
       a = 16.250      CL =  2.0338
      Cm = -0.1117     CD =  0.02445   =>   CDf =  0.00723    CDp =  0.01722

 Side 1  free  transition at x/c =  0.0678   45
 Side 2 forced transition at x/c =  1.0000   58

  11   rms: 0.2637E+01   max: -.5168E+02   C at   45  1   RLX: 0.010
       a = 16.250      CL =  2.0334
      Cm = -0.1109     CD =  0.02439   =>   CDf =  0.00713    CDp =  0.01726

 Side 1  free  transition at x/c =  0.0673   45
 Side 2 forced transition at x/c =  1.0000   58

  12   rms: 0.6098E+00   max: -.1174E+02   C at   45  1   RLX: 0.043
       a = 16.250      CL =  2.0233
      Cm = -0.1116     CD =  0.02482   =>   CDf =  0.00731    CDp =  0.01751

 Side 1  free  transition at x/c =  0.0732   46
 Side 2 forced transition at x/c =  1.0000   58

  13   rms: 0.1629E+01   max: -.3545E+02   C at   46  1   RLX: 0.014
       a = 16.250      CL =  2.0222
      Cm = -0.1108     CD =  0.02473   =>   CDf =  0.00725    CDp =  0.01748

 Side 1  free  transition at x/c =  0.0751   46
 Side 2 forced transition at x/c =  1.0000   58

  14   rms: 0.2174E+01   max: -.4561E+02   C at   46  1   RLX: 0.011
       a = 16.250      CL =  2.0218
      Cm = -0.1098     CD =  0.02467   =>   CDf =  0.00711    CDp =  0.01756

 Side 1  free  transition at x/c =  0.0762   46
 Side 2 forced transition at x/c =  1.0000   58

  15   rms: 0.2244E+01   max: -.4549E+02   C at   46  1   RLX: 0.011
       a = 16.250      CL =  2.0212
      Cm = -0.1089     CD =  0.02462   =>   CDf =  0.00700    CDp =  0.01762

 Side 1  free  transition at x/c =  0.0756   46
 Side 2 forced transition at x/c =  1.0000   58

  16   rms: 0.4560E+00   max: -.7410E+01   C at   46  1   RLX: 0.067
       a = 16.250      CL =  2.0039
      Cm = -0.1076     CD =  0.02537   =>   CDf =  0.00719    CDp =  0.01818

 Side 1  free  transition at x/c =  0.0856   47
 Side 2 forced transition at x/c =  1.0000   58

  17   rms: 0.3782E+00   max: -.4486E+01   C at   47  1   RLX: 0.111
       a = 16.250      CL =  1.9678
      Cm = -0.1008     CD =  0.02680   =>   CDf =  0.00702    CDp =  0.01978

 Side 1  free  transition at x/c =  0.1033   49
 Side 2 forced transition at x/c =  1.0000   58

  18   rms: 0.5670E+00   max: -.1180E+02   C at   49  1   RLX: 0.042
       a = 16.250      CL =  1.9574
      Cm = -0.0978     CD =  0.02698   =>   CDf =  0.00669    CDp =  0.02029

 Side 1  free  transition at x/c =  0.1080   49
 Side 2 forced transition at x/c =  1.0000   58
 idif Ue xi dudx           1  6.99972138E-02  6.89971447E-03   10.144943    
 Uenew xinew           2  1.77414797E-03  1.74880028E-04

  19   rms: 0.8006E+00   max: -.1599E+02   C at   49  1   RLX: 0.031
       a = 16.250      CL =  1.9518
      Cm = -0.0958     CD =  0.02722   =>   CDf =  0.00684    CDp =  0.02039

 Side 1  free  transition at x/c =  0.1073   48
 Side 2 forced transition at x/c =  1.0000   59

  20   rms: 0.5121E+00   max: -.5049E+01   D at    2  2   RLX: 0.099
       a = 16.250      CL =  1.9171
      Cm = -0.0933     CD =  0.02966   =>   CDf =  0.00676    CDp =  0.02290

 Side 1  free  transition at x/c =  0.1172   49
 Side 2 forced transition at x/c =  1.0000   59
 idif Ue xi dudx           1  6.57582879E-02  6.04343414E-03   10.880947    
 Uenew xinew           2  2.41262460E-04  2.21729279E-05

  21   rms: 0.3840E+00   max: 0.1186E+01   D at   72  2   RLX: 0.386
       a = 16.250      CL =  1.7793
      Cm = -0.0699     CD =  0.03827   =>   CDf =  0.00695    CDp =  0.03131

 MRCHDU: Convergence failed at  50  side 1    Res =  0.2985E+01
 MRCHDU: Convergence failed at  51  side 1    Res =  0.8203E+01
 MRCHDU: Convergence failed at  52  side 1    Res =  0.3955E+01
 MRCHDU: Convergence failed at  53  side 1    Res =  0.4154E+01
 MRCHDU: Convergence failed at  54  side 1    Res =  0.5391E+01
 MRCHDU: Convergence failed at  55  side 1    Res =  0.7358E+01
 MRCHDU: Convergence failed at  56  side 1    Res =  0.1134E+02
 MRCHDU: Convergence failed at  57  side 1    Res =  0.2218E+02
 MRCHDU: Convergence failed at  58  side 1    Res =  0.1029E+03
 MRCHDU: Convergence failed at  59  side 1    Res =  0.4541E+02
 MRCHDU: Convergence failed at  60  side 1    Res =  0.2074E+02
 MRCHDU: Convergence failed at  61  side 1    Res =  0.1482E+02
 MRCHDU: Convergence failed at  62  side 1    Res =  0.1198E+02
 MRCHDU: Convergence failed at  63  side 1    Res =  0.9538E+01
 MRCHDU: Convergence failed at  64  side 1    Res =  0.1008E+02
 MRCHDU: Convergence failed at  65  side 1    Res =  0.1279E+02
 MRCHDU: Convergence failed at  66  side 1    Res =  0.1761E+02
 MRCHDU: Convergence failed at  67  side 1    Res =  0.2391E+02
 MRCHDU: Convergence failed at  68  side 1    Res =  0.3502E+02
 MRCHDU: Convergence failed at  69  side 1    Res =  0.2081E+02
 MRCHDU: Convergence failed at  70  side 1    Res =  0.3500E+02
 MRCHDU: Convergence failed at  71  side 1    Res =  0.2413E+03
 MRCHDU: Convergence failed at  72  side 1    Res =  0.2586E+02
 MRCHDU: Convergence failed at  73  side 1    Res =  0.1643E+02
 MRCHDU: Convergence failed at  74  side 1    Res =  0.1163E+02
 MRCHDU: Convergence failed at  75  side 1    Res =  0.1891E+02
 MRCHDU: Convergence failed at  76  side 1    Res =  0.4906E+02
 MRCHDU: Convergence failed at  77  side 1    Res =  0.8318E+02
 MRCHDU: Convergence failed at  78  side 1    Res =  0.1836E+02
 MRCHDU: Convergence failed at  79  side 1    Res =  0.1508E+02
 MRCHDU: Convergence failed at  80  side 1    Res =  0.2498E+02
 MRCHDU: Convergence failed at  81  side 1    Res =  0.1277E+03
 MRCHDU: Convergence failed at  82  side 1    Res =  0.4505E+02
 MRCHDU: Convergence failed at  83  side 1    Res =  0.1825E+02
 MRCHDU: Convergence failed at  84  side 1    Res =  0.1397E+02
 MRCHDU: Convergence failed at  85  side 1    Res =  0.1935E+02
 MRCHDU: Convergence failed at  86  side 1    Res =  0.4502E+02
 MRCHDU: Convergence failed at  87  side 1    Res =  0.1606E+03
 MRCHDU: Convergence failed at  88  side 1    Res =  0.7571E+02
 MRCHDU: Convergence failed at  89  side 1    Res =  0.3520E+02
 MRCHDU: Convergence failed at  90  side 1    Res =  0.2374E+02
 MRCHDU: Convergence failed at  91  side 1    Res =  0.1811E+02
 MRCHDU: Convergence failed at  92  side 1    Res =  0.1562E+02
 MRCHDU: Convergence failed at  93  side 1    Res =  0.1602E+02
 MRCHDU: Convergence failed at  94  side 1    Res =  0.1846E+02
 MRCHDU: Convergence failed at  95  side 1    Res =  0.2424E+02
 MRCHDU: Convergence failed at  96  side 1    Res =  0.2786E+02
 MRCHDU: Convergence failed at  97  side 1    Res =  0.3414E+02
 MRCHDU: Convergence failed at  98  side 1    Res =  0.1028E+03
 MRCHDU: Convergence failed at  99  side 1    Res =  0.1337E+03
 MRCHDU: Convergence failed at 100  side 1    Res =  0.1864E+03
 MRCHDU: Convergence failed at 101  side 1    Res =  0.2883E+03
 MRCHDU: Convergence failed at 102  side 1    Res =  0.5553E+03
 Side 1  free  transition at x/c =  0.1373   50
 Side 2 forced transition at x/c =  1.0000   60

  22   rms: 0.3877E+01   max: 0.6351E+02   T at    2  2   RLX: 0.018
       a = 16.250      CL =  3.6020
      Cm = -0.8294     CD =  0.00607   =>   CDf =  0.00228    CDp =  0.00379

 Side 1  free  transition at x/c =  0.1365   51
 Side 2 forced transition at x/c =  1.0000   59

  23   rms: 0.1468E+01   max: 0.1877E+02   T at    2  1   RLX: 0.054
       a = 16.250      CL =  3.4848
      Cm = -0.7712     CD =  0.00868   =>   CDf =  0.01687    CDp = -0.00818

 Side 1  free  transition at x/c =  0.1330   50
 Side 2 forced transition at x/c =  1.0000   59

  24   rms: 0.8970E+00   max: -.1289E+01   D at   68  2   RLX: 0.250
       a = 16.250      CL =  3.1907
      Cm = -0.5858     CD =  0.00786   =>   CDf =  0.01610    CDp = -0.00825

 Side 1  free  transition at x/c =  0.1189   50
 Side 2 forced transition at x/c =  1.0000   58

  25   rms: 0.6927E+00   max: 0.1476E+01   T at   63  2   RLX: 0.386
       a = 16.250      CL =  2.8586
      Cm = -0.3892     CD =  0.00993   =>   CDf =  0.01355    CDp = -0.00363

 Side 1  free  transition at x/c =  0.1030   50
 Side 2 forced transition at x/c =  1.0000   57

  26   rms: 0.5095E+00   max: 0.1162E+01   D at   58  2   RLX: 0.514
       a = 16.250      CL =  2.4970
      Cm = -0.2241     CD =  0.01596   =>   CDf =  0.01104    CDp =  0.00491

 MRCHDU: Convergence failed at 101  side 1    Res =  0.1131E+01
 MRCHDU: Convergence failed at 102  side 1    Res =  0.1244E+01
 MRCHDU: Convergence failed at 103  side 1    Res =  0.1325E+01
 MRCHDU: Convergence failed at 104  side 1    Res =  0.1344E+01
 MRCHDU: Convergence failed at 105  side 1    Res =  0.1358E+01
 Side 1  free  transition at x/c =  0.0991   50
 Side 2 forced transition at x/c =  1.0000   57
 idif Ue xi dudx           1  0.11426196      1.20710135E-02   9.4658136    
 Uenew xinew           2  4.34517972E-02  4.59039211E-03

  27   rms: 0.4626E+00   max: 0.1706E+01   D at  105  1   RLX: 0.716
       a = 16.250      CL =  2.1017
      Cm = -0.1054     CD =  0.02321   =>   CDf =  0.00914    CDp =  0.01407

 MRCHDU: Convergence failed at  89  side 1    Res =  0.8677E+00
 MRCHDU: Convergence failed at  90  side 1    Res =  0.1592E+01
 MRCHDU: Convergence failed at  91  side 1    Res =  0.1948E+01
 MRCHDU: Convergence failed at  92  side 1    Res =  0.3221E+01
 MRCHDU: Convergence failed at  93  side 1    Res =  0.1426E+02
 MRCHDU: Convergence failed at  94  side 1    Res =  0.4298E+01
 MRCHDU: Convergence failed at  95  side 1    Res =  0.1837E+01
 MRCHDU: Convergence failed at  96  side 1    Res =  0.1264E+01
 MRCHDU: Convergence failed at  97  side 1    Res =  0.1857E+01
 MRCHDU: Convergence failed at  98  side 1    Res =  0.3423E+01
 MRCHDU: Convergence failed at  99  side 1    Res =  0.1041E+03
 MRCHDU: Convergence failed at 100  side 1    Res =  0.3235E+02
 MRCHDU: Convergence failed at 101  side 1    Res =  0.2480E+02
 MRCHDU: Convergence failed at 102  side 1    Res =  0.2423E+02
 MRCHDU: Convergence failed at 103  side 1    Res =  0.2704E+02
 MRCHDU: Convergence failed at 104  side 1    Res =  0.1718E+03
 Side 1  free  transition at x/c =  0.1168   50
 Side 2 forced transition at x/c =  1.0000   58

  28   rms: 0.3292E+00   max: 0.2003E+01   D at  104  1   RLX: 0.749
       a = 16.250      CL =  2.0400
      Cm = -0.0943     CD =  0.02764   =>   CDf =  0.00743    CDp =  0.02021

 Side 1  free  transition at x/c =  0.1190   50
 Side 2 forced transition at x/c =  1.0000   58
 idif Ue xi dudx           1  0.12581770      1.20968819E-02   10.400837    
 Uenew xinew           2  5.58737889E-02  5.37204742E-03

  29   rms: 0.9137E+00   max: 0.3543E+01   D at  102  1   RLX: 0.327
       a = 16.250      CL =  1.8378
      Cm = -0.0831     CD =  0.03378   =>   CDf =  0.00729    CDp =  0.02649

 MRCHDU: Convergence failed at  67  side 2    Res =  0.1505E+01
 MRCHDU: Convergence failed at  68  side 2    Res =  0.5287E+01
 MRCHDU: Convergence failed at  69  side 2    Res =  0.1213E+02
 MRCHDU: Convergence failed at  70  side 2    Res =  0.3249E+01
 MRCHDU: Convergence failed at  71  side 2    Res =  0.1790E+01
 MRCHDU: Convergence failed at  72  side 2    Res =  0.2167E+01
 MRCHDU: Convergence failed at  73  side 2    Res =  0.3086E+01
 Side 1  free  transition at x/c =  0.1340   51
 Side 2 forced transition at x/c =  1.0000   59
 idif Ue xi dudx           2  0.14567670      1.22734308E-02   11.869273    
 Uenew xinew           3  7.42087066E-02  6.25216961E-03

  30   rms: 0.2389E+00   max: 0.7869E+00   T at   73  2
       a = 16.250      CL =  1.5685
      Cm = -0.0299     CD =  0.05156   =>   CDf =  0.00746    CDp =  0.04410

 Side 1  free  transition at x/c =  0.1487   50
 Side 2 forced transition at x/c =  1.0000   61

  31   rms: 0.2143E-01   max: -.1722E+00   D at   82  1
       a = 16.250      CL =  1.5558
      Cm = -0.0270     CD =  0.05447   =>   CDf =  0.00643    CDp =  0.04804

 Side 1  free  transition at x/c =  0.1479   50
 Side 2 forced transition at x/c =  1.0000   61

  32   rms: 0.2943E-02   max: 0.2839E-01   C at   61  2
       a = 16.250      CL =  1.5585
      Cm = -0.0273     CD =  0.05456   =>   CDf =  0.00646    CDp =  0.04810

 Side 1  free  transition at x/c =  0.1477   50
 Side 2 forced transition at x/c =  1.0000   61

  33   rms: 0.1203E-03   max: 0.1456E-02   C at   61  2
       a = 16.250      CL =  1.5586
      Cm = -0.0273     CD =  0.05458   =>   CDf =  0.00647    CDp =  0.04812

 Side 1  free  transition at x/c =  0.1477   50
 Side 2 forced transition at x/c =  1.0000   61

  34   rms: 0.2581E-05   max: 0.3386E-04   C at   61  2
       a = 16.250      CL =  1.5586
      Cm = -0.0273     CD =  0.05458   =>   CDf =  0.00647    CDp =  0.04812
 plradd ia,ip,cpol            1           0  7.70904415E-04

 Point added to stored polar  1
 Point written to save file  goe612_Re300k.ext.pol                           
 Dump file unspecified or not available
 Calculating wake trajectory ...
 Calculating source influence matrix ...

 Solving BL system ...

 Side 1  free  transition at x/c =  0.1477   50
 Side 2 forced transition at x/c =  1.0000   61

   1   rms: 0.2944E-01   max: 0.9917E-01   T at   50  1   RLX: 0.501
       a = 16.500      CL =  1.5627
      Cm = -0.0270     CD =  0.05551   =>   CDf =  0.00647    CDp =  0.04904

 Side 1  free  transition at x/c =  0.1463   50
 Side 2 forced transition at x/c =  1.0000   61

   2   rms: 0.1572E-01   max: 0.5444E-01   T at   50  1
       a = 16.500      CL =  1.5692
      Cm = -0.0264     CD =  0.05587   =>   CDf =  0.00614    CDp =  0.04973

 Side 1  free  transition at x/c =  0.1446   50
 Side 2 forced transition at x/c =  1.0000   60
 idif Ue xi dudx           1  7.24163651E-02  5.41663170E-03   13.369262    
 Uenew xinew           2  2.26311109E-04  1.69277191E-05

   3   rms: 0.4415E+02   max: -.7877E+03   T at    2  1   RLX: 0.001
       a = 16.500      CL =  1.5698
      Cm = -0.0271     CD =  0.05580   =>   CDf =  0.00676    CDp =  0.04904

 Side 1  free  transition at x/c =  0.1446   49
 Side 2 forced transition at x/c =  1.0000   61

   4   rms: 0.3708E-01   max: -.6277E+00   T at    2  2   RLX: 0.797
       a = 16.500      CL =  1.5658
      Cm = -0.0269     CD =  0.05642   =>   CDf =  0.00645    CDp =  0.04997

 Side 1  free  transition at x/c =  0.1451   49
 Side 2 forced transition at x/c =  1.0000   61

   5   rms: 0.2504E-02   max: -.2362E-01   D at    4  2
       a = 16.500      CL =  1.5652
      Cm = -0.0268     CD =  0.05640   =>   CDf =  0.00641    CDp =  0.04999

 Side 1  free  transition at x/c =  0.1452   49
 Side 2 forced transition at x/c =  1.0000   61

   6   rms: 0.1417E-03   max: -.8665E-03   D at   77  1
       a = 16.500      CL =  1.5653
      Cm = -0.0268     CD =  0.05638   =>   CDf =  0.00640    CDp =  0.04998

 Side 1  free  transition at x/c =  0.1452   49
 Side 2 forced transition at x/c =  1.0000   61

   7   rms: 0.1287E-04   max: 0.1211E-03   C at   61  2
       a = 16.500      CL =  1.5653
      Cm = -0.0268     CD =  0.05638   =>   CDf =  0.00640    CDp =  0.04998
 plradd ia,ip,cpol            2           0  7.70904415E-04

 Point added to stored polar  1
 Point written to save file  goe612_Re300k.ext.pol                           
 Dump file unspecified or not available
 Calculating wake trajectory ...
 Calculating source influence matrix ...

 Solving BL system ...

 Side 1  free  transition at x/c =  0.1452   49
 Side 2 forced transition at x/c =  1.0000   61

   1   rms: 0.2890E-01   max: 0.9332E-01   T at   49  1   RLX: 0.489
       a = 16.750      CL =  1.5686
      Cm = -0.0267     CD =  0.05752   =>   CDf =  0.00606    CDp =  0.05146

 Side 1  free  transition at x/c =  0.1440   50
 Side 2 forced transition at x/c =  1.0000   60

   2   rms: 0.1564E-01   max: 0.9573E-01   T at    2  1
       a = 16.750      CL =  1.5708
      Cm = -0.0266     CD =  0.05869   =>   CDf =  0.00633    CDp =  0.05236

 Side 1  free  transition at x/c =  0.1427   50
 Side 2 forced transition at x/c =  1.0000   60

   3   rms: 0.1265E-02   max: -.9036E-02   C at   60  2
       a = 16.750      CL =  1.5697
      Cm = -0.0265     CD =  0.05856   =>   CDf =  0.00626    CDp =  0.05230

 Side 1  free  transition at x/c =  0.1427   50
 Side 2 forced transition at x/c =  1.0000   60

   4   rms: 0.3114E-04   max: -.4157E-03   C at   60  2
       a = 16.750      CL =  1.5697
      Cm = -0.0265     CD =  0.05855   =>   CDf =  0.00626    CDp =  0.05229
 plradd ia,ip,cpol            3           0  7.70904415E-04

 Point added to stored polar  1
 Point written to save file  goe612_Re300k.ext.pol                           
 Dump file unspecified or not available
 Calculating wake trajectory ...
 Calculating source influence matrix ...

 Solving BL system ...

 Side 1  free  transition at x/c =  0.1427   50
 Side 2 forced transition at x/c =  1.0000   60

   1   rms: 0.2890E-01   max: 0.9627E-01   T at   50  1   RLX: 0.477
       a = 17.000      CL =  1.5723
      Cm = -0.0265     CD =  0.05974   =>   CDf =  0.00626    CDp =  0.05348

 Side 1  free  transition at x/c =  0.1412   50
 Side 2 forced transition at x/c =  1.0000   60

   2   rms: 0.1508E-01   max: 0.4983E-01   D at   75  1
       a = 17.000      CL =  1.5741
      Cm = -0.0264     CD =  0.06100   =>   CDf =  0.00621    CDp =  0.05479

 Side 1  free  transition at x/c =  0.1395   50
 Side 2 forced transition at x/c =  1.0000   60

   3   rms: 0.1728E-02   max: -.1250E-01   D at   50  1
       a = 17.000      CL =  1.5728
      Cm = -0.0263     CD =  0.06089   =>   CDf =  0.00616    CDp =  0.05473

 Side 1  free  transition at x/c =  0.1397   50
 Side 2 forced transition at x/c =  1.0000   60

   4   rms: 0.7239E-04   max: -.4439E-03   D at   77  1
       a = 17.000      CL =  1.5728
      Cm = -0.0263     CD =  0.06087   =>   CDf =  0.00615    CDp =  0.05472
 plradd ia,ip,cpol            4           0  7.70904415E-04

 Point added to stored polar  1
 Point written to save file  goe612_Re300k.ext.pol                           
 Dump file unspecified or not available
 Calculating wake trajectory ...
 Calculating source influence matrix ...

 Solving BL system ...

 Side 1  free  transition at x/c =  0.1397   50
 Side 2 forced transition at x/c =  1.0000   60

   1   rms: 0.2856E-01   max: 0.9827E-01   T at   50  1   RLX: 0.466
       a = 17.250      CL =  1.5750
      Cm = -0.0263     CD =  0.06211   =>   CDf =  0.00616    CDp =  0.05595

 Side 1  free  transition at x/c =  0.1383   50
 Side 2 forced transition at x/c =  1.0000   60

   2   rms: 0.1510E-01   max: 0.5146E-01   D at   75  1
       a = 17.250      CL =  1.5764
      Cm = -0.0262     CD =  0.06343   =>   CDf =  0.00612    CDp =  0.05730

 Side 1  free  transition at x/c =  0.1369   50
 Side 2 forced transition at x/c =  1.0000   60

   3   rms: 0.1206E-02   max: -.1110E-01   C at   60  2
       a = 17.250      CL =  1.5754
      Cm = -0.0261     CD =  0.06326   =>   CDf =  0.00610    CDp =  0.05715

 Side 1  free  transition at x/c =  0.1370   50
 Side 2 forced transition at x/c =  1.0000   60

   4   rms: 0.2974E-04   max: -.1677E-03   D at   76  1
       a = 17.250      CL =  1.5754
      Cm = -0.0261     CD =  0.06325   =>   CDf =  0.00610    CDp =  0.05715
 plradd ia,ip,cpol            5           0  7.70904415E-04

 Point added to stored polar  1
 Point written to save file  goe612_Re300k.ext.pol                           
 Dump file unspecified or not available
 Calculating wake trajectory ...
 Calculating source influence matrix ...

 Solving BL system ...

 Side 1  free  transition at x/c =  0.1370   50
 Side 2 forced transition at x/c =  1.0000   60

   1   rms: 0.2983E-01   max: 0.9852E-01   D at   73  1   RLX: 0.454
       a = 17.500      CL =  1.5770
      Cm = -0.0261     CD =  0.06453   =>   CDf =  0.00610    CDp =  0.05843

 Side 1  free  transition at x/c =  0.1355   50
 Side 2 forced transition at x/c =  1.0000   60

   2   rms: 0.1595E-01   max: -.5165E-01   D at   51  1
       a = 17.500      CL =  1.5782
      Cm = -0.0260     CD =  0.06587   =>   CDf =  0.00610    CDp =  0.05977

 Side 1  free  transition at x/c =  0.1339   50
 Side 2 forced transition at x/c =  1.0000   60

   3   rms: 0.1193E-02   max: -.1242E-01   C at   60  2
       a = 17.500      CL =  1.5776
      Cm = -0.0258     CD =  0.06558   =>   CDf =  0.00611    CDp =  0.05947

 Side 1  free  transition at x/c =  0.1338   50
 Side 2 forced transition at x/c =  1.0000   60

   4   rms: 0.4862E-04   max: 0.4550E-03   C at   60  2
       a = 17.500      CL =  1.5776
      Cm = -0.0258     CD =  0.06559   =>   CDf =  0.00612    CDp =  0.05947
 plradd ia,ip,cpol            6           0  7.70904415E-04

 Point added to stored polar  1
 Point written to save file  goe612_Re300k.ext.pol                           
 Dump file unspecified or not available
 Calculating wake trajectory ...
 Calculating source influence matrix ...

 Solving BL system ...

 Side 1  free  transition at x/c =  0.1338   50
 Side 2 forced transition at x/c =  1.0000   60

   1   rms: 0.2832E-01   max: 0.9452E-01   T at   50  1   RLX: 0.445
       a = 17.750      CL =  1.5808
      Cm = -0.0256     CD =  0.06652   =>   CDf =  0.00613    CDp =  0.06039

 Side 1  free  transition at x/c =  0.1327   49
 Side 2 forced transition at x/c =  1.0000   60

   2   rms: 0.1692E-01   max: -.8038E-01   C at   49  1
       a = 17.750      CL =  1.5813
      Cm = -0.0259     CD =  0.06835   =>   CDf =  0.00612    CDp =  0.06223

 Side 1  free  transition at x/c =  0.1316   49
 Side 2 forced transition at x/c =  1.0000   60

   3   rms: 0.1315E-02   max: -.1489E-01   C at   60  2
       a = 17.750      CL =  1.5804
      Cm = -0.0257     CD =  0.06803   =>   CDf =  0.00600    CDp =  0.06203

 Side 1  free  transition at x/c =  0.1316   49
 Side 2 forced transition at x/c =  1.0000   60

   4   rms: 0.4336E-04   max: 0.2862E-03   C at   60  2
       a = 17.750      CL =  1.5804
      Cm = -0.0257     CD =  0.06803   =>   CDf =  0.00600    CDp =  0.06203
 plradd ia,ip,cpol            7           0  7.70904415E-04

 Point added to stored polar  1
 Point written to save file  goe612_Re300k.ext.pol                           
 Dump file unspecified or not available
 Calculating wake trajectory ...
 Calculating source influence matrix ...

 Solving BL system ...

 Side 1  free  transition at x/c =  0.1316   49
 Side 2 forced transition at x/c =  1.0000   60

   1   rms: 0.2820E-01   max: 0.1010E+00   D at   72  1   RLX: 0.434
       a = 18.000      CL =  1.5821
      Cm = -0.0259     CD =  0.06935   =>   CDf =  0.00601    CDp =  0.06334

 Side 1  free  transition at x/c =  0.1306   49
 Side 2 forced transition at x/c =  1.0000   60

   2   rms: 0.1597E-01   max: 0.5987E-01   D at   73  1
       a = 18.000      CL =  1.5831
      Cm = -0.0260     CD =  0.07099   =>   CDf =  0.00594    CDp =  0.06505

 Side 1  free  transition at x/c =  0.1290   49
 Side 2 forced transition at x/c =  1.0000   60

   3   rms: 0.2372E-02   max: 0.1959E-01   D at    3  2
       a = 18.000      CL =  1.5814
      Cm = -0.0259     CD =  0.07082   =>   CDf =  0.00586    CDp =  0.06496

 Side 1  free  transition at x/c =  0.1292   49
 Side 2 forced transition at x/c =  1.0000   60

   4   rms: 0.1671E-03   max: -.1603E-02   D at    4  2
       a = 18.000      CL =  1.5813
      Cm = -0.0259     CD =  0.07079   =>   CDf =  0.00585    CDp =  0.06493

 Side 1  free  transition at x/c =  0.1292   49
 Side 2 forced transition at x/c =  1.0000   60

   5   rms: 0.3836E-05   max: 0.2587E-04   C at   60  2
       a = 18.000      CL =  1.5814
      Cm = -0.0259     CD =  0.07079   =>   CDf =  0.00585    CDp =  0.06493
 plradd ia,ip,cpol            8           0  7.70904415E-04

 Point added to stored polar  1
 Point written to save file  goe612_Re300k.ext.pol                           
 Dump file unspecified or not available

.OPERva   c>   Calculating wake trajectory ...
 Calculating source influence matrix ...

 Solving BL system ...

 Side 1  free  transition at x/c =  0.1292   49
 Side 2 forced transition at x/c =  1.0000   60

   1   rms: 0.2899E-01   max: 0.1099E+00   D at   72  1   RLX: 0.423
       a = 18.250      CL =  1.5823
      Cm = -0.0261     CD =  0.07220   =>   CDf =  0.00549    CDp =  0.06670

 Side 1  free  transition at x/c =  0.1278   50
 Side 2 forced transition at x/c =  1.0000   59

   2   rms: 0.2013E-01   max: 0.1824E+00   T at    2  1
       a = 18.250      CL =  1.5825
      Cm = -0.0263     CD =  0.07399   =>   CDf =  0.00580    CDp =  0.06818

 Side 1  free  transition at x/c =  0.1260   50
 Side 2 forced transition at x/c =  1.0000   59

   3   rms: 0.2140E-02   max: -.1472E-01   C at   59  2
       a = 18.250      CL =  1.5807
      Cm = -0.0261     CD =  0.07379   =>   CDf =  0.00574    CDp =  0.06805

 Side 1  free  transition at x/c =  0.1262   50
 Side 2 forced transition at x/c =  1.0000   59

   4   rms: 0.5578E-04   max: -.7539E-03   C at   59  2
       a = 18.250      CL =  1.5807
      Cm = -0.0261     CD =  0.07377   =>   CDf =  0.00574    CDp =  0.06803
 plradd ia,ip,cpol            9           0  2.96114071E-04

 Point added to stored polar  1
 Point written to save file  goe612_Re300k.ext.pol                           
 Dump file unspecified or not available
 Calculating wake trajectory ...
 Calculating source influence matrix ...

 Solving BL system ...

 Side 1  free  transition at x/c =  0.1262   50
 Side 2 forced transition at x/c =  1.0000   59

   1   rms: 0.5788E-01   max: 0.2301E+00   D at   72  1   RLX: 0.403
       a = 18.750      CL =  1.5814
      Cm = -0.0266     CD =  0.07665   =>   CDf =  0.00574    CDp =  0.07091

 Side 1  free  transition at x/c =  0.1236   50
 Side 2 forced transition at x/c =  1.0000   59

   2   rms: 0.3425E-01   max: -.1483E+00   D at   50  1
       a = 18.750      CL =  1.5805
      Cm = -0.0271     CD =  0.08054   =>   CDf =  0.00571    CDp =  0.07484

 Side 1  free  transition at x/c =  0.1199   49
 Side 2 forced transition at x/c =  1.0000   59

   3   rms: 0.4385E-02   max: -.3272E-01   C at   59  2
       a = 18.750      CL =  1.5768
      Cm = -0.0266     CD =  0.07994   =>   CDf =  0.00570    CDp =  0.07424

 Side 1  free  transition at x/c =  0.1200   49
 Side 2 forced transition at x/c =  1.0000   59

   4   rms: 0.2785E-03   max: -.1139E-02   C at   49  1
       a = 18.750      CL =  1.5770
      Cm = -0.0266     CD =  0.07992   =>   CDf =  0.00570    CDp =  0.07422

 Side 1  free  transition at x/c =  0.1200   49
 Side 2 forced transition at x/c =  1.0000   59

   5   rms: 0.2702E-04   max: 0.2270E-03   C at   59  2
       a = 18.750      CL =  1.5771
      Cm = -0.0266     CD =  0.07992   =>   CDf =  0.00570    CDp =  0.07422
 plradd ia,ip,cpol           10           0  2.96114071E-04

 Point added to stored polar  1
 Point written to save file  goe612_Re300k.ext.pol                           
 Dump file unspecified or not available
 Calculating wake trajectory ...
 Calculating source influence matrix ...

 Solving BL system ...

 Side 1  free  transition at x/c =  0.1200   49
 Side 2 forced transition at x/c =  1.0000   59

   1   rms: 0.6252E-01   max: -.3397E+00   C at   49  1   RLX: 0.383
       a = 19.250      CL =  1.5759
      Cm = -0.0275     CD =  0.08329   =>   CDf =  0.00571    CDp =  0.07759

 Side 1  free  transition at x/c =  0.1179   49
 Side 2 forced transition at x/c =  1.0000   59

   2   rms: 0.3674E-01   max: 0.1662E+00   D at   72  1
       a = 19.250      CL =  1.5728
      Cm = -0.0286     CD =  0.08812   =>   CDf =  0.00554    CDp =  0.08257

 Side 1  free  transition at x/c =  0.1132   49
 Side 2 forced transition at x/c =  1.0000   59

   3   rms: 0.5551E-02   max: -.3681E-01   C at   59  2
       a = 19.250      CL =  1.5690
      Cm = -0.0282     CD =  0.08734   =>   CDf =  0.00539    CDp =  0.08195

 Side 1  free  transition at x/c =  0.1139   49
 Side 2 forced transition at x/c =  1.0000   59

   4   rms: 0.2656E-03   max: 0.4931E-02   D at   75  2
       a = 19.250      CL =  1.5691
      Cm = -0.0282     CD =  0.08728   =>   CDf =  0.00537    CDp =  0.08191

 Side 1  free  transition at x/c =  0.1139   49
 Side 2 forced transition at x/c =  1.0000   59

   5   rms: 0.2600E-04   max: 0.1768E-03   C at   59  2
       a = 19.250      CL =  1.5691
      Cm = -0.0282     CD =  0.08728   =>   CDf =  0.00537    CDp =  0.08191
 plradd ia,ip,cpol           11           0  2.96114071E-04

 Point added to stored polar  1
 Point written to save file  goe612_Re300k.ext.pol                           
 Dump file unspecified or not available
 Calculating wake trajectory ...
 Calculating source influence matrix ...

 Solving BL system ...

 Side 1  free  transition at x/c =  0.1139   49
 Side 2 forced transition at x/c =  1.0000   59

   1   rms: 0.6251E-01   max: 0.2918E+00   D at   69  1   RLX: 0.364
       a = 19.750      CL =  1.5662
      Cm = -0.0292     CD =  0.09080   =>   CDf =  0.00538    CDp =  0.08542

 Side 1  free  transition at x/c =  0.1109   49
 Side 2 forced transition at x/c =  1.0000   59

   2   rms: 0.3990E-01   max: -.1946E+00   D at   49  1
       a = 19.750      CL =  1.5583
      Cm = -0.0306     CD =  0.09657   =>   CDf =  0.00535    CDp =  0.09122

 Side 1  free  transition at x/c =  0.1071   48
 Side 2 forced transition at x/c =  1.0000   59

   3   rms: 0.5804E-02   max: -.4047E-01   C at   59  2
       a = 19.750      CL =  1.5546
      Cm = -0.0302     CD =  0.09560   =>   CDf =  0.00527    CDp =  0.09032

 Side 1  free  transition at x/c =  0.1070   48
 Side 2 forced transition at x/c =  1.0000   59

   4   rms: 0.1436E-03   max: 0.2405E-02   D at   69  1
       a = 19.750      CL =  1.5545
      Cm = -0.0302     CD =  0.09552   =>   CDf =  0.00525    CDp =  0.09026

 Side 1  free  transition at x/c =  0.1070   48
 Side 2 forced transition at x/c =  1.0000   59

   5   rms: 0.5173E-05   max: -.2773E-04   D at   77  2
       a = 19.750      CL =  1.5545
      Cm = -0.0302     CD =  0.09552   =>   CDf =  0.00525    CDp =  0.09026
 plradd ia,ip,cpol           12           0  2.96114071E-04

 Point added to stored polar  1
 Point written to save file  goe612_Re300k.ext.pol                           
 Dump file unspecified or not available
 Calculating wake trajectory ...
 Calculating source influence matrix ...

 Solving BL system ...

 Side 1  free  transition at x/c =  0.1070   48
 Side 2 forced transition at x/c =  1.0000   59

   1   rms: 0.6357E-01   max: 0.3003E+00   D at   68  1   RLX: 0.346
       a = 20.250      CL =  1.5523
      Cm = -0.0314     CD =  0.09910   =>   CDf =  0.00488    CDp =  0.09421

 Side 1  free  transition at x/c =  0.1041   49
 Side 2 forced transition at x/c =  1.0000   58

   2   rms: 0.4265E-01   max: 0.2027E+00   D at   69  1
       a = 20.250      CL =  1.5458
      Cm = -0.0334     CD =  0.10550   =>   CDf =  0.00512    CDp =  0.10037

 Side 1  free  transition at x/c =  0.0976   49
 Side 2 forced transition at x/c =  1.0000   58

   3   rms: 0.1221E-01   max: 0.6995E-01   D at   50  1
       a = 20.250      CL =  1.5373
      Cm = -0.0332     CD =  0.10500   =>   CDf =  0.00507    CDp =  0.09993

 Side 1  free  transition at x/c =  0.0991   49
 Side 2 forced transition at x/c =  1.0000   58

   4   rms: 0.8313E-03   max: -.6794E-02   C at   58  2
       a = 20.250      CL =  1.5368
      Cm = -0.0331     CD =  0.10471   =>   CDf =  0.00500    CDp =  0.09971

 Side 1  free  transition at x/c =  0.0991   49
 Side 2 forced transition at x/c =  1.0000   58

   5   rms: 0.4817E-04   max: -.1969E-03   D at   49  1
       a = 20.250      CL =  1.5368
      Cm = -0.0331     CD =  0.10471   =>   CDf =  0.00500    CDp =  0.09971
 plradd ia,ip,cpol           13           0  2.96114071E-04

 Point added to stored polar  1
 Point written to save file  goe612_Re300k.ext.pol                           
 Dump file unspecified or not available
 Calculating wake trajectory ...
 Calculating source influence matrix ...

 Solving BL system ...

 Side 1  free  transition at x/c =  0.0991   49
 Side 2 forced transition at x/c =  1.0000   58

   1   rms: 0.7210E-01   max: 0.3813E+00   D at   67  1   RLX: 0.327
       a = 20.750      CL =  1.5299
      Cm = -0.0347     CD =  0.10911   =>   CDf =  0.00501    CDp =  0.10410

 Side 1  free  transition at x/c =  0.0965   48
 Side 2 forced transition at x/c =  1.0000   58

   2   rms: 0.4562E-01   max: -.3774E+00   C at   48  1
       a = 20.750      CL =  1.5266
      Cm = -0.0369     CD =  0.11536   =>   CDf =  0.00500    CDp =  0.11036

 Side 1  free  transition at x/c =  0.0859   47
 Side 2 forced transition at x/c =  1.0000   58

   3   rms: 0.2805E-01   max: 0.1377E+00   D at   67  1
       a = 20.750      CL =  1.5061
      Cm = -0.0376     CD =  0.11719   =>   CDf =  0.00489    CDp =  0.11230

 Side 1  free  transition at x/c =  0.0953   48
 Side 2 forced transition at x/c =  1.0000   58

   4   rms: 0.1767E-01   max: -.6866E-01   D at   67  1
       a = 20.750      CL =  1.5167
      Cm = -0.0365     CD =  0.11406   =>   CDf =  0.00469    CDp =  0.10937

 Side 1  free  transition at x/c =  0.0878   48
 Side 2 forced transition at x/c =  1.0000   58

   5   rms: 0.7589E-02   max: 0.7386E-01   D at   49  1
       a = 20.750      CL =  1.5132
      Cm = -0.0370     CD =  0.11519   =>   CDf =  0.00482    CDp =  0.11037

 Side 1  free  transition at x/c =  0.0894   48
 Side 2 forced transition at x/c =  1.0000   58

   6   rms: 0.5133E-03   max: -.2976E-02   C at   58  2
       a = 20.750      CL =  1.5130
      Cm = -0.0369     CD =  0.11505   =>   CDf =  0.00478    CDp =  0.11027

 Side 1  free  transition at x/c =  0.0895   48
 Side 2 forced transition at x/c =  1.0000   58

   7   rms: 0.4337E-04   max: -.1949E-03   D at   48  1
       a = 20.750      CL =  1.5130
      Cm = -0.0369     CD =  0.11504   =>   CDf =  0.00478    CDp =  0.11026
 plradd ia,ip,cpol           14           0  2.96114071E-04

 Point added to stored polar  1
 Point written to save file  goe612_Re300k.ext.pol                           
 Dump file unspecified or not available
 Calculating wake trajectory ...
 Calculating source influence matrix ...

 Solving BL system ...

 Side 1  free  transition at x/c =  0.0895   48
 Side 2 forced transition at x/c =  1.0000   58

   1   rms: 0.8356E-01   max: 0.4602E+00   D at   65  1   RLX: 0.309
       a = 21.250      CL =  1.5038
      Cm = -0.0389     CD =  0.12004   =>   CDf =  0.00479    CDp =  0.11526

 Side 1  free  transition at x/c =  0.0855   47
 Side 2 forced transition at x/c =  1.0000   58

   2   rms: 0.5116E-01   max: -.3141E+00   C at   47  1
       a = 21.250      CL =  1.4955
      Cm = -0.0418     CD =  0.12774   =>   CDf =  0.00476    CDp =  0.12298

 Side 1  free  transition at x/c =  0.0603   44
 Side 2 forced transition at x/c =  1.0000   58

   3   rms: 0.5087E-01   max: -.8834E+00   C at   44  1   RLX: 0.566
       a = 21.250      CL =  1.4923
      Cm = -0.0466     CD =  0.12700   =>   CDf =  0.00491    CDp =  0.12210

 Side 1  free  transition at x/c =  0.0740   46
 Side 2 forced transition at x/c =  1.0000   58

   4   rms: 0.8629E-02   max: 0.6403E-01   D at   45  1
       a = 21.250      CL =  1.4780
      Cm = -0.0423     CD =  0.12779   =>   CDf =  0.00465    CDp =  0.12314

 Side 1  free  transition at x/c =  0.0742   46
 Side 2 forced transition at x/c =  1.0000   58

   5   rms: 0.7037E-03   max: -.7045E-02   C at   46  1
       a = 21.250      CL =  1.4776
      Cm = -0.0423     CD =  0.12757   =>   CDf =  0.00463    CDp =  0.12294

 Side 1  free  transition at x/c =  0.0744   46
 Side 2 forced transition at x/c =  1.0000   58

   6   rms: 0.2309E-04   max: -.2181E-03   C at   46  1
       a = 21.250      CL =  1.4776
      Cm = -0.0423     CD =  0.12756   =>   CDf =  0.00463    CDp =  0.12293
 plradd ia,ip,cpol           15           0  2.96114071E-04

 Point added to stored polar  1
 Point written to save file  goe612_Re300k.ext.pol                           
 Dump file unspecified or not available
 Calculating wake trajectory ...
 Calculating source influence matrix ...

 Solving BL system ...

 Side 1  free  transition at x/c =  0.0744   46
 Side 2 forced transition at x/c =  1.0000   58

   1   rms: 0.9041E-01   max: 0.6561E+00   C at   46  1   RLX: 0.292
       a = 21.750      CL =  1.4683
      Cm = -0.0444     CD =  0.13275   =>   CDf =  0.00464    CDp =  0.12811

 Side 1  free  transition at x/c =  0.0628   45
 Side 2 forced transition at x/c =  1.0000   58

   2   rms: 0.8356E-01   max: 0.5746E+00   C at   45  1
       a = 21.750      CL =  1.4306
      Cm = -0.0512     CD =  0.14887   =>   CDf =  0.00473    CDp =  0.14414

 Side 1  free  transition at x/c =  0.0512   43
 Side 2 forced transition at x/c =  1.0000   58

   3   rms: 0.2152E-01   max: -.3708E+00   C at   43  1
       a = 21.750      CL =  1.4266
      Cm = -0.0499     CD =  0.14388   =>   CDf =  0.00471    CDp =  0.13917

 Side 1  free  transition at x/c =  0.0560   44
 Side 2 forced transition at x/c =  1.0000   58

   4   rms: 0.1537E-02   max: 0.2309E-01   C at   44  1
       a = 21.750      CL =  1.4270
      Cm = -0.0497     CD =  0.14293   =>   CDf =  0.00460    CDp =  0.13833

 Side 1  free  transition at x/c =  0.0557   44
 Side 2 forced transition at x/c =  1.0000   58

   5   rms: 0.3112E-04   max: 0.1596E-03   D at   60  1
       a = 21.750      CL =  1.4270
      Cm = -0.0497     CD =  0.14293   =>   CDf =  0.00461    CDp =  0.13832
 plradd ia,ip,cpol           16           0  2.96114071E-04

 Point added to stored polar  1
 Point written to save file  goe612_Re300k.ext.pol                           
 Dump file unspecified or not available
 Calculating wake trajectory ...
 Calculating source influence matrix ...

 Solving BL system ...

 Side 1  free  transition at x/c =  0.0557   44
 Side 2 forced transition at x/c =  1.0000   58

   1   rms: 0.1249E+00   max: 0.1412E+01   C at   44  1   RLX: 0.272
       a = 22.250      CL =  1.4130
      Cm = -0.0526     CD =  0.14944   =>   CDf =  0.00461    CDp =  0.14482

 Side 1  free  transition at x/c =  0.0504   43
 Side 2 forced transition at x/c =  1.0000   58

   2   rms: 0.9145E-01   max: 0.9682E+00   C at   43  1
       a = 22.250      CL =  1.3777
      Cm = -0.0601     CD =  0.16635   =>   CDf =  0.00463    CDp =  0.16172

 Side 1  free  transition at x/c =  0.0417   42
 Side 2 forced transition at x/c =  1.0000   58

   3   rms: 0.1368E-01   max: 0.1330E+00   D at   59  1
       a = 22.250      CL =  1.3763
      Cm = -0.0585     CD =  0.15981   =>   CDf =  0.00460    CDp =  0.15521

 Side 1  free  transition at x/c =  0.0430   42
 Side 2 forced transition at x/c =  1.0000   58

   4   rms: 0.1411E-02   max: -.1157E-01   D at   59  1
       a = 22.250      CL =  1.3767
      Cm = -0.0583     CD =  0.15876   =>   CDf =  0.00456    CDp =  0.15420

 Side 1  free  transition at x/c =  0.0429   42
 Side 2 forced transition at x/c =  1.0000   58

   5   rms: 0.1330E-03   max: 0.1913E-02   C at   42  1
       a = 22.250      CL =  1.3768
      Cm = -0.0583     CD =  0.15880   =>   CDf =  0.00457    CDp =  0.15423

 Side 1  free  transition at x/c =  0.0428   42
 Side 2 forced transition at x/c =  1.0000   58

   6   rms: 0.8890E-05   max: 0.9132E-04   C at   58  2
       a = 22.250      CL =  1.3768
      Cm = -0.0583     CD =  0.15881   =>   CDf =  0.00457    CDp =  0.15424
 plradd ia,ip,cpol           17           0  2.96114071E-04

 Point added to stored polar  1
 Point written to save file  goe612_Re300k.ext.pol                           
 Dump file unspecified or not available

.OPERva   c>  
 Polar accumulation disabled

.OPERv   c>  
 XFOIL   c>  
 XFOIL   c>  