
 ===================================================
  XFOIL Version 6.99
  Copyright (C) 2000   Mark Drela, Harold Youngren

  This software comes with ABSOLUTELY NO WARRANTY,
    subject to the GNU General Public License.

  Caveat computor
 ===================================================

 File  xfoil.def  not found

   QUIT    Exit program

  .OPER    Direct operating point(s)
  .MDES    Complex mapping design routine
  .QDES    Surface speed design routine
  .GDES    Geometry design routine

   SAVE f  Write airfoil to labeled coordinate file
   PSAV f  Write airfoil to plain coordinate file
   ISAV f  Write airfoil to ISES coordinate file
   MSAV f  Write airfoil to MSES coordinate file
   REVE    Reverse written-airfoil node ordering

   LOAD f  Read buffer airfoil from coordinate file
   NACA i  Set NACA 4,5-digit airfoil and buffer airfoil
   INTE    Set buffer airfoil by interpolating two airfoils
   NORM    Buffer airfoil normalization toggle
   XYCM rr Change CM reference location, currently  0.25000 0.00000

   BEND    Display structural properties of current airfoil

   PCOP    Set current-airfoil panel nodes directly from buffer airfoil points
   PANE    Set current-airfoil panel nodes ( 160 ) based on curvature
  .PPAR    Show/change paneling

  .PLOP    Plotting options

   WDEF f  Write  current-settings file
   RDEF f  Reread current-settings file
   NAME s  Specify new airfoil name
   NINC    Increment name version number

   Z       Zoom    | (available in all menus)
   U       Unzoom  | 

 XFOIL   c>  
 Labeled airfoil file.  Name:  GOE 601 AIRFOIL                                 

 Number of input coordinate points:  33
 Counterclockwise ordering
 Max thickness =     0.160682  at x =   0.306
 Max camber    =     0.024082  at x =   0.505

  LE  x,y  =  -0.00003   0.00128  |   Chord =   1.00003
  TE  x,y  =   1.00000   0.00000  |

 Current airfoil nodes set from buffer airfoil nodes (  33 )

 WARNING: Poor input coordinate distribution
          Excessive panel angle   59.8  at i =  17
          Repaneling with PANE and/or PPAR suggested
           (doing GDES,CADD before repaneling _may_
            improve excessively coarse LE spacing

 XFOIL   c>  
 XFOIL   c>  
 Sharp trailing edge

 Paneling parameters used...
   Number of panel nodes       160
   Panel bunching parameter    1.000
   TE/LE panel density ratio   0.150
   Refined-area/LE panel density ratio    0.200
   Top    side refined area x/c limits  1.000 1.000
   Bottom side refined area x/c limits  1.000 1.000

 XFOIL   c>  
.OPERi   c>  
 Xtr/c     =  1.0000    top    side
 Xtr/c     =  1.0000    bottom side
 Ncrit     =    9.00   ( 0.070 % turb. level )
 Vacc      =  0.0100

 Klag  =  5.6000     Uxwt  =    1.00
 A     =  6.7000     B     =  0.7500       KCt = 0.01485
 CtiniK=  1.8000     CtiniX=  3.3000

..VPAR   c>  
..VPAR   c>  
.OPERi   c>  
 M  =    0.0000
 Re =    500000

.OPERv   c>  
.OPERv   c>  
.OPERv   c>  
 Polar  1 newly created for accumulation
 Airfoil archived with polar: GOE 601 AIRFOIL                                 

Enter  polar save filename  OR  <return> for no file   s>  
 New polar save file available

Enter  polar dump filename  OR  <return> for no file   s>  
 Polar dump file will NOT be written

 Polar accumulation enabled

.OPERva   c>   Calculating unit vorticity distributions ...
 Calculating wake trajectory ...
 Calculating source influence matrix ...

 Solving BL system ...

 Initializing BL ...
    side            1  ...
 MRCHUE: Inverse mode at  54     Hk =   3.961
 MRCHUE: Inverse mode at  55     Hk =   4.655
 MRCHUE: Inverse mode at  56     Hk =   5.339
 MRCHUE: Inverse mode at  57     Hk =   6.018
 MRCHUE: Inverse mode at  58     Hk =   6.697
 MRCHUE: Inverse mode at  59     Hk =   7.378
 MRCHUE: Inverse mode at  60     Hk =   8.060
 MRCHUE: Inverse mode at  61     Hk =   8.741
 MRCHUE: Inverse mode at  62     Hk =   8.296
 MRCHUE: Inverse mode at  63     Hk =   5.503
 MRCHUE: Inverse mode at  64     Hk =   3.931
 MRCHUE: Inverse mode at  65     Hk =   2.848
 MRCHUE: Inverse mode at  76     Hk =   2.500
    side            2  ...
 MRCHUE: Inverse mode at  23     Hk =   3.987
 MRCHUE: Inverse mode at  32     Hk =   4.494
 MRCHUE: Inverse mode at  33     Hk =   5.840
 MRCHUE: Inverse mode at  34     Hk =   7.229
 MRCHUE: Inverse mode at  35     Hk =   8.597
 MRCHUE: Inverse mode at  36     Hk =   3.497
 MRCHUE: Inverse mode at  37     Hk =   2.500
 MRCHUE: Inverse mode at  85     Hk =   2.500
 MRCHUE: Inverse mode at  86     Hk =   2.500

 Side 1  free  transition at x/c =  0.7938   62
 Side 2  free  transition at x/c =  0.1402   36

   1   rms: 0.2533E+00   max: -.1496E+01   T at   36  2   RLX: 0.334
       a = -4.000      CL = -0.0852
      Cm = -0.0823     CD =  0.00932   =>   CDf =  0.00696    CDp =  0.00237

 Side 1  free  transition at x/c =  0.8029   63
 Side 2  free  transition at x/c =  0.1496   36

   2   rms: 0.1403E+00   max: -.9563E+00   T at   36  2   RLX: 0.523
       a = -4.000      CL = -0.0516
      Cm = -0.0896     CD =  0.00951   =>   CDf =  0.00702    CDp =  0.00249

 Side 1  free  transition at x/c =  0.8072   64
 Side 2  free  transition at x/c =  0.1664   36

   3   rms: 0.8002E-01   max: -.8222E+00   T at   36  2   RLX: 0.608
       a = -4.000      CL = -0.0576
      Cm = -0.0880     CD =  0.00964   =>   CDf =  0.00688    CDp =  0.00277

 Side 1  free  transition at x/c =  0.8090   64
 Side 2  free  transition at x/c =  0.2641   43

   4   rms: 0.9860E-01   max: -.1178E+01   C at   43  2   RLX: 0.425
       a = -4.000      CL = -0.0787
      Cm = -0.0843     CD =  0.00916   =>   CDf =  0.00635    CDp =  0.00281

 Side 1  free  transition at x/c =  0.8088   64
 Side 2  free  transition at x/c =  0.2857   44
 idif Ue xi dudx           1  0.10934964      2.53391266E-03   43.154461    
 Uenew xinew           2  6.53340388E-03  1.51395798E-04

   5   rms: 0.5204E-01   max: -.7530E+00   C at   44  2   RLX: 0.664
       a = -4.000      CL = -0.0952
      Cm = -0.0803     CD =  0.00930   =>   CDf =  0.00616    CDp =  0.00314

 Side 1  free  transition at x/c =  0.8084   63
 Side 2  free  transition at x/c =  0.2969   45

   6   rms: 0.1415E-01   max: -.1825E+00   C at   45  2
       a = -4.000      CL = -0.1032
      Cm = -0.0782     CD =  0.00950   =>   CDf =  0.00616    CDp =  0.00334

 Side 1  free  transition at x/c =  0.8081   63
 Side 2  free  transition at x/c =  0.3086   46

   7   rms: 0.4246E-02   max: 0.7954E-01   C at   46  2
       a = -4.000      CL = -0.1047
      Cm = -0.0779     CD =  0.00944   =>   CDf =  0.00607    CDp =  0.00336

 Side 1  free  transition at x/c =  0.8080   63
 Side 2  free  transition at x/c =  0.3064   46

   8   rms: 0.5650E-04   max: -.9126E-03   D at   47  2
       a = -4.000      CL = -0.1047
      Cm = -0.0779     CD =  0.00944   =>   CDf =  0.00608    CDp =  0.00335
 plradd ia,ip,cpol            1           0  1.61705799E-02

 Point added to stored polar  1
 Point written to save file  goe601_Re500k.base.pol                          
 Dump file unspecified or not available
 Calculating wake trajectory ...
 Calculating source influence matrix ...

 Solving BL system ...

 Side 1  free  transition at x/c =  0.8080   63
 Side 2  free  transition at x/c =  0.3064   46

   1   rms: 0.9978E-01   max: -.1220E+01   C at   46  2   RLX: 0.410
       a = -3.500      CL = -0.0854
      Cm = -0.0772     CD =  0.00929   =>   CDf =  0.00613    CDp =  0.00316

 Side 1  free  transition at x/c =  0.8031   64
 Side 2  free  transition at x/c =  0.3213   46

   2   rms: 0.6463E-01   max: -.7792E+00   C at   46  2   RLX: 0.642
       a = -3.500      CL = -0.0665
      Cm = -0.0767     CD =  0.00918   =>   CDf =  0.00608    CDp =  0.00310

 Side 1  free  transition at x/c =  0.7990   64
 Side 2  free  transition at x/c =  0.3337   47

   3   rms: 0.3875E-01   max: -.4148E+00   C at   47  2
       a = -3.500      CL = -0.0554
      Cm = -0.0767     CD =  0.00907   =>   CDf =  0.00614    CDp =  0.00293

 Side 1  free  transition at x/c =  0.7973   63
 Side 2  free  transition at x/c =  0.3653   48

   4   rms: 0.1377E-01   max: 0.2943E+00   C at   48  2
       a = -3.500      CL = -0.0554
      Cm = -0.0767     CD =  0.00912   =>   CDf =  0.00594    CDp =  0.00317

 Side 1  free  transition at x/c =  0.7971   63
 Side 2  free  transition at x/c =  0.3576   48

   5   rms: 0.3858E-03   max: -.6506E-02   C at   48  2
       a = -3.500      CL = -0.0553
      Cm = -0.0767     CD =  0.00912   =>   CDf =  0.00598    CDp =  0.00314

 Side 1  free  transition at x/c =  0.7971   63
 Side 2  free  transition at x/c =  0.3578   48

   6   rms: 0.1322E-05   max: 0.6704E-05   C at   48  2
       a = -3.500      CL = -0.0553
      Cm = -0.0767     CD =  0.00912   =>   CDf =  0.00598    CDp =  0.00314
 plradd ia,ip,cpol            2           0  1.94019880E-02

 Point added to stored polar  1
 Point written to save file  goe601_Re500k.base.pol                          
 Dump file unspecified or not available
 Calculating wake trajectory ...
 Calculating source influence matrix ...

 Solving BL system ...

 Side 1  free  transition at x/c =  0.7971   63
 Side 2  free  transition at x/c =  0.3578   48

   1   rms: 0.1074E+00   max: -.1576E+01   C at   48  2   RLX: 0.317
       a = -3.000      CL = -0.0424
      Cm = -0.0757     CD =  0.00899   =>   CDf =  0.00598    CDp =  0.00301

 Side 1  free  transition at x/c =  0.7935   63
 Side 2  free  transition at x/c =  0.3713   49

   2   rms: 0.8239E-01   max: -.1219E+01   C at   49  2   RLX: 0.410
       a = -3.000      CL = -0.0297
      Cm = -0.0751     CD =  0.00891   =>   CDf =  0.00597    CDp =  0.00293

 Side 1  free  transition at x/c =  0.7905   64
 Side 2  free  transition at x/c =  0.3861   49

   3   rms: 0.6785E-01   max: -.9064E+00   C at   49  2   RLX: 0.552
       a = -3.000      CL = -0.0196
      Cm = -0.0747     CD =  0.00882   =>   CDf =  0.00590    CDp =  0.00292

 Side 1  free  transition at x/c =  0.7882   64
 Side 2  free  transition at x/c =  0.4017   49

   4   rms: 0.2691E-01   max: -.4518E+00   C at   49  2
       a = -3.000      CL = -0.0087
      Cm = -0.0748     CD =  0.00885   =>   CDf =  0.00584    CDp =  0.00300

 Side 1  free  transition at x/c =  0.7865   64
 Side 2  free  transition at x/c =  0.4359   52

   5   rms: 0.1209E-01   max: 0.1881E+00   C at   52  2
       a = -3.000      CL = -0.0094
      Cm = -0.0747     CD =  0.00883   =>   CDf =  0.00571    CDp =  0.00312

 Side 1  free  transition at x/c =  0.7866   64
 Side 2  free  transition at x/c =  0.4285   51

   6   rms: 0.2721E-02   max: -.4154E-01   D at   53  2
       a = -3.000      CL = -0.0099
      Cm = -0.0746     CD =  0.00881   =>   CDf =  0.00572    CDp =  0.00309

 Side 1  free  transition at x/c =  0.7866   64
 Side 2  free  transition at x/c =  0.4270   51

   7   rms: 0.4092E-04   max: -.8066E-03   D at   53  2
       a = -3.000      CL = -0.0099
      Cm = -0.0746     CD =  0.00881   =>   CDf =  0.00573    CDp =  0.00308
 plradd ia,ip,cpol            3           0  1.94019880E-02

 Point added to stored polar  1
 Point written to save file  goe601_Re500k.base.pol                          
 Dump file unspecified or not available
 Calculating wake trajectory ...
 Calculating source influence matrix ...

 Solving BL system ...

 Side 1  free  transition at x/c =  0.7866   64
 Side 2  free  transition at x/c =  0.4270   51

   1   rms: 0.9716E-01   max: -.1112E+01   C at   51  2   RLX: 0.450
       a = -2.500      CL =  0.0129
      Cm = -0.0741     CD =  0.00875   =>   CDf =  0.00573    CDp =  0.00302

 Side 1  free  transition at x/c =  0.7817   64
 Side 2  free  transition at x/c =  0.4477   52

   2   rms: 0.4674E-01   max: -.1558E+00   T at   52  2
       a = -2.500      CL =  0.0461
      Cm = -0.0745     CD =  0.00887   =>   CDf =  0.00577    CDp =  0.00310

 Side 1  free  transition at x/c =  0.7771   64
 Side 2  free  transition at x/c =  0.4775   53

   3   rms: 0.1709E-01   max: 0.2975E+00   C at   53  2
       a = -2.500      CL =  0.0411
      Cm = -0.0735     CD =  0.00874   =>   CDf =  0.00566    CDp =  0.00307

 Side 1  free  transition at x/c =  0.7761   64
 Side 2  free  transition at x/c =  0.4704   53

   4   rms: 0.1029E-02   max: -.1593E-01   D at   55  2
       a = -2.500      CL =  0.0414
      Cm = -0.0735     CD =  0.00876   =>   CDf =  0.00571    CDp =  0.00305

 Side 1  free  transition at x/c =  0.7761   64
 Side 2  free  transition at x/c =  0.4703   53

   5   rms: 0.6714E-05   max: -.1142E-03   D at   55  2
       a = -2.500      CL =  0.0414
      Cm = -0.0735     CD =  0.00876   =>   CDf =  0.00571    CDp =  0.00304
 plradd ia,ip,cpol            4           0  6.44998625E-02

 Point added to stored polar  1
 Point written to save file  goe601_Re500k.base.pol                          
 Dump file unspecified or not available
 Calculating wake trajectory ...
 Calculating source influence matrix ...

 Solving BL system ...

 Side 1  free  transition at x/c =  0.7761   64
 Side 2  free  transition at x/c =  0.4703   53

   1   rms: 0.8418E-01   max: 0.4851E+00   D at   53  2
       a = -2.000      CL =  0.0876
      Cm = -0.0715     CD =  0.00854   =>   CDf =  0.00572    CDp =  0.00282

 Side 1  free  transition at x/c =  0.7658   64
 Side 2  free  transition at x/c =  0.4862   53

   2   rms: 0.1994E-01   max: -.3105E+00   D at   53  2
       a = -2.000      CL =  0.0951
      Cm = -0.0729     CD =  0.00884   =>   CDf =  0.00592    CDp =  0.00292

 Side 1  free  transition at x/c =  0.7665   64
 Side 2  free  transition at x/c =  0.5021   54

   3   rms: 0.1006E-01   max: -.1706E+00   C at   54  2
       a = -2.000      CL =  0.0929
      Cm = -0.0725     CD =  0.00866   =>   CDf =  0.00572    CDp =  0.00294

 Side 1  free  transition at x/c =  0.7665   64
 Side 2  free  transition at x/c =  0.4976   54

   4   rms: 0.7943E-03   max: -.1102E-01   C at   54  2
       a = -2.000      CL =  0.0930
      Cm = -0.0725     CD =  0.00868   =>   CDf =  0.00570    CDp =  0.00298

 Side 1  free  transition at x/c =  0.7665   64
 Side 2  free  transition at x/c =  0.4980   54

   5   rms: 0.4530E-05   max: -.7120E-04   D at   56  2
       a = -2.000      CL =  0.0930
      Cm = -0.0725     CD =  0.00868   =>   CDf =  0.00569    CDp =  0.00299
 plradd ia,ip,cpol            5           0  6.44998625E-02

 Point added to stored polar  1
 Point written to save file  goe601_Re500k.base.pol                          
 Dump file unspecified or not available
 Calculating wake trajectory ...
 Calculating source influence matrix ...

 Solving BL system ...

 Side 1  free  transition at x/c =  0.7665   64
 Side 2  free  transition at x/c =  0.4980   54

   1   rms: 0.7991E-01   max: 0.2824E+00   D at   55  2
       a = -1.500      CL =  0.1474
      Cm = -0.0721     CD =  0.00868   =>   CDf =  0.00571    CDp =  0.00297

 Side 1  free  transition at x/c =  0.7565   64
 Side 2  free  transition at x/c =  0.5176   54

   2   rms: 0.1171E-01   max: -.1409E+00   D at   64  1
       a = -1.500      CL =  0.1445
      Cm = -0.0715     CD =  0.00862   =>   CDf =  0.00572    CDp =  0.00290

 Side 1  free  transition at x/c =  0.7561   64
 Side 2  free  transition at x/c =  0.5214   54

   3   rms: 0.7865E-03   max: -.1186E-01   C at   54  2
       a = -1.500      CL =  0.1446
      Cm = -0.0715     CD =  0.00863   =>   CDf =  0.00570    CDp =  0.00293

 Side 1  free  transition at x/c =  0.7560   64
 Side 2  free  transition at x/c =  0.5217   54

   4   rms: 0.4855E-05   max: -.5289E-04   D at   56  2
       a = -1.500      CL =  0.1446
      Cm = -0.0715     CD =  0.00863   =>   CDf =  0.00570    CDp =  0.00293
 plradd ia,ip,cpol            6           0  7.34263062E-02

 Point added to stored polar  1
 Point written to save file  goe601_Re500k.base.pol                          
 Dump file unspecified or not available
 Calculating wake trajectory ...
 Calculating source influence matrix ...

 Solving BL system ...

 Side 1  free  transition at x/c =  0.7560   64
 Side 2  free  transition at x/c =  0.5217   54

   1   rms: 0.7563E-01   max: -.2392E+00   T at   54  2
       a = -1.000      CL =  0.1962
      Cm = -0.0704     CD =  0.00864   =>   CDf =  0.00571    CDp =  0.00293

 Side 1  free  transition at x/c =  0.7450   64
 Side 2  free  transition at x/c =  0.5416   55

   2   rms: 0.1248E-01   max: -.1120E+00   D at   65  1
       a = -1.000      CL =  0.1989
      Cm = -0.0711     CD =  0.00855   =>   CDf =  0.00578    CDp =  0.00277

 Side 1  free  transition at x/c =  0.7461   65
 Side 2  free  transition at x/c =  0.5440   55

   3   rms: 0.2635E-02   max: -.2961E-01   D at   64  1
       a = -1.000      CL =  0.1977
      Cm = -0.0708     CD =  0.00855   =>   CDf =  0.00570    CDp =  0.00285

 Side 1  free  transition at x/c =  0.7459   65
 Side 2  free  transition at x/c =  0.5432   55

   4   rms: 0.1115E-03   max: 0.1443E-02   D at   65  1
       a = -1.000      CL =  0.1977
      Cm = -0.0708     CD =  0.00855   =>   CDf =  0.00571    CDp =  0.00284

 Side 1  free  transition at x/c =  0.7459   65
 Side 2  free  transition at x/c =  0.5432   55

   5   rms: 0.1014E-05   max: 0.7616E-05   C at   55  2
       a = -1.000      CL =  0.1977
      Cm = -0.0708     CD =  0.00855   =>   CDf =  0.00571    CDp =  0.00284
 plradd ia,ip,cpol            7           0  0.17690279    

 Point added to stored polar  1
 Point written to save file  goe601_Re500k.base.pol                          
 Dump file unspecified or not available
 Calculating wake trajectory ...
 Calculating source influence matrix ...

 Solving BL system ...

 Side 1  free  transition at x/c =  0.7459   65
 Side 2  free  transition at x/c =  0.5432   55

   1   rms: 0.8367E-01   max: 0.3449E+00   D at   55  2
       a = -0.500      CL =  0.2542
      Cm = -0.0709     CD =  0.00850   =>   CDf =  0.00571    CDp =  0.00279

 Side 1  free  transition at x/c =  0.7342   65
 Side 2  free  transition at x/c =  0.5567   54

   2   rms: 0.2528E-01   max: -.2578E+00   D at   54  2
       a = -0.500      CL =  0.2487
      Cm = -0.0696     CD =  0.00848   =>   CDf =  0.00578    CDp =  0.00270

 Side 1  free  transition at x/c =  0.7340   65
 Side 2  free  transition at x/c =  0.5651   55

   3   rms: 0.4026E-02   max: -.6563E-01   D at   54  2
       a = -0.500      CL =  0.2470
      Cm = -0.0693     CD =  0.00842   =>   CDf =  0.00563    CDp =  0.00279

 Side 1  free  transition at x/c =  0.7338   65
 Side 2  free  transition at x/c =  0.5636   55

   4   rms: 0.3758E-03   max: 0.5835E-02   C at   55  2
       a = -0.500      CL =  0.2470
      Cm = -0.0693     CD =  0.00842   =>   CDf =  0.00563    CDp =  0.00279

 Side 1  free  transition at x/c =  0.7338   65
 Side 2  free  transition at x/c =  0.5635   55

   5   rms: 0.1618E-05   max: -.2402E-04   D at   56  2
       a = -0.500      CL =  0.2470
      Cm = -0.0693     CD =  0.00842   =>   CDf =  0.00563    CDp =  0.00279
 plradd ia,ip,cpol            8           0  0.17690279    

 Point added to stored polar  1
 Point written to save file  goe601_Re500k.base.pol                          
 Dump file unspecified or not available
 Calculating wake trajectory ...
 Calculating source influence matrix ...

 Solving BL system ...

 Side 1  free  transition at x/c =  0.7338   65
 Side 2  free  transition at x/c =  0.5635   55

   1   rms: 0.7905E-01   max: -.3697E+00   C at   55  2
       a =  0.000      CL =  0.2977
      Cm = -0.0681     CD =  0.00826   =>   CDf =  0.00562    CDp =  0.00264

 Side 1  free  transition at x/c =  0.7243   65
 Side 2  free  transition at x/c =  0.5810   55

   2   rms: 0.1777E-01   max: -.2116E+00   C at   55  2
       a =  0.000      CL =  0.2979
      Cm = -0.0681     CD =  0.00830   =>   CDf =  0.00566    CDp =  0.00264

 Side 1  free  transition at x/c =  0.7225   65
 Side 2  free  transition at x/c =  0.5872   55

   3   rms: 0.1664E-02   max: -.2284E-01   D at   55  2
       a =  0.000      CL =  0.2979
      Cm = -0.0681     CD =  0.00832   =>   CDf =  0.00558    CDp =  0.00274

 Side 1  free  transition at x/c =  0.7226   65
 Side 2  free  transition at x/c =  0.5872   55

   4   rms: 0.1790E-04   max: 0.3265E-03   C at   55  2
       a =  0.000      CL =  0.2979
      Cm = -0.0681     CD =  0.00832   =>   CDf =  0.00557    CDp =  0.00275
 plradd ia,ip,cpol            9           0  0.16259411    

 Point added to stored polar  1
 Point written to save file  goe601_Re500k.base.pol                          
 Dump file unspecified or not available
 Calculating wake trajectory ...
 Calculating source influence matrix ...

 Solving BL system ...

 Side 1  free  transition at x/c =  0.7226   65
 Side 2  free  transition at x/c =  0.5872   55

   1   rms: 0.7828E-01   max: -.4620E+00   C at   55  2
       a =  0.500      CL =  0.3458
      Cm = -0.0663     CD =  0.00819   =>   CDf =  0.00557    CDp =  0.00262

 Side 1  free  transition at x/c =  0.7057   64
 Side 2  free  transition at x/c =  0.6032   56

   2   rms: 0.2531E-01   max: -.3027E+00   C at   56  2
       a =  0.500      CL =  0.3486
      Cm = -0.0669     CD =  0.00819   =>   CDf =  0.00564    CDp =  0.00255

 Side 1  free  transition at x/c =  0.7096   64
 Side 2  free  transition at x/c =  0.6128   57

   3   rms: 0.7559E-02   max: -.1142E+00   C at   57  2
       a =  0.500      CL =  0.3480
      Cm = -0.0668     CD =  0.00821   =>   CDf =  0.00557    CDp =  0.00264

 Side 1  free  transition at x/c =  0.7092   64
 Side 2  free  transition at x/c =  0.6146   57

   4   rms: 0.1014E-02   max: 0.1633E-01   C at   57  2
       a =  0.500      CL =  0.3479
      Cm = -0.0667     CD =  0.00821   =>   CDf =  0.00552    CDp =  0.00269

 Side 1  free  transition at x/c =  0.7092   64
 Side 2  free  transition at x/c =  0.6141   57

   5   rms: 0.7982E-05   max: -.1438E-03   D at   58  2
       a =  0.500      CL =  0.3479
      Cm = -0.0667     CD =  0.00821   =>   CDf =  0.00553    CDp =  0.00269
 plradd ia,ip,cpol           10           0  0.16259411    

 Point added to stored polar  1
 Point written to save file  goe601_Re500k.base.pol                          
 Dump file unspecified or not available
 Calculating wake trajectory ...
 Calculating source influence matrix ...

 Solving BL system ...

 Side 1  free  transition at x/c =  0.7092   64
 Side 2  free  transition at x/c =  0.6141   57

   1   rms: 0.7937E-01   max: -.5757E+00   C at   57  2   RLX: 0.868
       a =  1.000      CL =  0.3847
      Cm = -0.0642     CD =  0.00802   =>   CDf =  0.00549    CDp =  0.00253

 Side 1  free  transition at x/c =  0.6935   64
 Side 2  free  transition at x/c =  0.6305   57

   2   rms: 0.3613E-01   max: -.3971E+00   C at   57  2
       a =  1.000      CL =  0.3975
      Cm = -0.0653     CD =  0.00801   =>   CDf =  0.00564    CDp =  0.00237

 Side 1  free  transition at x/c =  0.6953   65
 Side 2  free  transition at x/c =  0.6520   58

   3   rms: 0.5651E-02   max: 0.7559E-01   C at   58  2
       a =  1.000      CL =  0.3960
      Cm = -0.0649     CD =  0.00809   =>   CDf =  0.00541    CDp =  0.00268

 Side 1  free  transition at x/c =  0.6947   65
 Side 2  free  transition at x/c =  0.6479   57

   4   rms: 0.1786E-03   max: -.2627E-02   D at   59  2
       a =  1.000      CL =  0.3959
      Cm = -0.0649     CD =  0.00810   =>   CDf =  0.00543    CDp =  0.00266

 Side 1  free  transition at x/c =  0.6947   65
 Side 2  free  transition at x/c =  0.6478   57

   5   rms: 0.1345E-05   max: 0.9430E-05   D at   65  1
       a =  1.000      CL =  0.3959
      Cm = -0.0649     CD =  0.00810   =>   CDf =  0.00543    CDp =  0.00266
 plradd ia,ip,cpol           11           0  0.14871377    

 Point added to stored polar  1
 Point written to save file  goe601_Re500k.base.pol                          
 Dump file unspecified or not available
 Calculating wake trajectory ...
 Calculating source influence matrix ...

 Solving BL system ...

 Side 1  free  transition at x/c =  0.6947   65
 Side 2  free  transition at x/c =  0.6478   57

   1   rms: 0.8067E-01   max: -.4454E+00   C at   57  2
       a =  1.500      CL =  0.4497
      Cm = -0.0643     CD =  0.00814   =>   CDf =  0.00538    CDp =  0.00275

 Side 1  free  transition at x/c =  0.6796   65
 Side 2  free  transition at x/c =  0.6906   59

   2   rms: 0.1949E-01   max: -.2606E+00   D at   65  1
       a =  1.500      CL =  0.4415
      Cm = -0.0626     CD =  0.00792   =>   CDf =  0.00529    CDp =  0.00263

 Side 1  free  transition at x/c =  0.6801   65
 Side 2  free  transition at x/c =  0.6931   59

   3   rms: 0.2423E-02   max: 0.3068E-01   C at   65  1
       a =  1.500      CL =  0.4417
      Cm = -0.0626     CD =  0.00796   =>   CDf =  0.00525    CDp =  0.00271

 Side 1  free  transition at x/c =  0.6794   65
 Side 2  free  transition at x/c =  0.6929   59

   4   rms: 0.6630E-04   max: -.9458E-03   D at   66  1
       a =  1.500      CL =  0.4418
      Cm = -0.0626     CD =  0.00796   =>   CDf =  0.00526    CDp =  0.00270
 plradd ia,ip,cpol           12           0  0.14871377    

 Point added to stored polar  1
 Point written to save file  goe601_Re500k.base.pol                          
 Dump file unspecified or not available
 Calculating wake trajectory ...
 Calculating source influence matrix ...

 Solving BL system ...

 Side 1  free  transition at x/c =  0.6794   65
 Side 2  free  transition at x/c =  0.6929   59

   1   rms: 0.9018E-01   max: -.9356E+00   C at   59  2   RLX: 0.534
       a =  2.000      CL =  0.4673
      Cm = -0.0616     CD =  0.00792   =>   CDf =  0.00527    CDp =  0.00265

 Side 1  free  transition at x/c =  0.6715   64
 Side 2  free  transition at x/c =  0.7154   60

   2   rms: 0.4023E-01   max: -.4343E+00   C at   60  2
       a =  2.000      CL =  0.4859
      Cm = -0.0600     CD =  0.00785   =>   CDf =  0.00521    CDp =  0.00264

 Side 1  free  transition at x/c =  0.6601   63
 Side 2  free  transition at x/c =  0.7458   62

   3   rms: 0.8125E-02   max: -.9879E-01   C at   62  2
       a =  2.000      CL =  0.4867
      Cm = -0.0601     CD =  0.00785   =>   CDf =  0.00515    CDp =  0.00270

 Side 1  free  transition at x/c =  0.6627   64
 Side 2  free  transition at x/c =  0.7485   62

   4   rms: 0.1680E-02   max: 0.2815E-01   D at   64  1
       a =  2.000      CL =  0.4861
      Cm = -0.0600     CD =  0.00784   =>   CDf =  0.00509    CDp =  0.00275

 Side 1  free  transition at x/c =  0.6622   64
 Side 2  free  transition at x/c =  0.7485   62

   5   rms: 0.7288E-04   max: 0.9125E-03   C at   64  1
       a =  2.000      CL =  0.4861
      Cm = -0.0600     CD =  0.00783   =>   CDf =  0.00509    CDp =  0.00275
 plradd ia,ip,cpol           13           0  0.14871377    

 Point added to stored polar  1
 Point written to save file  goe601_Re500k.base.pol                          
 Dump file unspecified or not available
 Calculating wake trajectory ...
 Calculating source influence matrix ...

 Solving BL system ...

 Side 1  free  transition at x/c =  0.6621   64
 Side 2  free  transition at x/c =  0.7485   62

   1   rms: 0.9840E-01   max: -.1229E+01   C at   62  2   RLX: 0.407
       a =  2.500      CL =  0.5044
      Cm = -0.0589     CD =  0.00780   =>   CDf =  0.00502    CDp =  0.00278

 Side 1  free  transition at x/c =  0.6558   64
 Side 2  free  transition at x/c =  0.7730   62

   2   rms: 0.5354E-01   max: -.6171E+00   C at   62  2   RLX: 0.810
       a =  2.500      CL =  0.5239
      Cm = -0.0573     CD =  0.00774   =>   CDf =  0.00501    CDp =  0.00273

 Side 1  free  transition at x/c =  0.6430   63
 Side 2  free  transition at x/c =  0.8099   64

   3   rms: 0.1756E-01   max: -.2693E+00   C at   64  2
       a =  2.500      CL =  0.5290
      Cm = -0.0568     CD =  0.00771   =>   CDf =  0.00492    CDp =  0.00279

 Side 1  free  transition at x/c =  0.6432   63
 Side 2  free  transition at x/c =  0.8212   65

   4   rms: 0.4691E-02   max: -.9041E-01   C at   65  2
       a =  2.500      CL =  0.5292
      Cm = -0.0569     CD =  0.00771   =>   CDf =  0.00486    CDp =  0.00285

 Side 1  free  transition at x/c =  0.6430   63
 Side 2  free  transition at x/c =  0.8240   65

   5   rms: 0.1029E-03   max: -.1968E-02   C at   65  2
       a =  2.500      CL =  0.5292
      Cm = -0.0569     CD =  0.00771   =>   CDf =  0.00484    CDp =  0.00287

 Side 1  free  transition at x/c =  0.6430   63
 Side 2  free  transition at x/c =  0.8241   65

   6   rms: 0.1026E-05   max: -.1728E-04   C at   65  2
       a =  2.500      CL =  0.5292
      Cm = -0.0569     CD =  0.00771   =>   CDf =  0.00484    CDp =  0.00287
 plradd ia,ip,cpol           14           0  0.13529959    

 Point added to stored polar  1
 Point written to save file  goe601_Re500k.base.pol                          
 Dump file unspecified or not available
 Calculating wake trajectory ...
 Calculating source influence matrix ...

 Solving BL system ...

 Side 1  free  transition at x/c =  0.6430   63
 Side 2  free  transition at x/c =  0.8241   65

   1   rms: 0.9876E-01   max: -.1296E+01   C at   65  2   RLX: 0.386
       a =  3.000      CL =  0.5456
      Cm = -0.0557     CD =  0.00766   =>   CDf =  0.00484    CDp =  0.00282

 Side 1  free  transition at x/c =  0.6321   63
 Side 2  free  transition at x/c =  0.8488   67

   2   rms: 0.2488E+01   max: 0.4479E+02   D at    2  2   RLX: 0.029
       a =  3.000      CL =  0.5468
      Cm = -0.0558     CD =  0.00773   =>   CDf =  0.00472    CDp =  0.00301

 Side 1  free  transition at x/c =  0.6317   64
 Side 2  free  transition at x/c =  0.8500   66

   3   rms: 0.4507E+00   max: 0.7841E+01   T at    2  1   RLX: 0.147
       a =  3.000      CL =  0.5516
      Cm = -0.0558     CD =  0.00772   =>   CDf =  0.00479    CDp =  0.00293

 Side 1  free  transition at x/c =  0.6298   64
 Side 2  free  transition at x/c =  0.8555   66

   4   rms: 0.5805E-01   max: -.7613E+00   C at   66  2   RLX: 0.657
       a =  3.000      CL =  0.5693
      Cm = -0.0553     CD =  0.00772   =>   CDf =  0.00477    CDp =  0.00295

 Side 1  free  transition at x/c =  0.6228   63
 Side 2  free  transition at x/c =  0.8747   67

   5   rms: 0.2463E-01   max: -.3699E+00   C at   67  2
       a =  3.000      CL =  0.5786
      Cm = -0.0551     CD =  0.00771   =>   CDf =  0.00472    CDp =  0.00299

 Side 1  free  transition at x/c =  0.6170   63
 Side 2  free  transition at x/c =  0.8946   68

   6   rms: 0.3358E-02   max: 0.2132E-01   D at   74  2
       a =  3.000      CL =  0.5821
      Cm = -0.0559     CD =  0.00775   =>   CDf =  0.00466    CDp =  0.00309

 Side 1  free  transition at x/c =  0.6172   63
 Side 2  free  transition at x/c =  0.8951   68

   7   rms: 0.3352E-04   max: -.3874E-03   D at   74  2
       a =  3.000      CL =  0.5821
      Cm = -0.0559     CD =  0.00775   =>   CDf =  0.00466    CDp =  0.00309
 plradd ia,ip,cpol           15           0  0.13529959    

 Point added to stored polar  1
 Point written to save file  goe601_Re500k.base.pol                          
 Dump file unspecified or not available
 Calculating wake trajectory ...
 Calculating source influence matrix ...

 Solving BL system ...

 Side 1  free  transition at x/c =  0.6172   63
 Side 2  free  transition at x/c =  0.8951   68

   1   rms: 0.9904E-01   max: -.7458E+00   C at   68  2   RLX: 0.670
       a =  3.500      CL =  0.6225
      Cm = -0.0563     CD =  0.00788   =>   CDf =  0.00459    CDp =  0.00329

 Side 1  free  transition at x/c =  0.5935   62
 Side 2  free  transition at x/c =  0.9274   69

   2   rms: 0.1215E+00   max: 0.1959E+01   T at    2  1   RLX: 0.520
       a =  3.500      CL =  0.6402
      Cm = -0.0580     CD =  0.00801   =>   CDf =  0.00470    CDp =  0.00331

 Side 1  free  transition at x/c =  0.5850   62
 Side 2  free  transition at x/c =  0.9328   69

   3   rms: 0.1796E-01   max: -.1399E+00   D at   63  1
       a =  3.500      CL =  0.6522
      Cm = -0.0588     CD =  0.00810   =>   CDf =  0.00470    CDp =  0.00340

 Side 1  free  transition at x/c =  0.5775   62
 Side 2  free  transition at x/c =  0.9397   70

   4   rms: 0.1479E-02   max: -.2159E-01   C at   62  1
       a =  3.500      CL =  0.6524
      Cm = -0.0588     CD =  0.00813   =>   CDf =  0.00473    CDp =  0.00339

 Side 1  free  transition at x/c =  0.5780   62
 Side 2  free  transition at x/c =  0.9397   70

   5   rms: 0.2013E-04   max: -.2889E-03   D at   64  1
       a =  3.500      CL =  0.6524
      Cm = -0.0588     CD =  0.00813   =>   CDf =  0.00473    CDp =  0.00340
 plradd ia,ip,cpol           16           0  0.12240198    

 Point added to stored polar  1
 Point written to save file  goe601_Re500k.base.pol                          
 Dump file unspecified or not available
 Calculating wake trajectory ...
 Calculating source influence matrix ...

 Solving BL system ...

 Side 1  free  transition at x/c =  0.5780   62
 Side 2  free  transition at x/c =  0.9397   70

   1   rms: 0.1299E+00   max: 0.1101E+01   C at   62  1   RLX: 0.690
       a =  4.000      CL =  0.7091
      Cm = -0.0628     CD =  0.00866   =>   CDf =  0.00467    CDp =  0.00399

 Side 1  free  transition at x/c =  0.5238   59
 Side 2  free  transition at x/c =  0.9503   69

   2   rms: 0.3409E-01   max: -.2745E+00   T at   69  2
       a =  4.000      CL =  0.6962
      Cm = -0.0562     CD =  0.00872   =>   CDf =  0.00497    CDp =  0.00375

 MRCHDU: Convergence failed at  72  side 2    Res =  0.1283E+01
 MRCHDU: Convergence failed at  73  side 2    Res =  0.1357E+02
 Side 1  free  transition at x/c =  0.5123   59
 Side 2  free  transition at x/c =  0.9831   72

   3   rms: 0.7034E-01   max: 0.9911E+00   C at   72  2
       a =  4.000      CL =  0.7096
      Cm = -0.0591     CD =  0.00870   =>   CDf =  0.00499    CDp =  0.00371

 Side 1  free  transition at x/c =  0.5066   58
 Side 2  free  transition at x/c =  0.9631   70

   4   rms: 0.1534E-01   max: -.2575E+00   D at   71  2
       a =  4.000      CL =  0.7190
      Cm = -0.0614     CD =  0.00890   =>   CDf =  0.00501    CDp =  0.00389

 Side 1  free  transition at x/c =  0.5011   58
 Side 2  free  transition at x/c =  0.9633   70

   5   rms: 0.1197E-02   max: 0.1154E-01   D at   72  2
       a =  4.000      CL =  0.7199
      Cm = -0.0616     CD =  0.00890   =>   CDf =  0.00504    CDp =  0.00386

 Side 1  free  transition at x/c =  0.5009   58
 Side 2  free  transition at x/c =  0.9629   70

   6   rms: 0.2448E-04   max: -.2120E-03   C at   58  1
       a =  4.000      CL =  0.7199
      Cm = -0.0616     CD =  0.00890   =>   CDf =  0.00504    CDp =  0.00386
 plradd ia,ip,cpol           17           0  0.12240198    

 Point added to stored polar  1
 Point written to save file  goe601_Re500k.base.pol                          
 Dump file unspecified or not available
 Calculating wake trajectory ...
 Calculating source influence matrix ...

 Solving BL system ...

 Side 1  free  transition at x/c =  0.5009   58
 Side 2  free  transition at x/c =  0.9629   70

   1   rms: 0.1484E+00   max: 0.2403E+01   C at   58  1   RLX: 0.624
       a =  4.500      CL =  0.7520
      Cm = -0.0613     CD =  0.00957   =>   CDf =  0.00505    CDp =  0.00452

 Side 1  free  transition at x/c =  0.4233   53
 Side 2  free  transition at x/c =  0.9758   71

   2   rms: 0.5067E-01   max: 0.7021E+00   C at   53  1
       a =  4.500      CL =  0.7745
      Cm = -0.0622     CD =  0.01015   =>   CDf =  0.00545    CDp =  0.00470

 Side 1  free  transition at x/c =  0.3752   50
 Side 2  free  transition at x/c =  0.9820   72

   3   rms: 0.1644E-01   max: -.3117E+00   C at   50  1
       a =  4.500      CL =  0.7695
      Cm = -0.0613     CD =  0.01036   =>   CDf =  0.00573    CDp =  0.00462

 Side 1  free  transition at x/c =  0.3825   51
 Side 2  free  transition at x/c =  0.9834   72

   4   rms: 0.5327E-02   max: -.1002E+00   C at   51  1
       a =  4.500      CL =  0.7706
      Cm = -0.0615     CD =  0.01030   =>   CDf =  0.00567    CDp =  0.00463

 Side 1  free  transition at x/c =  0.3837   51
 Side 2  free  transition at x/c =  0.9830   72

   5   rms: 0.8237E-04   max: -.1219E-02   C at   51  1
       a =  4.500      CL =  0.7706
      Cm = -0.0615     CD =  0.01030   =>   CDf =  0.00565    CDp =  0.00465
 plradd ia,ip,cpol           18           0  0.12240198    

 Point added to stored polar  1
 Point written to save file  goe601_Re500k.base.pol                          
 Dump file unspecified or not available
 Calculating wake trajectory ...
 Calculating source influence matrix ...

 Solving BL system ...

 Side 1  free  transition at x/c =  0.3838   51
 Side 2  free  transition at x/c =  0.9830   72

   1   rms: 0.1860E+00   max: 0.3419E+01   C at   51  1   RLX: 0.439
       a =  5.000      CL =  0.8001
      Cm = -0.0632     CD =  0.01095   =>   CDf =  0.00558    CDp =  0.00536

 Side 1  free  transition at x/c =  0.3517   50
 Side 2  free  transition at x/c =  0.9878   71

   2   rms: 0.6148E-01   max: 0.6819E+00   C at   50  1
       a =  5.000      CL =  0.8396
      Cm = -0.0653     CD =  0.01136   =>   CDf =  0.00586    CDp =  0.00551

 Side 1  free  transition at x/c =  0.3302   49
 Side 2  free  transition at x/c =  0.9951   72

   3   rms: 0.6605E-02   max: 0.9348E-01   D at   71  2
       a =  5.000      CL =  0.8395
      Cm = -0.0653     CD =  0.01134   =>   CDf =  0.00599    CDp =  0.00535

 Side 1  free  transition at x/c =  0.3320   49
 Side 2  free  transition at x/c =  0.9955   72

   4   rms: 0.2779E-03   max: 0.3882E-02   D at   72  2
       a =  5.000      CL =  0.8396
      Cm = -0.0653     CD =  0.01134   =>   CDf =  0.00597    CDp =  0.00537

 Side 1  free  transition at x/c =  0.3320   49
 Side 2  free  transition at x/c =  0.9954   72

   5   rms: 0.2004E-05   max: 0.1338E-04   D at   78  2
       a =  5.000      CL =  0.8396
      Cm = -0.0653     CD =  0.01134   =>   CDf =  0.00597    CDp =  0.00537
 plradd ia,ip,cpol           19           0  0.11006073    

 Point added to stored polar  1
 Point written to save file  goe601_Re500k.base.pol                          
 Dump file unspecified or not available
 Calculating wake trajectory ...
 Calculating source influence matrix ...

 Solving BL system ...

 Side 1  free  transition at x/c =  0.3320   49
 Side 2  free  transition at x/c =  0.9954   72

   1   rms: 0.1059E+00   max: 0.9325E+00   C at   49  1
       a =  5.500      CL =  0.9156
      Cm = -0.0706     CD =  0.01219   =>   CDf =  0.00590    CDp =  0.00629

 Side 1  free  transition at x/c =  0.3047   48
 Side 2 forced transition at x/c =  1.0000   71

   2   rms: 0.4358E-01   max: -.2609E+00   D at   71  2
       a =  5.500      CL =  0.8760
      Cm = -0.0624     CD =  0.01195   =>   CDf =  0.00616    CDp =  0.00578

 Side 1  free  transition at x/c =  0.3096   49
 Side 2 forced transition at x/c =  1.0000   71

   3   rms: 0.1134E-01   max: -.1021E+00   D at   48  1
       a =  5.500      CL =  0.8804
      Cm = -0.0631     CD =  0.01187   =>   CDf =  0.00614    CDp =  0.00573

 Side 1  free  transition at x/c =  0.3113   49
 Side 2 forced transition at x/c =  1.0000   71

   4   rms: 0.1385E-02   max: 0.1396E-01   C at   49  1
       a =  5.500      CL =  0.8810
      Cm = -0.0633     CD =  0.01188   =>   CDf =  0.00608    CDp =  0.00580

 Side 1  free  transition at x/c =  0.3108   49
 Side 2 forced transition at x/c =  1.0000   71

   5   rms: 0.4759E-04   max: -.2324E-03   D at   69  2
       a =  5.500      CL =  0.8810
      Cm = -0.0633     CD =  0.01188   =>   CDf =  0.00609    CDp =  0.00579
 plradd ia,ip,cpol           20           0  1.04275765E-02

 Point added to stored polar  1
 Point written to save file  goe601_Re500k.base.pol                          
 Dump file unspecified or not available
 Calculating wake trajectory ...
 Calculating source influence matrix ...

 Solving BL system ...

 Side 1  free  transition at x/c =  0.3108   49
 Side 2 forced transition at x/c =  1.0000   71

   1   rms: 0.7333E-01   max: -.3965E+00   D at   68  2
       a =  6.000      CL =  0.8760
      Cm = -0.0515     CD =  0.01222   =>   CDf =  0.00609    CDp =  0.00613

 Side 1  free  transition at x/c =  0.2983   48
 Side 2 forced transition at x/c =  1.0000   71

   2   rms: 0.2313E-01   max: 0.1794E+00   D at   69  2
       a =  6.000      CL =  0.8880
      Cm = -0.0538     CD =  0.01216   =>   CDf =  0.00616    CDp =  0.00601

 Side 1  free  transition at x/c =  0.2976   48
 Side 2 forced transition at x/c =  1.0000   71

   3   rms: 0.4715E-02   max: 0.4827E-01   D at   68  2
       a =  6.000      CL =  0.8899
      Cm = -0.0542     CD =  0.01221   =>   CDf =  0.00613    CDp =  0.00608

 Side 1  free  transition at x/c =  0.2971   48
 Side 2 forced transition at x/c =  1.0000   71

   4   rms: 0.2527E-03   max: 0.2686E-02   D at   68  2
       a =  6.000      CL =  0.8900
      Cm = -0.0542     CD =  0.01220   =>   CDf =  0.00613    CDp =  0.00608

 Side 1  free  transition at x/c =  0.2971   48
 Side 2 forced transition at x/c =  1.0000   71

   5   rms: 0.1566E-05   max: 0.1274E-04   D at   76  2
       a =  6.000      CL =  0.8900
      Cm = -0.0542     CD =  0.01220   =>   CDf =  0.00613    CDp =  0.00608
 plradd ia,ip,cpol           21           0  1.04275765E-02

 Point added to stored polar  1
 Point written to save file  goe601_Re500k.base.pol                          
 Dump file unspecified or not available
 Calculating wake trajectory ...
 Calculating source influence matrix ...

 Solving BL system ...

 Side 1  free  transition at x/c =  0.2971   48
 Side 2 forced transition at x/c =  1.0000   71

   1   rms: 0.6646E-01   max: -.2694E+00   D at   69  2
       a =  6.500      CL =  0.9048
      Cm = -0.0464     CD =  0.01264   =>   CDf =  0.00605    CDp =  0.00659

 Side 1  free  transition at x/c =  0.2857   48
 Side 2 forced transition at x/c =  1.0000   70

   2   rms: 0.1063E-01   max: 0.8434E-01   D at   68  2
       a =  6.500      CL =  0.9096
      Cm = -0.0474     CD =  0.01264   =>   CDf =  0.00618    CDp =  0.00646

 Side 1  free  transition at x/c =  0.2849   48
 Side 2 forced transition at x/c =  1.0000   70

   3   rms: 0.8873E-03   max: 0.9788E-02   D at   68  2
       a =  6.500      CL =  0.9100
      Cm = -0.0475     CD =  0.01265   =>   CDf =  0.00616    CDp =  0.00649

 Side 1  free  transition at x/c =  0.2849   48
 Side 2 forced transition at x/c =  1.0000   70

   4   rms: 0.6815E-05   max: 0.8564E-04   D at   68  2
       a =  6.500      CL =  0.9100
      Cm = -0.0475     CD =  0.01265   =>   CDf =  0.00616    CDp =  0.00649
 plradd ia,ip,cpol           22           0  1.04275765E-02

 Point added to stored polar  1
 Point written to save file  goe601_Re500k.base.pol                          
 Dump file unspecified or not available
 Calculating wake trajectory ...
 Calculating source influence matrix ...

 Solving BL system ...

 Side 1  free  transition at x/c =  0.2849   48
 Side 2 forced transition at x/c =  1.0000   70

   1   rms: 0.6347E-01   max: -.1842E+00   D at   69  2
       a =  7.000      CL =  0.9382
      Cm = -0.0424     CD =  0.01303   =>   CDf =  0.00616    CDp =  0.00687

 Side 1  free  transition at x/c =  0.2711   47
 Side 2 forced transition at x/c =  1.0000   70

   2   rms: 0.6297E-02   max: -.5104E-01   C at   47  1
       a =  7.000      CL =  0.9336
      Cm = -0.0416     CD =  0.01323   =>   CDf =  0.00624    CDp =  0.00699

 Side 1  free  transition at x/c =  0.2719   47
 Side 2 forced transition at x/c =  1.0000   70

   3   rms: 0.3519E-02   max: -.6451E-01   C at   47  1
       a =  7.000      CL =  0.9335
      Cm = -0.0416     CD =  0.01323   =>   CDf =  0.00623    CDp =  0.00699

 Side 1  free  transition at x/c =  0.2719   47
 Side 2 forced transition at x/c =  1.0000   70

   4   rms: 0.3546E-02   max: -.6481E-01   C at   47  1
       a =  7.000      CL =  0.9335
      Cm = -0.0416     CD =  0.01323   =>   CDf =  0.00623    CDp =  0.00699

 Side 1  free  transition at x/c =  0.2719   47
 Side 2 forced transition at x/c =  1.0000   70

   5   rms: 0.3546E-02   max: -.6481E-01   C at   47  1
       a =  7.000      CL =  0.9335
      Cm = -0.0416     CD =  0.01323   =>   CDf =  0.00623    CDp =  0.00699

 Side 1  free  transition at x/c =  0.2719   47
 Side 2 forced transition at x/c =  1.0000   70

   6   rms: 0.3546E-02   max: -.6480E-01   C at   47  1
       a =  7.000      CL =  0.9335
      Cm = -0.0416     CD =  0.01323   =>   CDf =  0.00623    CDp =  0.00699

 Side 1  free  transition at x/c =  0.2719   47
 Side 2 forced transition at x/c =  1.0000   70

   7   rms: 0.3546E-02   max: -.6480E-01   C at   47  1
       a =  7.000      CL =  0.9335
      Cm = -0.0416     CD =  0.01323   =>   CDf =  0.00623    CDp =  0.00699

 Side 1  free  transition at x/c =  0.2719   47
 Side 2 forced transition at x/c =  1.0000   70

   8   rms: 0.3546E-02   max: -.6480E-01   C at   47  1
       a =  7.000      CL =  0.9335
      Cm = -0.0416     CD =  0.01323   =>   CDf =  0.00623    CDp =  0.00699

 Side 1  free  transition at x/c =  0.2719   47
 Side 2 forced transition at x/c =  1.0000   70

   9   rms: 0.3546E-02   max: -.6480E-01   C at   47  1
       a =  7.000      CL =  0.9335
      Cm = -0.0416     CD =  0.01323   =>   CDf =  0.00623    CDp =  0.00699

 Side 1  free  transition at x/c =  0.2719   47
 Side 2 forced transition at x/c =  1.0000   70

  10   rms: 0.3546E-02   max: -.6480E-01   C at   47  1
       a =  7.000      CL =  0.9335
      Cm = -0.0416     CD =  0.01323   =>   CDf =  0.00623    CDp =  0.00699

 Side 1  free  transition at x/c =  0.2719   47
 Side 2 forced transition at x/c =  1.0000   70

  11   rms: 0.3546E-02   max: -.6480E-01   C at   47  1
       a =  7.000      CL =  0.9335
      Cm = -0.0416     CD =  0.01323   =>   CDf =  0.00623    CDp =  0.00699

 Side 1  free  transition at x/c =  0.2719   47
 Side 2 forced transition at x/c =  1.0000   70

  12   rms: 0.3546E-02   max: -.6480E-01   C at   47  1
       a =  7.000      CL =  0.9335
      Cm = -0.0416     CD =  0.01323   =>   CDf =  0.00623    CDp =  0.00699

 Side 1  free  transition at x/c =  0.2719   47
 Side 2 forced transition at x/c =  1.0000   70

  13   rms: 0.3546E-02   max: -.6480E-01   C at   47  1
       a =  7.000      CL =  0.9335
      Cm = -0.0416     CD =  0.01323   =>   CDf =  0.00623    CDp =  0.00699

 Side 1  free  transition at x/c =  0.2719   47
 Side 2 forced transition at x/c =  1.0000   70

  14   rms: 0.3546E-02   max: -.6481E-01   C at   47  1
       a =  7.000      CL =  0.9335
      Cm = -0.0416     CD =  0.01323   =>   CDf =  0.00623    CDp =  0.00699

 Side 1  free  transition at x/c =  0.2719   47
 Side 2 forced transition at x/c =  1.0000   70

  15   rms: 0.3546E-02   max: -.6480E-01   C at   47  1
       a =  7.000      CL =  0.9335
      Cm = -0.0416     CD =  0.01323   =>   CDf =  0.00623    CDp =  0.00699

 Side 1  free  transition at x/c =  0.2719   47
 Side 2 forced transition at x/c =  1.0000   70

  16   rms: 0.3546E-02   max: -.6480E-01   C at   47  1
       a =  7.000      CL =  0.9335
      Cm = -0.0416     CD =  0.01323   =>   CDf =  0.00623    CDp =  0.00699

 Side 1  free  transition at x/c =  0.2719   47
 Side 2 forced transition at x/c =  1.0000   70

  17   rms: 0.3546E-02   max: -.6481E-01   C at   47  1
       a =  7.000      CL =  0.9335
      Cm = -0.0416     CD =  0.01323   =>   CDf =  0.00623    CDp =  0.00699

 Side 1  free  transition at x/c =  0.2719   47
 Side 2 forced transition at x/c =  1.0000   70

  18   rms: 0.3546E-02   max: -.6480E-01   C at   47  1
       a =  7.000      CL =  0.9335
      Cm = -0.0416     CD =  0.01323   =>   CDf =  0.00623    CDp =  0.00699

 Side 1  free  transition at x/c =  0.2719   47
 Side 2 forced transition at x/c =  1.0000   70

  19   rms: 0.3546E-02   max: -.6480E-01   C at   47  1
       a =  7.000      CL =  0.9335
      Cm = -0.0416     CD =  0.01323   =>   CDf =  0.00623    CDp =  0.00699

 Side 1  free  transition at x/c =  0.2719   47
 Side 2 forced transition at x/c =  1.0000   70

  20   rms: 0.3546E-02   max: -.6480E-01   C at   47  1
       a =  7.000      CL =  0.9335
      Cm = -0.0416     CD =  0.01323   =>   CDf =  0.00623    CDp =  0.00699

 Side 1  free  transition at x/c =  0.2719   47
 Side 2 forced transition at x/c =  1.0000   70

  21   rms: 0.3546E-02   max: -.6480E-01   C at   47  1
       a =  7.000      CL =  0.9335
      Cm = -0.0416     CD =  0.01323   =>   CDf =  0.00623    CDp =  0.00699

 Side 1  free  transition at x/c =  0.2719   47
 Side 2 forced transition at x/c =  1.0000   70

  22   rms: 0.3546E-02   max: -.6480E-01   C at   47  1
       a =  7.000      CL =  0.9335
      Cm = -0.0416     CD =  0.01323   =>   CDf =  0.00623    CDp =  0.00699

 Side 1  free  transition at x/c =  0.2719   47
 Side 2 forced transition at x/c =  1.0000   70

  23   rms: 0.3546E-02   max: -.6480E-01   C at   47  1
       a =  7.000      CL =  0.9335
      Cm = -0.0416     CD =  0.01323   =>   CDf =  0.00623    CDp =  0.00699

 Side 1  free  transition at x/c =  0.2719   47
 Side 2 forced transition at x/c =  1.0000   70

  24   rms: 0.3546E-02   max: -.6480E-01   C at   47  1
       a =  7.000      CL =  0.9335
      Cm = -0.0416     CD =  0.01323   =>   CDf =  0.00623    CDp =  0.00699

 Side 1  free  transition at x/c =  0.2719   47
 Side 2 forced transition at x/c =  1.0000   70

  25   rms: 0.3546E-02   max: -.6480E-01   C at   47  1
       a =  7.000      CL =  0.9335
      Cm = -0.0416     CD =  0.01323   =>   CDf =  0.00623    CDp =  0.00699

 Side 1  free  transition at x/c =  0.2719   47
 Side 2 forced transition at x/c =  1.0000   70

  26   rms: 0.3546E-02   max: -.6480E-01   C at   47  1
       a =  7.000      CL =  0.9335
      Cm = -0.0416     CD =  0.01323   =>   CDf =  0.00623    CDp =  0.00699

 Side 1  free  transition at x/c =  0.2719   47
 Side 2 forced transition at x/c =  1.0000   70

  27   rms: 0.3546E-02   max: -.6480E-01   C at   47  1
       a =  7.000      CL =  0.9335
      Cm = -0.0416     CD =  0.01323   =>   CDf =  0.00623    CDp =  0.00699

 Side 1  free  transition at x/c =  0.2719   47
 Side 2 forced transition at x/c =  1.0000   70

  28   rms: 0.3546E-02   max: -.6480E-01   C at   47  1
       a =  7.000      CL =  0.9335
      Cm = -0.0416     CD =  0.01323   =>   CDf =  0.00623    CDp =  0.00699

 Side 1  free  transition at x/c =  0.2719   47
 Side 2 forced transition at x/c =  1.0000   70

  29   rms: 0.3546E-02   max: -.6480E-01   C at   47  1
       a =  7.000      CL =  0.9335
      Cm = -0.0416     CD =  0.01323   =>   CDf =  0.00623    CDp =  0.00699

 Side 1  free  transition at x/c =  0.2719   47
 Side 2 forced transition at x/c =  1.0000   70

  30   rms: 0.3546E-02   max: -.6480E-01   C at   47  1
       a =  7.000      CL =  0.9335
      Cm = -0.0416     CD =  0.01323   =>   CDf =  0.00623    CDp =  0.00699

 Side 1  free  transition at x/c =  0.2719   47
 Side 2 forced transition at x/c =  1.0000   70

  31   rms: 0.3546E-02   max: -.6480E-01   C at   47  1
       a =  7.000      CL =  0.9335
      Cm = -0.0416     CD =  0.01323   =>   CDf =  0.00623    CDp =  0.00699

 Side 1  free  transition at x/c =  0.2719   47
 Side 2 forced transition at x/c =  1.0000   70

  32   rms: 0.3546E-02   max: -.6481E-01   C at   47  1
       a =  7.000      CL =  0.9335
      Cm = -0.0416     CD =  0.01323   =>   CDf =  0.00623    CDp =  0.00699

 Side 1  free  transition at x/c =  0.2719   47
 Side 2 forced transition at x/c =  1.0000   70

  33   rms: 0.3546E-02   max: -.6480E-01   C at   47  1
       a =  7.000      CL =  0.9335
      Cm = -0.0416     CD =  0.01323   =>   CDf =  0.00623    CDp =  0.00699

 Side 1  free  transition at x/c =  0.2719   47
 Side 2 forced transition at x/c =  1.0000   70

  34   rms: 0.3546E-02   max: -.6480E-01   C at   47  1
       a =  7.000      CL =  0.9335
      Cm = -0.0416     CD =  0.01323   =>   CDf =  0.00623    CDp =  0.00699

 Side 1  free  transition at x/c =  0.2719   47
 Side 2 forced transition at x/c =  1.0000   70

  35   rms: 0.3546E-02   max: -.6480E-01   C at   47  1
       a =  7.000      CL =  0.9335
      Cm = -0.0416     CD =  0.01323   =>   CDf =  0.00623    CDp =  0.00699

 Side 1  free  transition at x/c =  0.2719   47
 Side 2 forced transition at x/c =  1.0000   70

  36   rms: 0.3546E-02   max: -.6480E-01   C at   47  1
       a =  7.000      CL =  0.9335
      Cm = -0.0416     CD =  0.01323   =>   CDf =  0.00623    CDp =  0.00699

 Side 1  free  transition at x/c =  0.2719   47
 Side 2 forced transition at x/c =  1.0000   70

  37   rms: 0.3546E-02   max: -.6480E-01   C at   47  1
       a =  7.000      CL =  0.9335
      Cm = -0.0416     CD =  0.01323   =>   CDf =  0.00623    CDp =  0.00699

 Side 1  free  transition at x/c =  0.2719   47
 Side 2 forced transition at x/c =  1.0000   70

  38   rms: 0.3546E-02   max: -.6480E-01   C at   47  1
       a =  7.000      CL =  0.9335
      Cm = -0.0416     CD =  0.01323   =>   CDf =  0.00623    CDp =  0.00699

 Side 1  free  transition at x/c =  0.2719   47
 Side 2 forced transition at x/c =  1.0000   70

  39   rms: 0.3546E-02   max: -.6480E-01   C at   47  1
       a =  7.000      CL =  0.9335
      Cm = -0.0416     CD =  0.01323   =>   CDf =  0.00623    CDp =  0.00699

 Side 1  free  transition at x/c =  0.2719   47
 Side 2 forced transition at x/c =  1.0000   70

  40   rms: 0.3546E-02   max: -.6480E-01   C at   47  1
       a =  7.000      CL =  0.9335
      Cm = -0.0416     CD =  0.01323   =>   CDf =  0.00623    CDp =  0.00699

 Side 1  free  transition at x/c =  0.2719   47
 Side 2 forced transition at x/c =  1.0000   70

  41   rms: 0.3546E-02   max: -.6480E-01   C at   47  1
       a =  7.000      CL =  0.9335
      Cm = -0.0416     CD =  0.01323   =>   CDf =  0.00623    CDp =  0.00699

 Side 1  free  transition at x/c =  0.2719   47
 Side 2 forced transition at x/c =  1.0000   70

  42   rms: 0.3546E-02   max: -.6480E-01   C at   47  1
       a =  7.000      CL =  0.9335
      Cm = -0.0416     CD =  0.01323   =>   CDf =  0.00623    CDp =  0.00699

 Side 1  free  transition at x/c =  0.2719   47
 Side 2 forced transition at x/c =  1.0000   70

  43   rms: 0.3546E-02   max: -.6480E-01   C at   47  1
       a =  7.000      CL =  0.9335
      Cm = -0.0416     CD =  0.01323   =>   CDf =  0.00623    CDp =  0.00699

 Side 1  free  transition at x/c =  0.2719   47
 Side 2 forced transition at x/c =  1.0000   70

  44   rms: 0.3546E-02   max: -.6480E-01   C at   47  1
       a =  7.000      CL =  0.9335
      Cm = -0.0416     CD =  0.01323   =>   CDf =  0.00623    CDp =  0.00699

 Side 1  free  transition at x/c =  0.2719   47
 Side 2 forced transition at x/c =  1.0000   70

  45   rms: 0.3546E-02   max: -.6480E-01   C at   47  1
       a =  7.000      CL =  0.9335
      Cm = -0.0416     CD =  0.01323   =>   CDf =  0.00623    CDp =  0.00699

 Side 1  free  transition at x/c =  0.2719   47
 Side 2 forced transition at x/c =  1.0000   70

  46   rms: 0.3546E-02   max: -.6481E-01   C at   47  1
       a =  7.000      CL =  0.9335
      Cm = -0.0416     CD =  0.01323   =>   CDf =  0.00623    CDp =  0.00699

 Side 1  free  transition at x/c =  0.2719   47
 Side 2 forced transition at x/c =  1.0000   70

  47   rms: 0.3546E-02   max: -.6481E-01   C at   47  1
       a =  7.000      CL =  0.9335
      Cm = -0.0416     CD =  0.01323   =>   CDf =  0.00623    CDp =  0.00699

 Side 1  free  transition at x/c =  0.2719   47
 Side 2 forced transition at x/c =  1.0000   70

  48   rms: 0.3546E-02   max: -.6480E-01   C at   47  1
       a =  7.000      CL =  0.9335
      Cm = -0.0416     CD =  0.01323   =>   CDf =  0.00623    CDp =  0.00699

 Side 1  free  transition at x/c =  0.2719   47
 Side 2 forced transition at x/c =  1.0000   70

  49   rms: 0.3546E-02   max: -.6480E-01   C at   47  1
       a =  7.000      CL =  0.9335
      Cm = -0.0416     CD =  0.01323   =>   CDf =  0.00623    CDp =  0.00699

 Side 1  free  transition at x/c =  0.2719   47
 Side 2 forced transition at x/c =  1.0000   70

  50   rms: 0.3546E-02   max: -.6480E-01   C at   47  1
       a =  7.000      CL =  0.9335
      Cm = -0.0416     CD =  0.01323   =>   CDf =  0.00623    CDp =  0.00699

 Side 1  free  transition at x/c =  0.2719   47
 Side 2 forced transition at x/c =  1.0000   70

  51   rms: 0.3546E-02   max: -.6480E-01   C at   47  1
       a =  7.000      CL =  0.9335
      Cm = -0.0416     CD =  0.01323   =>   CDf =  0.00623    CDp =  0.00699

 Side 1  free  transition at x/c =  0.2719   47
 Side 2 forced transition at x/c =  1.0000   70

  52   rms: 0.3546E-02   max: -.6480E-01   C at   47  1
       a =  7.000      CL =  0.9335
      Cm = -0.0416     CD =  0.01323   =>   CDf =  0.00623    CDp =  0.00699

 Side 1  free  transition at x/c =  0.2719   47
 Side 2 forced transition at x/c =  1.0000   70

  53   rms: 0.3546E-02   max: -.6480E-01   C at   47  1
       a =  7.000      CL =  0.9335
      Cm = -0.0416     CD =  0.01323   =>   CDf =  0.00623    CDp =  0.00699

 Side 1  free  transition at x/c =  0.2719   47
 Side 2 forced transition at x/c =  1.0000   70

  54   rms: 0.3546E-02   max: -.6480E-01   C at   47  1
       a =  7.000      CL =  0.9335
      Cm = -0.0416     CD =  0.01323   =>   CDf =  0.00623    CDp =  0.00699

 Side 1  free  transition at x/c =  0.2719   47
 Side 2 forced transition at x/c =  1.0000   70

  55   rms: 0.3546E-02   max: -.6480E-01   C at   47  1
       a =  7.000      CL =  0.9335
      Cm = -0.0416     CD =  0.01323   =>   CDf =  0.00623    CDp =  0.00699

 Side 1  free  transition at x/c =  0.2719   47
 Side 2 forced transition at x/c =  1.0000   70

  56   rms: 0.3546E-02   max: -.6480E-01   C at   47  1
       a =  7.000      CL =  0.9335
      Cm = -0.0416     CD =  0.01323   =>   CDf =  0.00623    CDp =  0.00699

 Side 1  free  transition at x/c =  0.2719   47
 Side 2 forced transition at x/c =  1.0000   70

  57   rms: 0.3546E-02   max: -.6480E-01   C at   47  1
       a =  7.000      CL =  0.9335
      Cm = -0.0416     CD =  0.01323   =>   CDf =  0.00623    CDp =  0.00699

 Side 1  free  transition at x/c =  0.2719   47
 Side 2 forced transition at x/c =  1.0000   70

  58   rms: 0.3546E-02   max: -.6480E-01   C at   47  1
       a =  7.000      CL =  0.9335
      Cm = -0.0416     CD =  0.01323   =>   CDf =  0.00623    CDp =  0.00699

 Side 1  free  transition at x/c =  0.2719   47
 Side 2 forced transition at x/c =  1.0000   70

  59   rms: 0.3546E-02   max: -.6480E-01   C at   47  1
       a =  7.000      CL =  0.9335
      Cm = -0.0416     CD =  0.01323   =>   CDf =  0.00623    CDp =  0.00699

 Side 1  free  transition at x/c =  0.2719   47
 Side 2 forced transition at x/c =  1.0000   70

  60   rms: 0.3546E-02   max: -.6480E-01   C at   47  1
       a =  7.000      CL =  0.9335
      Cm = -0.0416     CD =  0.01323   =>   CDf =  0.00623    CDp =  0.00699

 Side 1  free  transition at x/c =  0.2719   47
 Side 2 forced transition at x/c =  1.0000   70

  61   rms: 0.3546E-02   max: -.6480E-01   C at   47  1
       a =  7.000      CL =  0.9335
      Cm = -0.0416     CD =  0.01323   =>   CDf =  0.00623    CDp =  0.00699

 Side 1  free  transition at x/c =  0.2719   47
 Side 2 forced transition at x/c =  1.0000   70

  62   rms: 0.3546E-02   max: -.6480E-01   C at   47  1
       a =  7.000      CL =  0.9335
      Cm = -0.0416     CD =  0.01323   =>   CDf =  0.00623    CDp =  0.00699

 Side 1  free  transition at x/c =  0.2719   47
 Side 2 forced transition at x/c =  1.0000   70

  63   rms: 0.3546E-02   max: -.6480E-01   C at   47  1
       a =  7.000      CL =  0.9335
      Cm = -0.0416     CD =  0.01323   =>   CDf =  0.00623    CDp =  0.00699

 Side 1  free  transition at x/c =  0.2719   47
 Side 2 forced transition at x/c =  1.0000   70

  64   rms: 0.3546E-02   max: -.6480E-01   C at   47  1
       a =  7.000      CL =  0.9335
      Cm = -0.0416     CD =  0.01323   =>   CDf =  0.00623    CDp =  0.00699

 Side 1  free  transition at x/c =  0.2719   47
 Side 2 forced transition at x/c =  1.0000   70

  65   rms: 0.3546E-02   max: -.6481E-01   C at   47  1
       a =  7.000      CL =  0.9335
      Cm = -0.0416     CD =  0.01323   =>   CDf =  0.00623    CDp =  0.00699

 Side 1  free  transition at x/c =  0.2719   47
 Side 2 forced transition at x/c =  1.0000   70

  66   rms: 0.3546E-02   max: -.6480E-01   C at   47  1
       a =  7.000      CL =  0.9335
      Cm = -0.0416     CD =  0.01323   =>   CDf =  0.00623    CDp =  0.00699

 Side 1  free  transition at x/c =  0.2719   47
 Side 2 forced transition at x/c =  1.0000   70

  67   rms: 0.3546E-02   max: -.6480E-01   C at   47  1
       a =  7.000      CL =  0.9335
      Cm = -0.0416     CD =  0.01323   =>   CDf =  0.00623    CDp =  0.00699

 Side 1  free  transition at x/c =  0.2719   47
 Side 2 forced transition at x/c =  1.0000   70

  68   rms: 0.3546E-02   max: -.6480E-01   C at   47  1
       a =  7.000      CL =  0.9335
      Cm = -0.0416     CD =  0.01323   =>   CDf =  0.00623    CDp =  0.00699

 Side 1  free  transition at x/c =  0.2719   47
 Side 2 forced transition at x/c =  1.0000   70

  69   rms: 0.3546E-02   max: -.6480E-01   C at   47  1
       a =  7.000      CL =  0.9335
      Cm = -0.0416     CD =  0.01323   =>   CDf =  0.00623    CDp =  0.00699

 Side 1  free  transition at x/c =  0.2719   47
 Side 2 forced transition at x/c =  1.0000   70

  70   rms: 0.3546E-02   max: -.6480E-01   C at   47  1
       a =  7.000      CL =  0.9335
      Cm = -0.0416     CD =  0.01323   =>   CDf =  0.00623    CDp =  0.00699

 Side 1  free  transition at x/c =  0.2719   47
 Side 2 forced transition at x/c =  1.0000   70

  71   rms: 0.3546E-02   max: -.6480E-01   C at   47  1
       a =  7.000      CL =  0.9335
      Cm = -0.0416     CD =  0.01323   =>   CDf =  0.00623    CDp =  0.00699

 Side 1  free  transition at x/c =  0.2719   47
 Side 2 forced transition at x/c =  1.0000   70

  72   rms: 0.3546E-02   max: -.6480E-01   C at   47  1
       a =  7.000      CL =  0.9335
      Cm = -0.0416     CD =  0.01323   =>   CDf =  0.00623    CDp =  0.00699

 Side 1  free  transition at x/c =  0.2719   47
 Side 2 forced transition at x/c =  1.0000   70

  73   rms: 0.3546E-02   max: -.6480E-01   C at   47  1
       a =  7.000      CL =  0.9335
      Cm = -0.0416     CD =  0.01323   =>   CDf =  0.00623    CDp =  0.00699

 Side 1  free  transition at x/c =  0.2719   47
 Side 2 forced transition at x/c =  1.0000   70

  74   rms: 0.3546E-02   max: -.6480E-01   C at   47  1
       a =  7.000      CL =  0.9335
      Cm = -0.0416     CD =  0.01323   =>   CDf =  0.00623    CDp =  0.00699

 Side 1  free  transition at x/c =  0.2719   47
 Side 2 forced transition at x/c =  1.0000   70

  75   rms: 0.3546E-02   max: -.6480E-01   C at   47  1
       a =  7.000      CL =  0.9335
      Cm = -0.0416     CD =  0.01323   =>   CDf =  0.00623    CDp =  0.00699

 Side 1  free  transition at x/c =  0.2719   47
 Side 2 forced transition at x/c =  1.0000   70

  76   rms: 0.3546E-02   max: -.6481E-01   C at   47  1
       a =  7.000      CL =  0.9335
      Cm = -0.0416     CD =  0.01323   =>   CDf =  0.00623    CDp =  0.00699

 Side 1  free  transition at x/c =  0.2719   47
 Side 2 forced transition at x/c =  1.0000   70

  77   rms: 0.3546E-02   max: -.6480E-01   C at   47  1
       a =  7.000      CL =  0.9335
      Cm = -0.0416     CD =  0.01323   =>   CDf =  0.00623    CDp =  0.00699

 Side 1  free  transition at x/c =  0.2719   47
 Side 2 forced transition at x/c =  1.0000   70

  78   rms: 0.3546E-02   max: -.6480E-01   C at   47  1
       a =  7.000      CL =  0.9335
      Cm = -0.0416     CD =  0.01323   =>   CDf =  0.00623    CDp =  0.00699

 Side 1  free  transition at x/c =  0.2719   47
 Side 2 forced transition at x/c =  1.0000   70

  79   rms: 0.3546E-02   max: -.6480E-01   C at   47  1
       a =  7.000      CL =  0.9335
      Cm = -0.0416     CD =  0.01323   =>   CDf =  0.00623    CDp =  0.00699

 Side 1  free  transition at x/c =  0.2719   47
 Side 2 forced transition at x/c =  1.0000   70

  80   rms: 0.3546E-02   max: -.6480E-01   C at   47  1
       a =  7.000      CL =  0.9335
      Cm = -0.0416     CD =  0.01323   =>   CDf =  0.00623    CDp =  0.00699

 Side 1  free  transition at x/c =  0.2719   47
 Side 2 forced transition at x/c =  1.0000   70

  81   rms: 0.3546E-02   max: -.6480E-01   C at   47  1
       a =  7.000      CL =  0.9335
      Cm = -0.0416     CD =  0.01323   =>   CDf =  0.00623    CDp =  0.00699

 Side 1  free  transition at x/c =  0.2719   47
 Side 2 forced transition at x/c =  1.0000   70

  82   rms: 0.3546E-02   max: -.6480E-01   C at   47  1
       a =  7.000      CL =  0.9335
      Cm = -0.0416     CD =  0.01323   =>   CDf =  0.00623    CDp =  0.00699

 Side 1  free  transition at x/c =  0.2719   47
 Side 2 forced transition at x/c =  1.0000   70

  83   rms: 0.3546E-02   max: -.6480E-01   C at   47  1
       a =  7.000      CL =  0.9335
      Cm = -0.0416     CD =  0.01323   =>   CDf =  0.00623    CDp =  0.00699

 Side 1  free  transition at x/c =  0.2719   47
 Side 2 forced transition at x/c =  1.0000   70

  84   rms: 0.3546E-02   max: -.6480E-01   C at   47  1
       a =  7.000      CL =  0.9335
      Cm = -0.0416     CD =  0.01323   =>   CDf =  0.00623    CDp =  0.00699

 Side 1  free  transition at x/c =  0.2719   47
 Side 2 forced transition at x/c =  1.0000   70

  85   rms: 0.3546E-02   max: -.6481E-01   C at   47  1
       a =  7.000      CL =  0.9335
      Cm = -0.0416     CD =  0.01323   =>   CDf =  0.00623    CDp =  0.00699

 Side 1  free  transition at x/c =  0.2719   47
 Side 2 forced transition at x/c =  1.0000   70

  86   rms: 0.3546E-02   max: -.6480E-01   C at   47  1
       a =  7.000      CL =  0.9335
      Cm = -0.0416     CD =  0.01323   =>   CDf =  0.00623    CDp =  0.00699

 Side 1  free  transition at x/c =  0.2719   47
 Side 2 forced transition at x/c =  1.0000   70

  87   rms: 0.3546E-02   max: -.6481E-01   C at   47  1
       a =  7.000      CL =  0.9335
      Cm = -0.0416     CD =  0.01323   =>   CDf =  0.00623    CDp =  0.00699

 Side 1  free  transition at x/c =  0.2719   47
 Side 2 forced transition at x/c =  1.0000   70

  88   rms: 0.3546E-02   max: -.6480E-01   C at   47  1
       a =  7.000      CL =  0.9335
      Cm = -0.0416     CD =  0.01323   =>   CDf =  0.00623    CDp =  0.00699

 Side 1  free  transition at x/c =  0.2719   47
 Side 2 forced transition at x/c =  1.0000   70

  89   rms: 0.3546E-02   max: -.6480E-01   C at   47  1
       a =  7.000      CL =  0.9335
      Cm = -0.0416     CD =  0.01323   =>   CDf =  0.00623    CDp =  0.00699

 Side 1  free  transition at x/c =  0.2719   47
 Side 2 forced transition at x/c =  1.0000   70

  90   rms: 0.3546E-02   max: -.6480E-01   C at   47  1
       a =  7.000      CL =  0.9335
      Cm = -0.0416     CD =  0.01323   =>   CDf =  0.00623    CDp =  0.00699

 Side 1  free  transition at x/c =  0.2719   47
 Side 2 forced transition at x/c =  1.0000   70

  91   rms: 0.3546E-02   max: -.6481E-01   C at   47  1
       a =  7.000      CL =  0.9335
      Cm = -0.0416     CD =  0.01323   =>   CDf =  0.00623    CDp =  0.00699

 Side 1  free  transition at x/c =  0.2719   47
 Side 2 forced transition at x/c =  1.0000   70

  92   rms: 0.3546E-02   max: -.6480E-01   C at   47  1
       a =  7.000      CL =  0.9335
      Cm = -0.0416     CD =  0.01323   =>   CDf =  0.00623    CDp =  0.00699

 Side 1  free  transition at x/c =  0.2719   47
 Side 2 forced transition at x/c =  1.0000   70

  93   rms: 0.3546E-02   max: -.6481E-01   C at   47  1
       a =  7.000      CL =  0.9335
      Cm = -0.0416     CD =  0.01323   =>   CDf =  0.00623    CDp =  0.00699

 Side 1  free  transition at x/c =  0.2719   47
 Side 2 forced transition at x/c =  1.0000   70

  94   rms: 0.3546E-02   max: -.6480E-01   C at   47  1
       a =  7.000      CL =  0.9335
      Cm = -0.0416     CD =  0.01323   =>   CDf =  0.00623    CDp =  0.00699

 Side 1  free  transition at x/c =  0.2719   47
 Side 2 forced transition at x/c =  1.0000   70

  95   rms: 0.3546E-02   max: -.6480E-01   C at   47  1
       a =  7.000      CL =  0.9335
      Cm = -0.0416     CD =  0.01323   =>   CDf =  0.00623    CDp =  0.00699

 Side 1  free  transition at x/c =  0.2719   47
 Side 2 forced transition at x/c =  1.0000   70

  96   rms: 0.3546E-02   max: -.6480E-01   C at   47  1
       a =  7.000      CL =  0.9335
      Cm = -0.0416     CD =  0.01323   =>   CDf =  0.00623    CDp =  0.00699

 Side 1  free  transition at x/c =  0.2719   47
 Side 2 forced transition at x/c =  1.0000   70

  97   rms: 0.3546E-02   max: -.6480E-01   C at   47  1
       a =  7.000      CL =  0.9335
      Cm = -0.0416     CD =  0.01323   =>   CDf =  0.00623    CDp =  0.00699

 Side 1  free  transition at x/c =  0.2719   47
 Side 2 forced transition at x/c =  1.0000   70

  98   rms: 0.3546E-02   max: -.6480E-01   C at   47  1
       a =  7.000      CL =  0.9335
      Cm = -0.0416     CD =  0.01323   =>   CDf =  0.00623    CDp =  0.00699

 Side 1  free  transition at x/c =  0.2719   47
 Side 2 forced transition at x/c =  1.0000   70

  99   rms: 0.3546E-02   max: -.6480E-01   C at   47  1
       a =  7.000      CL =  0.9335
      Cm = -0.0416     CD =  0.01323   =>   CDf =  0.00623    CDp =  0.00699

 Side 1  free  transition at x/c =  0.2719   47
 Side 2 forced transition at x/c =  1.0000   70

 100   rms: 0.3546E-02   max: -.6480E-01   C at   47  1
       a =  7.000      CL =  0.9335
      Cm = -0.0416     CD =  0.01323   =>   CDf =  0.00623    CDp =  0.00699

 Side 1  free  transition at x/c =  0.2719   47
 Side 2 forced transition at x/c =  1.0000   70

 101   rms: 0.3546E-02   max: -.6480E-01   C at   47  1
       a =  7.000      CL =  0.9335
      Cm = -0.0416     CD =  0.01323   =>   CDf =  0.00623    CDp =  0.00699

 Side 1  free  transition at x/c =  0.2719   47
 Side 2 forced transition at x/c =  1.0000   70

 102   rms: 0.3546E-02   max: -.6480E-01   C at   47  1
       a =  7.000      CL =  0.9335
      Cm = -0.0416     CD =  0.01323   =>   CDf =  0.00623    CDp =  0.00699

 Side 1  free  transition at x/c =  0.2719   47
 Side 2 forced transition at x/c =  1.0000   70

 103   rms: 0.3546E-02   max: -.6480E-01   C at   47  1
       a =  7.000      CL =  0.9335
      Cm = -0.0416     CD =  0.01323   =>   CDf =  0.00623    CDp =  0.00699

 Side 1  free  transition at x/c =  0.2719   47
 Side 2 forced transition at x/c =  1.0000   70

 104   rms: 0.3546E-02   max: -.6480E-01   C at   47  1
       a =  7.000      CL =  0.9335
      Cm = -0.0416     CD =  0.01323   =>   CDf =  0.00623    CDp =  0.00699

 Side 1  free  transition at x/c =  0.2719   47
 Side 2 forced transition at x/c =  1.0000   70

 105   rms: 0.3546E-02   max: -.6480E-01   C at   47  1
       a =  7.000      CL =  0.9335
      Cm = -0.0416     CD =  0.01323   =>   CDf =  0.00623    CDp =  0.00699

 Side 1  free  transition at x/c =  0.2719   47
 Side 2 forced transition at x/c =  1.0000   70

 106   rms: 0.3546E-02   max: -.6481E-01   C at   47  1
       a =  7.000      CL =  0.9335
      Cm = -0.0416     CD =  0.01323   =>   CDf =  0.00623    CDp =  0.00699

 Side 1  free  transition at x/c =  0.2719   47
 Side 2 forced transition at x/c =  1.0000   70

 107   rms: 0.3546E-02   max: -.6480E-01   C at   47  1
       a =  7.000      CL =  0.9335
      Cm = -0.0416     CD =  0.01323   =>   CDf =  0.00623    CDp =  0.00699

 Side 1  free  transition at x/c =  0.2719   47
 Side 2 forced transition at x/c =  1.0000   70

 108   rms: 0.3546E-02   max: -.6480E-01   C at   47  1
       a =  7.000      CL =  0.9335
      Cm = -0.0416     CD =  0.01323   =>   CDf =  0.00623    CDp =  0.00699

 Side 1  free  transition at x/c =  0.2719   47
 Side 2 forced transition at x/c =  1.0000   70

 109   rms: 0.3546E-02   max: -.6480E-01   C at   47  1
       a =  7.000      CL =  0.9335
      Cm = -0.0416     CD =  0.01323   =>   CDf =  0.00623    CDp =  0.00699

 Side 1  free  transition at x/c =  0.2719   47
 Side 2 forced transition at x/c =  1.0000   70

 110   rms: 0.3546E-02   max: -.6480E-01   C at   47  1
       a =  7.000      CL =  0.9335
      Cm = -0.0416     CD =  0.01323   =>   CDf =  0.00623    CDp =  0.00699

 Side 1  free  transition at x/c =  0.2719   47
 Side 2 forced transition at x/c =  1.0000   70

 111   rms: 0.3546E-02   max: -.6481E-01   C at   47  1
       a =  7.000      CL =  0.9335
      Cm = -0.0416     CD =  0.01323   =>   CDf =  0.00623    CDp =  0.00699

 Side 1  free  transition at x/c =  0.2719   47
 Side 2 forced transition at x/c =  1.0000   70

 112   rms: 0.3546E-02   max: -.6480E-01   C at   47  1
       a =  7.000      CL =  0.9335
      Cm = -0.0416     CD =  0.01323   =>   CDf =  0.00623    CDp =  0.00699

 Side 1  free  transition at x/c =  0.2719   47
 Side 2 forced transition at x/c =  1.0000   70

 113   rms: 0.3546E-02   max: -.6481E-01   C at   47  1
       a =  7.000      CL =  0.9335
      Cm = -0.0416     CD =  0.01323   =>   CDf =  0.00623    CDp =  0.00699

 Side 1  free  transition at x/c =  0.2719   47
 Side 2 forced transition at x/c =  1.0000   70

 114   rms: 0.3546E-02   max: -.6480E-01   C at   47  1
       a =  7.000      CL =  0.9335
      Cm = -0.0416     CD =  0.01323   =>   CDf =  0.00623    CDp =  0.00699

 Side 1  free  transition at x/c =  0.2719   47
 Side 2 forced transition at x/c =  1.0000   70

 115   rms: 0.3546E-02   max: -.6480E-01   C at   47  1
       a =  7.000      CL =  0.9335
      Cm = -0.0416     CD =  0.01323   =>   CDf =  0.00623    CDp =  0.00699

 Side 1  free  transition at x/c =  0.2719   47
 Side 2 forced transition at x/c =  1.0000   70

 116   rms: 0.3546E-02   max: -.6480E-01   C at   47  1
       a =  7.000      CL =  0.9335
      Cm = -0.0416     CD =  0.01323   =>   CDf =  0.00623    CDp =  0.00699

 Side 1  free  transition at x/c =  0.2719   47
 Side 2 forced transition at x/c =  1.0000   70

 117   rms: 0.3546E-02   max: -.6480E-01   C at   47  1
       a =  7.000      CL =  0.9335
      Cm = -0.0416     CD =  0.01323   =>   CDf =  0.00623    CDp =  0.00699

 Side 1  free  transition at x/c =  0.2719   47
 Side 2 forced transition at x/c =  1.0000   70

 118   rms: 0.3546E-02   max: -.6481E-01   C at   47  1
       a =  7.000      CL =  0.9335
      Cm = -0.0416     CD =  0.01323   =>   CDf =  0.00623    CDp =  0.00699

 Side 1  free  transition at x/c =  0.2719   47
 Side 2 forced transition at x/c =  1.0000   70

 119   rms: 0.3546E-02   max: -.6480E-01   C at   47  1
       a =  7.000      CL =  0.9335
      Cm = -0.0416     CD =  0.01323   =>   CDf =  0.00623    CDp =  0.00699

 Side 1  free  transition at x/c =  0.2719   47
 Side 2 forced transition at x/c =  1.0000   70

 120   rms: 0.3546E-02   max: -.6480E-01   C at   47  1
       a =  7.000      CL =  0.9335
      Cm = -0.0416     CD =  0.01323   =>   CDf =  0.00623    CDp =  0.00699

 Side 1  free  transition at x/c =  0.2719   47
 Side 2 forced transition at x/c =  1.0000   70

 121   rms: 0.3546E-02   max: -.6480E-01   C at   47  1
       a =  7.000      CL =  0.9335
      Cm = -0.0416     CD =  0.01323   =>   CDf =  0.00623    CDp =  0.00699

 Side 1  free  transition at x/c =  0.2719   47
 Side 2 forced transition at x/c =  1.0000   70

 122   rms: 0.3546E-02   max: -.6480E-01   C at   47  1
       a =  7.000      CL =  0.9335
      Cm = -0.0416     CD =  0.01323   =>   CDf =  0.00623    CDp =  0.00699

 Side 1  free  transition at x/c =  0.2719   47
 Side 2 forced transition at x/c =  1.0000   70

 123   rms: 0.3546E-02   max: -.6480E-01   C at   47  1
       a =  7.000      CL =  0.9335
      Cm = -0.0416     CD =  0.01323   =>   CDf =  0.00623    CDp =  0.00699

 Side 1  free  transition at x/c =  0.2719   47
 Side 2 forced transition at x/c =  1.0000   70

 124   rms: 0.3546E-02   max: -.6480E-01   C at   47  1
       a =  7.000      CL =  0.9335
      Cm = -0.0416     CD =  0.01323   =>   CDf =  0.00623    CDp =  0.00699

 Side 1  free  transition at x/c =  0.2719   47
 Side 2 forced transition at x/c =  1.0000   70

 125   rms: 0.3546E-02   max: -.6480E-01   C at   47  1
       a =  7.000      CL =  0.9335
      Cm = -0.0416     CD =  0.01323   =>   CDf =  0.00623    CDp =  0.00699

 Side 1  free  transition at x/c =  0.2719   47
 Side 2 forced transition at x/c =  1.0000   70

 126   rms: 0.3546E-02   max: -.6480E-01   C at   47  1
       a =  7.000      CL =  0.9335
      Cm = -0.0416     CD =  0.01323   =>   CDf =  0.00623    CDp =  0.00699

 Side 1  free  transition at x/c =  0.2719   47
 Side 2 forced transition at x/c =  1.0000   70

 127   rms: 0.3546E-02   max: -.6480E-01   C at   47  1
       a =  7.000      CL =  0.9335
      Cm = -0.0416     CD =  0.01323   =>   CDf =  0.00623    CDp =  0.00699

 Side 1  free  transition at x/c =  0.2719   47
 Side 2 forced transition at x/c =  1.0000   70

 128   rms: 0.3546E-02   max: -.6481E-01   C at   47  1
       a =  7.000      CL =  0.9335
      Cm = -0.0416     CD =  0.01323   =>   CDf =  0.00623    CDp =  0.00699

 Side 1  free  transition at x/c =  0.2719   47
 Side 2 forced transition at x/c =  1.0000   70

 129   rms: 0.3546E-02   max: -.6480E-01   C at   47  1
       a =  7.000      CL =  0.9335
      Cm = -0.0416     CD =  0.01323   =>   CDf =  0.00623    CDp =  0.00699

 Side 1  free  transition at x/c =  0.2719   47
 Side 2 forced transition at x/c =  1.0000   70

 130   rms: 0.3546E-02   max: -.6480E-01   C at   47  1
       a =  7.000      CL =  0.9335
      Cm = -0.0416     CD =  0.01323   =>   CDf =  0.00623    CDp =  0.00699

 Side 1  free  transition at x/c =  0.2719   47
 Side 2 forced transition at x/c =  1.0000   70

 131   rms: 0.3546E-02   max: -.6481E-01   C at   47  1
       a =  7.000      CL =  0.9335
      Cm = -0.0416     CD =  0.01323   =>   CDf =  0.00623    CDp =  0.00699

 Side 1  free  transition at x/c =  0.2719   47
 Side 2 forced transition at x/c =  1.0000   70

 132   rms: 0.3546E-02   max: -.6480E-01   C at   47  1
       a =  7.000      CL =  0.9335
      Cm = -0.0416     CD =  0.01323   =>   CDf =  0.00623    CDp =  0.00699

 Side 1  free  transition at x/c =  0.2719   47
 Side 2 forced transition at x/c =  1.0000   70

 133   rms: 0.3546E-02   max: -.6480E-01   C at   47  1
       a =  7.000      CL =  0.9335
      Cm = -0.0416     CD =  0.01323   =>   CDf =  0.00623    CDp =  0.00699

 Side 1  free  transition at x/c =  0.2719   47
 Side 2 forced transition at x/c =  1.0000   70

 134   rms: 0.3546E-02   max: -.6480E-01   C at   47  1
       a =  7.000      CL =  0.9335
      Cm = -0.0416     CD =  0.01323   =>   CDf =  0.00623    CDp =  0.00699

 Side 1  free  transition at x/c =  0.2719   47
 Side 2 forced transition at x/c =  1.0000   70

 135   rms: 0.3546E-02   max: -.6481E-01   C at   47  1
       a =  7.000      CL =  0.9335
      Cm = -0.0416     CD =  0.01323   =>   CDf =  0.00623    CDp =  0.00699

 Side 1  free  transition at x/c =  0.2719   47
 Side 2 forced transition at x/c =  1.0000   70

 136   rms: 0.3546E-02   max: -.6480E-01   C at   47  1
       a =  7.000      CL =  0.9335
      Cm = -0.0416     CD =  0.01323   =>   CDf =  0.00623    CDp =  0.00699

 Side 1  free  transition at x/c =  0.2719   47
 Side 2 forced transition at x/c =  1.0000   70

 137   rms: 0.3546E-02   max: -.6480E-01   C at   47  1
       a =  7.000      CL =  0.9335
      Cm = -0.0416     CD =  0.01323   =>   CDf =  0.00623    CDp =  0.00699

 Side 1  free  transition at x/c =  0.2719   47
 Side 2 forced transition at x/c =  1.0000   70

 138   rms: 0.3546E-02   max: -.6480E-01   C at   47  1
       a =  7.000      CL =  0.9335
      Cm = -0.0416     CD =  0.01323   =>   CDf =  0.00623    CDp =  0.00699

 Side 1  free  transition at x/c =  0.2719   47
 Side 2 forced transition at x/c =  1.0000   70

 139   rms: 0.3546E-02   max: -.6480E-01   C at   47  1
       a =  7.000      CL =  0.9335
[...]

 Side 1  free  transition at x/c =  0.0364   33
 Side 2 forced transition at x/c =  1.0000   65

   1   rms: 0.3214E-01   max: 0.9362E-01   D at   76  1   RLX: 0.681
       a = 12.750      CL =  1.1641
      Cm =  0.0041     CD =  0.03332   =>   CDf =  0.00689    CDp =  0.02643

 Side 1  free  transition at x/c =  0.0360   33
 Side 2 forced transition at x/c =  1.0000   65

   2   rms: 0.9827E-02   max: 0.3278E-01   D at   78  1
       a = 12.750      CL =  1.1662
      Cm =  0.0045     CD =  0.03375   =>   CDf =  0.00684    CDp =  0.02691

 Side 1  free  transition at x/c =  0.0358   33
 Side 2 forced transition at x/c =  1.0000   65

   3   rms: 0.7140E-03   max: 0.5471E-02   D at   78  1
       a = 12.750      CL =  1.1657
      Cm =  0.0045     CD =  0.03373   =>   CDf =  0.00682    CDp =  0.02691

 Side 1  free  transition at x/c =  0.0358   33
 Side 2 forced transition at x/c =  1.0000   65

   4   rms: 0.1758E-04   max: 0.1920E-03   D at   76  2
       a = 12.750      CL =  1.1657
      Cm =  0.0045     CD =  0.03373   =>   CDf =  0.00682    CDp =  0.02691
 plradd ia,ip,cpol           40           0  3.46289971E-03

 Point added to stored polar  1
 Point written to save file  goe601_Re500k.base.pol                          
 Dump file unspecified or not available
 Calculating wake trajectory ...
 Calculating source influence matrix ...

 Solving BL system ...

 Side 1  free  transition at x/c =  0.0358   33
 Side 2 forced transition at x/c =  1.0000   65

   1   rms: 0.3247E-01   max: 0.9646E-01   D at   76  1   RLX: 0.660
       a = 13.000      CL =  1.1710
      Cm =  0.0052     CD =  0.03481   =>   CDf =  0.00654    CDp =  0.02827

 Side 1  free  transition at x/c =  0.0355   34
 Side 2 forced transition at x/c =  1.0000   64

   2   rms: 0.1156E-01   max: 0.3765E-01   D at   78  1
       a = 13.000      CL =  1.1728
      Cm =  0.0056     CD =  0.03533   =>   CDf =  0.00678    CDp =  0.02855

 Side 1  free  transition at x/c =  0.0353   34
 Side 2 forced transition at x/c =  1.0000   64

   3   rms: 0.5916E-03   max: -.2883E-02   D at    4  1
       a = 13.000      CL =  1.1723
      Cm =  0.0057     CD =  0.03529   =>   CDf =  0.00676    CDp =  0.02853

 Side 1  free  transition at x/c =  0.0353   34
 Side 2 forced transition at x/c =  1.0000   64

   4   rms: 0.8192E-05   max: -.8505E-04   C at   64  2
       a = 13.000      CL =  1.1723
      Cm =  0.0057     CD =  0.03528   =>   CDf =  0.00676    CDp =  0.02853
 plradd ia,ip,cpol           41           0  3.46289971E-03

 Point added to stored polar  1
 Point written to save file  goe601_Re500k.base.pol                          
 Dump file unspecified or not available
 Calculating wake trajectory ...
 Calculating source influence matrix ...

 Solving BL system ...

 Side 1  free  transition at x/c =  0.0353   34
 Side 2 forced transition at x/c =  1.0000   64

   1   rms: 0.3247E-01   max: 0.1033E+00   T at   34  1   RLX: 0.640
       a = 13.250      CL =  1.1769
      Cm =  0.0063     CD =  0.03641   =>   CDf =  0.00676    CDp =  0.02965

 Side 1  free  transition at x/c =  0.0349   34
 Side 2 forced transition at x/c =  1.0000   64

   2   rms: 0.1248E-01   max: 0.5149E-01   D at   78  1
       a = 13.250      CL =  1.1776
      Cm =  0.0068     CD =  0.03711   =>   CDf =  0.00672    CDp =  0.03039

 Side 1  free  transition at x/c =  0.0347   34
 Side 2 forced transition at x/c =  1.0000   64

   3   rms: 0.7968E-03   max: 0.4339E-02   D at   76  2
       a = 13.250      CL =  1.1770
      Cm =  0.0068     CD =  0.03706   =>   CDf =  0.00669    CDp =  0.03036

 Side 1  free  transition at x/c =  0.0347   34
 Side 2 forced transition at x/c =  1.0000   64

   4   rms: 0.1884E-04   max: -.1752E-03   C at   64  2
       a = 13.250      CL =  1.1769
      Cm =  0.0068     CD =  0.03705   =>   CDf =  0.00669    CDp =  0.03036
 plradd ia,ip,cpol           42           0  2.36851629E-03

 Point added to stored polar  1
 Point written to save file  goe601_Re500k.base.pol                          
 Dump file unspecified or not available
 Calculating wake trajectory ...
 Calculating source influence matrix ...

 Solving BL system ...

 Side 1  free  transition at x/c =  0.0347   34
 Side 2 forced transition at x/c =  1.0000   64

   1   rms: 0.3193E-01   max: 0.1029E+00   D at   75  1   RLX: 0.619
       a = 13.500      CL =  1.1811
      Cm =  0.0074     CD =  0.03823   =>   CDf =  0.00670    CDp =  0.03153

 Side 1  free  transition at x/c =  0.0344   34
 Side 2 forced transition at x/c =  1.0000   64

   2   rms: 0.1213E-01   max: 0.4728E-01   D at   77  1
       a = 13.500      CL =  1.1823
      Cm =  0.0078     CD =  0.03893   =>   CDf =  0.00666    CDp =  0.03227

 Side 1  free  transition at x/c =  0.0342   34
 Side 2 forced transition at x/c =  1.0000   64

   3   rms: 0.1027E-02   max: 0.5486E-02   D at   77  1
       a = 13.500      CL =  1.1816
      Cm =  0.0079     CD =  0.03888   =>   CDf =  0.00664    CDp =  0.03225

 Side 1  free  transition at x/c =  0.0342   34
 Side 2 forced transition at x/c =  1.0000   64

   4   rms: 0.1775E-04   max: -.1989E-03   C at   64  2
       a = 13.500      CL =  1.1816
      Cm =  0.0079     CD =  0.03888   =>   CDf =  0.00664    CDp =  0.03224
 plradd ia,ip,cpol           43           0  2.36851629E-03

 Point added to stored polar  1
 Point written to save file  goe601_Re500k.base.pol                          
 Dump file unspecified or not available
 Calculating wake trajectory ...
 Calculating source influence matrix ...

 Solving BL system ...

 Side 1  free  transition at x/c =  0.0342   34
 Side 2 forced transition at x/c =  1.0000   64

   1   rms: 0.3232E-01   max: 0.1092E+00   D at   75  1   RLX: 0.600
       a = 13.750      CL =  1.1848
      Cm =  0.0083     CD =  0.04013   =>   CDf =  0.00664    CDp =  0.03350

 Side 1  free  transition at x/c =  0.0339   34
 Side 2 forced transition at x/c =  1.0000   64

   2   rms: 0.1292E-01   max: 0.4744E-01   D at   76  1
       a = 13.750      CL =  1.1860
      Cm =  0.0087     CD =  0.04091   =>   CDf =  0.00660    CDp =  0.03430

 Side 1  free  transition at x/c =  0.0338   34
 Side 2 forced transition at x/c =  1.0000   64

   3   rms: 0.1307E-02   max: 0.9755E-02   D at   76  1
       a = 13.750      CL =  1.1850
      Cm =  0.0088     CD =  0.04087   =>   CDf =  0.00658    CDp =  0.03429

 Side 1  free  transition at x/c =  0.0338   34
 Side 2 forced transition at x/c =  1.0000   64

   4   rms: 0.4765E-04   max: 0.4536E-03   D at   76  2
       a = 13.750      CL =  1.1850
      Cm =  0.0088     CD =  0.04086   =>   CDf =  0.00657    CDp =  0.03429
 plradd ia,ip,cpol           44           0  2.36851629E-03

 Point added to stored polar  1
 Point written to save file  goe601_Re500k.base.pol                          
 Dump file unspecified or not available
 Calculating wake trajectory ...
 Calculating source influence matrix ...

 Solving BL system ...

 Side 1  free  transition at x/c =  0.0338   34
 Side 2 forced transition at x/c =  1.0000   64

   1   rms: 0.3267E-01   max: 0.1138E+00   D at   74  1   RLX: 0.581
       a = 14.000      CL =  1.1875
      Cm =  0.0092     CD =  0.04218   =>   CDf =  0.00658    CDp =  0.03560

 Side 1  free  transition at x/c =  0.0336   34
 Side 2 forced transition at x/c =  1.0000   64

   2   rms: 0.1380E-01   max: 0.5191E-01   D at   75  1
       a = 14.000      CL =  1.1882
      Cm =  0.0096     CD =  0.04307   =>   CDf =  0.00654    CDp =  0.03653

 Side 1  free  transition at x/c =  0.0334   34
 Side 2 forced transition at x/c =  1.0000   64

   3   rms: 0.1220E-02   max: 0.7965E-02   D at   75  1
       a = 14.000      CL =  1.1872
      Cm =  0.0097     CD =  0.04301   =>   CDf =  0.00652    CDp =  0.03650

 Side 1  free  transition at x/c =  0.0334   34
 Side 2 forced transition at x/c =  1.0000   64

   4   rms: 0.4651E-04   max: 0.3017E-03   D at   76  2
       a = 14.000      CL =  1.1872
      Cm =  0.0097     CD =  0.04300   =>   CDf =  0.00651    CDp =  0.03649
 plradd ia,ip,cpol           45           0  2.36851629E-03

 Point added to stored polar  1
 Point written to save file  goe601_Re500k.base.pol                          
 Dump file unspecified or not available
 Calculating wake trajectory ...
 Calculating source influence matrix ...

 Solving BL system ...

 Side 1  free  transition at x/c =  0.0334   34
 Side 2 forced transition at x/c =  1.0000   64

   1   rms: 0.3454E-01   max: 0.1254E+00   D at   73  1   RLX: 0.561
       a = 14.250      CL =  1.1884
      Cm =  0.0100     CD =  0.04447   =>   CDf =  0.00652    CDp =  0.03795

 Side 1  free  transition at x/c =  0.0330   34
 Side 2 forced transition at x/c =  1.0000   64

   2   rms: 0.1638E-01   max: 0.6711E-01   D at   74  1
       a = 14.250      CL =  1.1862
      Cm =  0.0105     CD =  0.04573   =>   CDf =  0.00649    CDp =  0.03924

 Side 1  free  transition at x/c =  0.0327   34
 Side 2 forced transition at x/c =  1.0000   64

   3   rms: 0.1791E-02   max: 0.1058E-01   D at   74  1
       a = 14.250      CL =  1.1848
      Cm =  0.0106     CD =  0.04566   =>   CDf =  0.00647    CDp =  0.03919

 Side 1  free  transition at x/c =  0.0327   34
 Side 2 forced transition at x/c =  1.0000   64

   4   rms: 0.8330E-04   max: 0.5375E-03   D at   77  2
       a = 14.250      CL =  1.1847
      Cm =  0.0106     CD =  0.04565   =>   CDf =  0.00646    CDp =  0.03918
 plradd ia,ip,cpol           46           0  3.46289971E-03

 Point added to stored polar  1
 Point written to save file  goe601_Re500k.base.pol                          
 Dump file unspecified or not available
 Calculating wake trajectory ...
 Calculating source influence matrix ...

 Solving BL system ...

 Side 1  free  transition at x/c =  0.0327   34
 Side 2 forced transition at x/c =  1.0000   64

   1   rms: 0.3518E-01   max: 0.1289E+00   D at   72  1   RLX: 0.541
       a = 14.500      CL =  1.1853
      Cm =  0.0109     CD =  0.04718   =>   CDf =  0.00615    CDp =  0.04102

 Side 1  free  transition at x/c =  0.0325   35
 Side 2 forced transition at x/c =  1.0000   63

   2   rms: 0.5334E-01   max: 0.8714E+00   T at    2  1
       a = 14.500      CL =  1.1844
      Cm =  0.0112     CD =  0.04840   =>   CDf =  0.00643    CDp =  0.04197

 Side 1  free  transition at x/c =  0.0324   35
 Side 2 forced transition at x/c =  1.0000   63

   3   rms: 0.2810E-02   max: 0.3245E-01   D at    4  1
       a = 14.500      CL =  1.1833
      Cm =  0.0114     CD =  0.04827   =>   CDf =  0.00640    CDp =  0.04187

 Side 1  free  transition at x/c =  0.0324   35
 Side 2 forced transition at x/c =  1.0000   63

   4   rms: 0.4748E-04   max: 0.7024E-03   D at   76  2
       a = 14.500      CL =  1.1833
      Cm =  0.0114     CD =  0.04826   =>   CDf =  0.00640    CDp =  0.04186
 plradd ia,ip,cpol           47           0  1.49051729E-03

 Point added to stored polar  1
 Point written to save file  goe601_Re500k.base.pol                          
 Dump file unspecified or not available
 Calculating wake trajectory ...
 Calculating source influence matrix ...

 Solving BL system ...

 Side 1  free  transition at x/c =  0.0324   35
 Side 2 forced transition at x/c =  1.0000   63

   1   rms: 0.3745E-01   max: 0.1416E+00   D at   72  1   RLX: 0.522
       a = 14.750      CL =  1.1821
      Cm =  0.0117     CD =  0.04995   =>   CDf =  0.00640    CDp =  0.04355

 Side 1  free  transition at x/c =  0.0321   35
 Side 2 forced transition at x/c =  1.0000   63

   2   rms: 0.1928E-01   max: 0.7234E-01   D at   73  1
       a = 14.750      CL =  1.1789
      Cm =  0.0121     CD =  0.05146   =>   CDf =  0.00637    CDp =  0.04509

 Side 1  free  transition at x/c =  0.0319   34
 Side 2 forced transition at x/c =  1.0000   63

   3   rms: 0.4741E-02   max: -.5185E-01   D at   34  1
       a = 14.750      CL =  1.1818
      Cm =  0.0121     CD =  0.05090   =>   CDf =  0.00633    CDp =  0.04457

 Side 1  free  transition at x/c =  0.0319   34
 Side 2 forced transition at x/c =  1.0000   63

   4   rms: 0.5294E-03   max: -.2088E-02   D at   74  1
       a = 14.750      CL =  1.1822
      Cm =  0.0120     CD =  0.05087   =>   CDf =  0.00633    CDp =  0.04454

 Side 1  free  transition at x/c =  0.0319   34
 Side 2 forced transition at x/c =  1.0000   63

   5   rms: 0.2627E-04   max: 0.1927E-03   C at   63  2
       a = 14.750      CL =  1.1822
      Cm =  0.0120     CD =  0.05087   =>   CDf =  0.00633    CDp =  0.04455
 plradd ia,ip,cpol           48           0  2.36851629E-03

 Point added to stored polar  1
 Point written to save file  goe601_Re500k.base.pol                          
 Dump file unspecified or not available
 Calculating wake trajectory ...
 Calculating source influence matrix ...

 Solving BL system ...

 Side 1  free  transition at x/c =  0.0319   34
 Side 2 forced transition at x/c =  1.0000   63

   1   rms: 0.3324E-01   max: -.2236E+00   D at    3  1   RLX: 0.510
       a = 15.000      CL =  1.1859
      Cm =  0.0121     CD =  0.05204   =>   CDf =  0.00633    CDp =  0.04570

 Side 1  free  transition at x/c =  0.0318   34
 Side 2 forced transition at x/c =  1.0000   63

   2   rms: 0.1653E-01   max: -.1033E+00   D at    3  1
       a = 15.000      CL =  1.1877
      Cm =  0.0123     CD =  0.05319   =>   CDf =  0.00629    CDp =  0.04689

 Side 1  free  transition at x/c =  0.0317   34
 Side 2 forced transition at x/c =  1.0000   63

   3   rms: 0.1491E-02   max: 0.6652E-02   D at   77  2
       a = 15.000      CL =  1.1865
      Cm =  0.0124     CD =  0.05310   =>   CDf =  0.00625    CDp =  0.04684

 Side 1  free  transition at x/c =  0.0317   34
 Side 2 forced transition at x/c =  1.0000   63

   4   rms: 0.7526E-04   max: -.4761E-03   C at   63  2
       a = 15.000      CL =  1.1864
      Cm =  0.0124     CD =  0.05308   =>   CDf =  0.00625    CDp =  0.04683
 plradd ia,ip,cpol           49           0  2.36851629E-03

 Point added to stored polar  1
 Point written to save file  goe601_Re500k.base.pol                          
 Dump file unspecified or not available
 Calculating wake trajectory ...
 Calculating source influence matrix ...

 Solving BL system ...

 Side 1  free  transition at x/c =  0.0317   34
 Side 2 forced transition at x/c =  1.0000   63

   1   rms: 0.3070E-01   max: 0.8976E-01   D at   71  1   RLX: 0.497
       a = 15.250      CL =  1.1901
      Cm =  0.0124     CD =  0.05425   =>   CDf =  0.00626    CDp =  0.04799

 Side 1  free  transition at x/c =  0.0316   34
 Side 2 forced transition at x/c =  1.0000   63

   2   rms: 0.1536E-01   max: 0.4837E-01   D at   72  1
       a = 15.250      CL =  1.1928
      Cm =  0.0125     CD =  0.05537   =>   CDf =  0.00622    CDp =  0.04915

 Side 1  free  transition at x/c =  0.0314   34
 Side 2 forced transition at x/c =  1.0000   63

   3   rms: 0.1836E-02   max: 0.1108E-01   D at   72  1
       a = 15.250      CL =  1.1914
      Cm =  0.0126     CD =  0.05531   =>   CDf =  0.00618    CDp =  0.04913

 Side 1  free  transition at x/c =  0.0314   34
 Side 2 forced transition at x/c =  1.0000   63

   4   rms: 0.9388E-04   max: 0.6453E-03   D at   77  2
       a = 15.250      CL =  1.1913
      Cm =  0.0126     CD =  0.05529   =>   CDf =  0.00617    CDp =  0.04912
 plradd ia,ip,cpol           50           0  1.49051729E-03

 Point added to stored polar  1
 Point written to save file  goe601_Re500k.base.pol                          
 Dump file unspecified or not available
 Calculating wake trajectory ...
 Calculating source influence matrix ...

 Solving BL system ...

 Side 1  free  transition at x/c =  0.0314   34
 Side 2 forced transition at x/c =  1.0000   63

   1   rms: 0.2910E-01   max: 0.9675E-01   D at   70  1   RLX: 0.485
       a = 15.500      CL =  1.1940
      Cm =  0.0126     CD =  0.05654   =>   CDf =  0.00618    CDp =  0.05036

 Side 1  free  transition at x/c =  0.0313   34
 Side 2 forced transition at x/c =  1.0000   63

   2   rms: 0.1499E-01   max: 0.5162E-01   D at   71  1
       a = 15.500      CL =  1.1961
      Cm =  0.0127     CD =  0.05776   =>   CDf =  0.00614    CDp =  0.05162

 Side 1  free  transition at x/c =  0.0311   34
 Side 2 forced transition at x/c =  1.0000   63

   3   rms: 0.1549E-02   max: 0.7999E-02   D at   77  2
       a = 15.500      CL =  1.1949
      Cm =  0.0128     CD =  0.05766   =>   CDf =  0.00610    CDp =  0.05156

 Side 1  free  transition at x/c =  0.0311   34
 Side 2 forced transition at x/c =  1.0000   63

   4   rms: 0.7911E-04   max: 0.6064E-03   D at   77  2
       a = 15.500      CL =  1.1948
      Cm =  0.0128     CD =  0.05764   =>   CDf =  0.00610    CDp =  0.05154
 plradd ia,ip,cpol           51           0  2.36851629E-03

 Point added to stored polar  1
 Point written to save file  goe601_Re500k.base.pol                          
 Dump file unspecified or not available
 Calculating wake trajectory ...
 Calculating source influence matrix ...

 Solving BL system ...

 Side 1  free  transition at x/c =  0.0311   34
 Side 2 forced transition at x/c =  1.0000   63

   1   rms: 0.3008E-01   max: 0.9405E-01   D at   69  1   RLX: 0.473
       a = 15.750      CL =  1.1976
      Cm =  0.0128     CD =  0.05887   =>   CDf =  0.00610    CDp =  0.05277

 Side 1  free  transition at x/c =  0.0309   34
 Side 2 forced transition at x/c =  1.0000   63

   2   rms: 0.1592E-01   max: 0.5387E-01   D at   70  1
       a = 15.750      CL =  1.1996
      Cm =  0.0128     CD =  0.06022   =>   CDf =  0.00607    CDp =  0.05415

 Side 1  free  transition at x/c =  0.0306   34
 Side 2 forced transition at x/c =  1.0000   63

   3   rms: 0.1802E-02   max: 0.1096E-01   D at   77  2
       a = 15.750      CL =  1.1983
      Cm =  0.0129     CD =  0.06010   =>   CDf =  0.00603    CDp =  0.05407

 Side 1  free  transition at x/c =  0.0306   34
 Side 2 forced transition at x/c =  1.0000   63

   4   rms: 0.8567E-04   max: -.5764E-03   D at   71  1
       a = 15.750      CL =  1.1983
      Cm =  0.0129     CD =  0.06007   =>   CDf =  0.00602    CDp =  0.05405
 plradd ia,ip,cpol           52           0  1.49051729E-03

 Point added to stored polar  1
 Point written to save file  goe601_Re500k.base.pol                          
 Dump file unspecified or not available
 Calculating wake trajectory ...
 Calculating source influence matrix ...

 Solving BL system ...

 Side 1  free  transition at x/c =  0.0306   34
 Side 2 forced transition at x/c =  1.0000   63

   1   rms: 0.3056E-01   max: 0.9304E-01   D at   68  1   RLX: 0.461
       a = 16.000      CL =  1.2007
      Cm =  0.0129     CD =  0.06131   =>   CDf =  0.00603    CDp =  0.05528

 Side 1  free  transition at x/c =  0.0305   34
 Side 2 forced transition at x/c =  1.0000   63

   2   rms: 0.1640E-01   max: 0.5347E-01   D at   70  1
       a = 16.000      CL =  1.2024
      Cm =  0.0129     CD =  0.06269   =>   CDf =  0.00567    CDp =  0.05702

 Side 1  free  transition at x/c =  0.0303   35
 Side 2 forced transition at x/c =  1.0000   62

   3   rms: 0.2384E-02   max: 0.9851E-02   D at   71  1
       a = 16.000      CL =  1.2007
      Cm =  0.0130     CD =  0.06262   =>   CDf =  0.00595    CDp =  0.05667

 Side 1  free  transition at x/c =  0.0303   35
 Side 2 forced transition at x/c =  1.0000   62

   4   rms: 0.1109E-03   max: -.7965E-03   C at   62  2
       a = 16.000      CL =  1.2007
      Cm =  0.0130     CD =  0.06258   =>   CDf =  0.00595    CDp =  0.05663

 Side 1  free  transition at x/c =  0.0303   35
 Side 2 forced transition at x/c =  1.0000   62

   5   rms: 0.1112E-04   max: -.4837E-04   D at   76  2
       a = 16.000      CL =  1.2007
      Cm =  0.0130     CD =  0.06258   =>   CDf =  0.00595    CDp =  0.05663
 plradd ia,ip,cpol           53           0  2.36851629E-03

 Point added to stored polar  1
 Point written to save file  goe601_Re500k.base.pol                          
 Dump file unspecified or not available

.OPERva   c>  
 Polar accumulation disabled

.OPERv   c>  
 XFOIL   c>  
 XFOIL   c>  