
 ===================================================
  XFOIL Version 6.99
  Copyright (C) 2000   Mark Drela, Harold Youngren

  This software comes with ABSOLUTELY NO WARRANTY,
    subject to the GNU General Public License.

  Caveat computor
 ===================================================

 File  xfoil.def  not found

   QUIT    Exit program

  .OPER    Direct operating point(s)
  .MDES    Complex mapping design routine
  .QDES    Surface speed design routine
  .GDES    Geometry design routine

   SAVE f  Write airfoil to labeled coordinate file
   PSAV f  Write airfoil to plain coordinate file
   ISAV f  Write airfoil to ISES coordinate file
   MSAV f  Write airfoil to MSES coordinate file
   REVE    Reverse written-airfoil node ordering

   LOAD f  Read buffer airfoil from coordinate file
   NACA i  Set NACA 4,5-digit airfoil and buffer airfoil
   INTE    Set buffer airfoil by interpolating two airfoils
   NORM    Buffer airfoil normalization toggle
   XYCM rr Change CM reference location, currently  0.25000 0.00000

   BEND    Display structural properties of current airfoil

   PCOP    Set current-airfoil panel nodes directly from buffer airfoil points
   PANE    Set current-airfoil panel nodes ( 160 ) based on curvature
  .PPAR    Show/change paneling

  .PLOP    Plotting options

   WDEF f  Write  current-settings file
   RDEF f  Reread current-settings file
   NAME s  Specify new airfoil name
   NINC    Increment name version number

   Z       Zoom    | (available in all menus)
   U       Unzoom  | 

 XFOIL   c>  
 Labeled airfoil file.  Name:  GOE 776 AIRFOIL                                 

 Number of input coordinate points:  33
 Counterclockwise ordering
 Max thickness =     0.250000  at x =   0.299
 Max camber    =     0.000123  at x =   0.401

  LE  x,y  =   0.00000  -0.00016  |   Chord =   1.00000
  TE  x,y  =   1.00000   0.00260  |

 Current airfoil nodes set from buffer airfoil nodes (  33 )

 XFOIL   c>  
 XFOIL   c>  
 Blunt trailing edge.  Gap =  0.00520

 Paneling parameters used...
   Number of panel nodes       160
   Panel bunching parameter    1.000
   TE/LE panel density ratio   0.150
   Refined-area/LE panel density ratio    0.200
   Top    side refined area x/c limits  1.000 1.000
   Bottom side refined area x/c limits  1.000 1.000

 XFOIL   c>  
.OPERi   c>  
 Xtr/c     =  1.0000    top    side
 Xtr/c     =  1.0000    bottom side
 Ncrit     =    9.00   ( 0.070 % turb. level )
 Vacc      =  0.0100

 Klag  =  5.6000     Uxwt  =    1.00
 A     =  6.7000     B     =  0.7500       KCt = 0.01485
 CtiniK=  1.8000     CtiniX=  3.3000

..VPAR   c>  
..VPAR   c>  
.OPERi   c>  
 M  =    0.0000
 Re =    400000

.OPERv   c>  
.OPERv   c>  
.OPERv   c>  
 Polar  1 newly created for accumulation
 Airfoil archived with polar: GOE 776 AIRFOIL                                 

Enter  polar save filename  OR  <return> for no file   s>  
 New polar save file available

Enter  polar dump filename  OR  <return> for no file   s>  
 Polar dump file will NOT be written

 Polar accumulation enabled

.OPERva   c>   Calculating unit vorticity distributions ...
 Calculating wake trajectory ...
 Calculating source influence matrix ...

 Solving BL system ...

 Initializing BL ...
    side            1  ...
 MRCHUE: Inverse mode at  53     Hk =   4.349
 MRCHUE: Inverse mode at  54     Hk =   5.139
 MRCHUE: Inverse mode at  55     Hk =   5.938
 MRCHUE: Inverse mode at  56     Hk =   6.752
 MRCHUE: Inverse mode at  57     Hk =   7.587
 MRCHUE: Inverse mode at  58     Hk =   8.452
 MRCHUE: Inverse mode at  59     Hk =   7.738
 MRCHUE: Inverse mode at  60     Hk =   3.930
 MRCHUE: Inverse mode at  61     Hk =   2.500
 MRCHUE: Inverse mode at  92     Hk =   2.500
 MRCHUE: Inverse mode at  93     Hk =   2.500
 MRCHUE: Inverse mode at  94     Hk =   2.500
 MRCHUE: Inverse mode at  95     Hk =   2.500
 MRCHUE: Inverse mode at  96     Hk =   2.500
 MRCHUE: Inverse mode at  97     Hk =   2.500
 MRCHUE: Inverse mode at  98     Hk =   2.500
 MRCHUE: Inverse mode at  99     Hk =   2.500
 MRCHUE: Inverse mode at 100     Hk =   2.500
 MRCHUE: Inverse mode at 101     Hk =   2.500
 MRCHUE: Inverse mode at 102     Hk =   2.500
 MRCHUE: Convergence failed at 103  side 1    Res =  0.6018E+01
 MRCHUE: Inverse mode at 104     Hk =   2.500
 MRCHUE: Inverse mode at 105     Hk =   2.500
 MRCHUE: Convergence failed at 106  side 1    Res =  0.8813E+01
 MRCHUE: Convergence failed at 107  side 1    Res =  0.7890E+01
    side            2  ...
 MRCHUE: Inverse mode at  48     Hk =   3.863
 MRCHUE: Inverse mode at  49     Hk =   4.558
 MRCHUE: Inverse mode at  50     Hk =   5.206
 MRCHUE: Inverse mode at  51     Hk =   5.805
 MRCHUE: Inverse mode at  52     Hk =   6.350
 MRCHUE: Inverse mode at  53     Hk =   6.841
 MRCHUE: Inverse mode at  54     Hk =   7.282
 MRCHUE: Inverse mode at  55     Hk =   7.551

 MRCHDU: Convergence failed at 103  side 1    Res =  0.1446E+01
 MRCHDU: Convergence failed at 104  side 1    Res =  0.1526E+01
 MRCHDU: Convergence failed at 105  side 1    Res =  0.1598E+01
 MRCHDU: Convergence failed at 106  side 1    Res =  0.5259E+01
 MRCHDU: Convergence failed at 107  side 1    Res =  0.3810E+02
 Side 1  free  transition at x/c =  0.0978   59
 Side 2 forced transition at x/c =  1.0000   55

   1   rms: 0.1027E+01   max: 0.4899E+01   D at   58  2   RLX: 0.109
       a = 16.250      CL =  2.1047
      Cm = -0.1002     CD =  0.00524   =>   CDf =  0.00798    CDp = -0.00274

 Side 1  free  transition at x/c =  0.0999   60
 Side 2 forced transition at x/c =  1.0000   55

   2   rms: 0.8019E+00   max: -.7488E+01   C at   55  2   RLX: 0.067
       a = 16.250      CL =  2.0706
      Cm = -0.0931     CD =  0.00607   =>   CDf =  0.00797    CDp = -0.00189

 Side 1  free  transition at x/c =  0.1010   60
 Side 2 forced transition at x/c =  1.0000   55
 idif Ue xi dudx           1  6.08763024E-02  6.63435459E-03   9.1759195    
 Uenew xinew           2  1.69438112E-03  1.84655190E-04

   3   rms: 0.7072E+00   max: -.5052E+01   C at   55  2   RLX: 0.099
       a = 16.250      CL =  2.0328
      Cm = -0.0855     CD =  0.00737   =>   CDf =  0.00812    CDp = -0.00075

 Side 1  free  transition at x/c =  0.1023   59
 Side 2 forced transition at x/c =  1.0000   56

   4   rms: 0.6618E+00   max: -.3680E+01   C at   56  2   RLX: 0.136
       a = 16.250      CL =  1.9804
      Cm = -0.0766     CD =  0.00940   =>   CDf =  0.00772    CDp =  0.00168

 Side 1  free  transition at x/c =  0.1043   59
 Side 2 forced transition at x/c =  1.0000   56

   5   rms: 0.6915E+00   max: -.3938E+01   C at   56  2   RLX: 0.127
       a = 16.250      CL =  1.9127
      Cm = -0.0675     CD =  0.01181   =>   CDf =  0.00762    CDp =  0.00418

 Side 1  free  transition at x/c =  0.1066   59
 Side 2 forced transition at x/c =  1.0000   56
 idif Ue xi dudx           1  9.67882350E-02  9.88519192E-03   9.7912350    
 Uenew xinew           2  3.65545638E-02  3.73339653E-03

   6   rms: 0.5555E+00   max: 0.2459E+01   D at   63  2   RLX: 0.381
       a = 16.250      CL =  1.7086
      Cm = -0.0341     CD =  0.01912   =>   CDf =  0.00789    CDp =  0.01123

 MRCHDU: Convergence failed at  64  side 2    Res =  0.2581E+01
 Side 1  free  transition at x/c =  0.1154   59
 Side 2 forced transition at x/c =  1.0000   57
 idif Ue xi dudx           1  0.10617466      1.03443861E-02   10.263988    
 Uenew xinew           2  4.58884984E-02  4.47082520E-03

   7   rms: 0.4338E+00   max: 0.1762E+01   D at   61  2   RLX: 0.423
       a = 16.250      CL =  1.4939
      Cm =  0.0014     CD =  0.02872   =>   CDf =  0.00752    CDp =  0.02120

 Side 1  free  transition at x/c =  0.1257   59
 Side 2 forced transition at x/c =  1.0000   58
 idif Ue xi dudx           2  0.12064683      1.10599995E-02   10.908394    
 Uenew xinew           3  5.94534613E-02  5.45024872E-03

   8   rms: 0.2821E+00   max: 0.1002E+01   D at   65  2   RLX: 0.628
       a = 16.250      CL =  1.2744
      Cm =  0.0358     CD =  0.04014   =>   CDf =  0.00736    CDp =  0.03277

 Side 1  free  transition at x/c =  0.1372   58
 Side 2 forced transition at x/c =  1.0000   60

   9   rms: 0.1776E+00   max: -.2619E+01   D at    2  2   RLX: 0.191
       a = 16.250      CL =  1.2533
      Cm =  0.0400     CD =  0.04213   =>   CDf =  0.00656    CDp =  0.03558

 Side 1  free  transition at x/c =  0.1385   59
 Side 2 forced transition at x/c =  1.0000   60

  10   rms: 0.8371E-01   max: 0.3169E+00   D at   70  2
       a = 16.250      CL =  1.1605
      Cm =  0.0518     CD =  0.04943   =>   CDf =  0.00647    CDp =  0.04296

 Side 1  free  transition at x/c =  0.1463   59
 Side 2 forced transition at x/c =  1.0000   60

  11   rms: 0.1303E-01   max: -.1106E+00   D at   83  1
       a = 16.250      CL =  1.1628
      Cm =  0.0529     CD =  0.04837   =>   CDf =  0.00611    CDp =  0.04227

 Side 1  free  transition at x/c =  0.1447   59
 Side 2 forced transition at x/c =  1.0000   60

  12   rms: 0.7356E-03   max: -.5414E-02   D at   60  1
       a = 16.250      CL =  1.1631
      Cm =  0.0529     CD =  0.04849   =>   CDf =  0.00616    CDp =  0.04233

 Side 1  free  transition at x/c =  0.1446   59
 Side 2 forced transition at x/c =  1.0000   60

  13   rms: 0.5857E-04   max: -.2741E-03   D at   82  1
       a = 16.250      CL =  1.1631
      Cm =  0.0529     CD =  0.04849   =>   CDf =  0.00616    CDp =  0.04233
 plradd ia,ip,cpol            1           0  2.18751840E-02

 Point added to stored polar  1
 Point written to save file  goe776_Re400k.ext.pol                           
 Dump file unspecified or not available
 Calculating wake trajectory ...
 Calculating source influence matrix ...

 Solving BL system ...

 Side 1  free  transition at x/c =  0.1446   59
 Side 2 forced transition at x/c =  1.0000   60

   1   rms: 0.2664E-01   max: 0.9862E-01   D at   80  1   RLX: 0.511
       a = 16.500      CL =  1.1669
      Cm =  0.0528     CD =  0.04958   =>   CDf =  0.00617    CDp =  0.04342

 Side 1  free  transition at x/c =  0.1432   59
 Side 2 forced transition at x/c =  1.0000   60

   2   rms: 0.1294E-01   max: 0.5018E-01   D at   81  1
       a = 16.500      CL =  1.1697
      Cm =  0.0528     CD =  0.05056   =>   CDf =  0.00614    CDp =  0.04442

 Side 1  free  transition at x/c =  0.1419   59
 Side 2 forced transition at x/c =  1.0000   60

   3   rms: 0.9178E-03   max: 0.5769E-02   D at   81  1
       a = 16.500      CL =  1.1688
      Cm =  0.0529     CD =  0.05051   =>   CDf =  0.00613    CDp =  0.04438

 Side 1  free  transition at x/c =  0.1420   59
 Side 2 forced transition at x/c =  1.0000   60

   4   rms: 0.2728E-04   max: 0.1753E-03   D at   81  1
       a = 16.500      CL =  1.1688
      Cm =  0.0529     CD =  0.05050   =>   CDf =  0.00613    CDp =  0.04438
 plradd ia,ip,cpol            2           0  2.18751840E-02

 Point added to stored polar  1
 Point written to save file  goe776_Re400k.ext.pol                           
 Dump file unspecified or not available
 Calculating wake trajectory ...
 Calculating source influence matrix ...

 Solving BL system ...

 Side 1  free  transition at x/c =  0.1420   59
 Side 2 forced transition at x/c =  1.0000   60

   1   rms: 0.2697E-01   max: 0.1074E+00   D at   80  1   RLX: 0.497
       a = 16.750      CL =  1.1714
      Cm =  0.0528     CD =  0.05167   =>   CDf =  0.00613    CDp =  0.04554

 Side 1  free  transition at x/c =  0.1407   59
 Side 2 forced transition at x/c =  1.0000   60

   2   rms: 0.1387E-01   max: 0.5874E-01   D at   80  1
       a = 16.750      CL =  1.1726
      Cm =  0.0528     CD =  0.05286   =>   CDf =  0.00613    CDp =  0.04673

 Side 1  free  transition at x/c =  0.1395   59
 Side 2 forced transition at x/c =  1.0000   60

   3   rms: 0.6224E-03   max: 0.4429E-02   D at   73  2
       a = 16.750      CL =  1.1720
      Cm =  0.0529     CD =  0.05274   =>   CDf =  0.00614    CDp =  0.04660

 Side 1  free  transition at x/c =  0.1395   59
 Side 2 forced transition at x/c =  1.0000   60

   4   rms: 0.1845E-04   max: -.1001E-03   D at   75  2
       a = 16.750      CL =  1.1720
      Cm =  0.0529     CD =  0.05273   =>   CDf =  0.00613    CDp =  0.04660
 plradd ia,ip,cpol            3           0  2.18751840E-02

 Point added to stored polar  1
 Point written to save file  goe776_Re400k.ext.pol                           
 Dump file unspecified or not available
 Calculating wake trajectory ...
 Calculating source influence matrix ...

 Solving BL system ...

 Side 1  free  transition at x/c =  0.1395   59
 Side 2 forced transition at x/c =  1.0000   60

   1   rms: 0.2685E-01   max: 0.1031E+00   D at   79  1   RLX: 0.483
       a = 17.000      CL =  1.1742
      Cm =  0.0528     CD =  0.05388   =>   CDf =  0.00614    CDp =  0.04774

 Side 1  free  transition at x/c =  0.1383   59
 Side 2 forced transition at x/c =  1.0000   60

   2   rms: 0.1350E-01   max: 0.4430E-01   D at   79  1
       a = 17.000      CL =  1.1768
      Cm =  0.0530     CD =  0.05484   =>   CDf =  0.00616    CDp =  0.04868

 Side 1  free  transition at x/c =  0.1370   58
 Side 2 forced transition at x/c =  1.0000   60

   3   rms: 0.2443E-02   max: -.2813E-01   C at   58  1
       a = 17.000      CL =  1.1765
      Cm =  0.0529     CD =  0.05481   =>   CDf =  0.00617    CDp =  0.04864

 Side 1  free  transition at x/c =  0.1370   58
 Side 2 forced transition at x/c =  1.0000   60

   4   rms: 0.2153E-03   max: -.1425E-02   D at   81  1
       a = 17.000      CL =  1.1766
      Cm =  0.0530     CD =  0.05477   =>   CDf =  0.00615    CDp =  0.04862

 Side 1  free  transition at x/c =  0.1369   58
 Side 2 forced transition at x/c =  1.0000   60

   5   rms: 0.1014E-04   max: -.6762E-04   D at   73  2
       a = 17.000      CL =  1.1766
      Cm =  0.0530     CD =  0.05478   =>   CDf =  0.00615    CDp =  0.04862
 plradd ia,ip,cpol            4           0  1.90443601E-02

 Point added to stored polar  1
 Point written to save file  goe776_Re400k.ext.pol                           
 Dump file unspecified or not available
 Calculating wake trajectory ...
 Calculating source influence matrix ...

 Solving BL system ...

 Side 1  free  transition at x/c =  0.1369   58
 Side 2 forced transition at x/c =  1.0000   60

   1   rms: 0.2681E-01   max: 0.1077E+00   D at   79  1   RLX: 0.471
       a = 17.250      CL =  1.1795
      Cm =  0.0528     CD =  0.05595   =>   CDf =  0.00598    CDp =  0.04998

 Side 1  free  transition at x/c =  0.1359   59
 Side 2 forced transition at x/c =  1.0000   59

   2   rms: 0.1508E-01   max: 0.7381E-01   D at    2  1
       a = 17.250      CL =  1.1812
      Cm =  0.0526     CD =  0.05728   =>   CDf =  0.00610    CDp =  0.05118

 Side 1  free  transition at x/c =  0.1346   59
 Side 2 forced transition at x/c =  1.0000   59

   3   rms: 0.6915E-03   max: 0.4316E-02   D at   72  2
       a = 17.250      CL =  1.1806
      Cm =  0.0526     CD =  0.05713   =>   CDf =  0.00606    CDp =  0.05108

 Side 1  free  transition at x/c =  0.1346   59
 Side 2 forced transition at x/c =  1.0000   59

   4   rms: 0.2534E-04   max: -.1394E-03   D at   74  2
       a = 17.250      CL =  1.1806
      Cm =  0.0526     CD =  0.05712   =>   CDf =  0.00605    CDp =  0.05107
 plradd ia,ip,cpol            5           0  1.90443601E-02

 Point added to stored polar  1
 Point written to save file  goe776_Re400k.ext.pol                           
 Dump file unspecified or not available
 Calculating wake trajectory ...
 Calculating source influence matrix ...

 Solving BL system ...

 Side 1  free  transition at x/c =  0.1346   59
 Side 2 forced transition at x/c =  1.0000   59

   1   rms: 0.2596E-01   max: 0.1042E+00   D at   79  1   RLX: 0.459
       a = 17.500      CL =  1.1831
      Cm =  0.0525     CD =  0.05828   =>   CDf =  0.00606    CDp =  0.05222

 Side 1  free  transition at x/c =  0.1335   59
 Side 2 forced transition at x/c =  1.0000   59

   2   rms: 0.1393E-01   max: 0.5640E-01   D at   80  1
       a = 17.500      CL =  1.1857
      Cm =  0.0523     CD =  0.05954   =>   CDf =  0.00603    CDp =  0.05351

 Side 1  free  transition at x/c =  0.1321   59
 Side 2 forced transition at x/c =  1.0000   59

   3   rms: 0.1169E-02   max: 0.7464E-02   D at   80  1
       a = 17.500      CL =  1.1847
      Cm =  0.0523     CD =  0.05946   =>   CDf =  0.00600    CDp =  0.05346

 Side 1  free  transition at x/c =  0.1322   59
 Side 2 forced transition at x/c =  1.0000   59

   4   rms: 0.2047E-04   max: 0.1523E-03   C at   59  2
       a = 17.500      CL =  1.1847
      Cm =  0.0523     CD =  0.05945   =>   CDf =  0.00600    CDp =  0.05345
 plradd ia,ip,cpol            6           0  1.90443601E-02

 Point added to stored polar  1
 Point written to save file  goe776_Re400k.ext.pol                           
 Dump file unspecified or not available
 Calculating wake trajectory ...
 Calculating source influence matrix ...

 Solving BL system ...

 Side 1  free  transition at x/c =  0.1322   59
 Side 2 forced transition at x/c =  1.0000   59

   1   rms: 0.2628E-01   max: 0.1121E+00   D at   79  1   RLX: 0.447
       a = 17.750      CL =  1.1864
      Cm =  0.0521     CD =  0.06068   =>   CDf =  0.00600    CDp =  0.05467

 Side 1  free  transition at x/c =  0.1311   59
 Side 2 forced transition at x/c =  1.0000   59

   2   rms: 0.1459E-01   max: 0.6364E-01   D at   79  1
       a = 17.750      CL =  1.1876
      Cm =  0.0519     CD =  0.06212   =>   CDf =  0.00599    CDp =  0.05613

 Side 1  free  transition at x/c =  0.1299   59
 Side 2 forced transition at x/c =  1.0000   59

   3   rms: 0.7065E-03   max: -.5286E-02   D at   59  1
       a = 17.750      CL =  1.1871
      Cm =  0.0520     CD =  0.06194   =>   CDf =  0.00599    CDp =  0.05595

 Side 1  free  transition at x/c =  0.1299   59
 Side 2 forced transition at x/c =  1.0000   59

   4   rms: 0.5411E-04   max: -.2138E-03   D at   79  1
       a = 17.750      CL =  1.1871
      Cm =  0.0520     CD =  0.06193   =>   CDf =  0.00598    CDp =  0.05595
 plradd ia,ip,cpol            7           0  1.90443601E-02

 Point added to stored polar  1
 Point written to save file  goe776_Re400k.ext.pol                           
 Dump file unspecified or not available
 Calculating wake trajectory ...
 Calculating source influence matrix ...

 Solving BL system ...

 Side 1  free  transition at x/c =  0.1299   59
 Side 2 forced transition at x/c =  1.0000   59

   1   rms: 0.2586E-01   max: 0.1029E+00   D at   78  1   RLX: 0.435
       a = 18.000      CL =  1.1889
      Cm =  0.0518     CD =  0.06310   =>   CDf =  0.00599    CDp =  0.05711

 Side 1  free  transition at x/c =  0.1289   59
 Side 2 forced transition at x/c =  1.0000   59

   2   rms: 0.1433E-01   max: 0.5312E-01   D at   78  1
       a = 18.000      CL =  1.1911
      Cm =  0.0517     CD =  0.06439   =>   CDf =  0.00600    CDp =  0.05839

 Side 1  free  transition at x/c =  0.1276   59
 Side 2 forced transition at x/c =  1.0000   59

   3   rms: 0.9767E-03   max: -.6897E-02   D at   80  1
       a = 18.000      CL =  1.1910
      Cm =  0.0519     CD =  0.06412   =>   CDf =  0.00602    CDp =  0.05810

 Side 1  free  transition at x/c =  0.1275   59
 Side 2 forced transition at x/c =  1.0000   59

   4   rms: 0.5273E-04   max: -.2905E-03   D at   75  2
       a = 18.000      CL =  1.1910
      Cm =  0.0519     CD =  0.06413   =>   CDf =  0.00603    CDp =  0.05810
 plradd ia,ip,cpol            8           0  1.90443601E-02

 Point added to stored polar  1
 Point written to save file  goe776_Re400k.ext.pol                           
 Dump file unspecified or not available

.OPERva   c>   Calculating wake trajectory ...
 Calculating source influence matrix ...

 Solving BL system ...

 Side 1  free  transition at x/c =  0.1275   59
 Side 2 forced transition at x/c =  1.0000   59

   1   rms: 0.2486E-01   max: 0.1081E+00   T at   59  1   RLX: 0.427
       a = 18.250      CL =  1.1944
      Cm =  0.0519     CD =  0.06493   =>   CDf =  0.00604    CDp =  0.05889

 Side 1  free  transition at x/c =  0.1265   58
 Side 2 forced transition at x/c =  1.0000   59

   2   rms: 0.1768E-01   max: -.9500E-01   C at   58  1
       a = 18.250      CL =  1.1937
      Cm =  0.0512     CD =  0.06709   =>   CDf =  0.00604    CDp =  0.06105

 Side 1  free  transition at x/c =  0.1254   58
 Side 2 forced transition at x/c =  1.0000   59

   3   rms: 0.9757E-03   max: 0.8145E-02   D at   79  1
       a = 18.250      CL =  1.1929
      Cm =  0.0513     CD =  0.06680   =>   CDf =  0.00594    CDp =  0.06086

 Side 1  free  transition at x/c =  0.1254   58
 Side 2 forced transition at x/c =  1.0000   59

   4   rms: 0.1484E-04   max: 0.3397E-03   D at   73  2
       a = 18.250      CL =  1.1929
      Cm =  0.0513     CD =  0.06680   =>   CDf =  0.00594    CDp =  0.06086
 plradd ia,ip,cpol            9           0  1.90443601E-02

 Point added to stored polar  1
 Point written to save file  goe776_Re400k.ext.pol                           
 Dump file unspecified or not available
 Calculating wake trajectory ...
 Calculating source influence matrix ...

 Solving BL system ...

 Side 1  free  transition at x/c =  0.1254   58
 Side 2 forced transition at x/c =  1.0000   59

   1   rms: 0.5169E-01   max: 0.2280E+00   D at   78  1   RLX: 0.405
       a = 18.750      CL =  1.1954
      Cm =  0.0507     CD =  0.06929   =>   CDf =  0.00576    CDp =  0.06353

 Side 1  free  transition at x/c =  0.1235   59
 Side 2 forced transition at x/c =  1.0000   58

   2   rms: 0.3056E-01   max: 0.1283E+00   D at   79  1
       a = 18.750      CL =  1.1994
      Cm =  0.0500     CD =  0.07249   =>   CDf =  0.00588    CDp =  0.06661

 Side 1  free  transition at x/c =  0.1207   59
 Side 2 forced transition at x/c =  1.0000   58

   3   rms: 0.4722E-02   max: -.3379E-01   D at   59  1
       a = 18.750      CL =  1.1955
      Cm =  0.0500     CD =  0.07240   =>   CDf =  0.00584    CDp =  0.06657

 Side 1  free  transition at x/c =  0.1210   59
 Side 2 forced transition at x/c =  1.0000   58

   4   rms: 0.3894E-03   max: -.3386E-02   D at   79  1
       a = 18.750      CL =  1.1957
      Cm =  0.0501     CD =  0.07229   =>   CDf =  0.00582    CDp =  0.06647

 Side 1  free  transition at x/c =  0.1210   59
 Side 2 forced transition at x/c =  1.0000   58

   5   rms: 0.3360E-04   max: -.1586E-03   D at   72  2
       a = 18.750      CL =  1.1957
      Cm =  0.0501     CD =  0.07230   =>   CDf =  0.00582    CDp =  0.06648
 plradd ia,ip,cpol           10           0  1.90443601E-02

 Point added to stored polar  1
 Point written to save file  goe776_Re400k.ext.pol                           
 Dump file unspecified or not available
 Calculating wake trajectory ...
 Calculating source influence matrix ...

 Solving BL system ...

 Side 1  free  transition at x/c =  0.1210   59
 Side 2 forced transition at x/c =  1.0000   58

   1   rms: 0.4991E-01   max: 0.2112E+00   D at   77  1   RLX: 0.386
       a = 19.250      CL =  1.1980
      Cm =  0.0495     CD =  0.07465   =>   CDf =  0.00583    CDp =  0.06882

 Side 1  free  transition at x/c =  0.1193   59
 Side 2 forced transition at x/c =  1.0000   58

   2   rms: 0.2953E-01   max: 0.1073E+00   D at   77  1
       a = 19.250      CL =  1.2033
      Cm =  0.0489     CD =  0.07765   =>   CDf =  0.00583    CDp =  0.07182

 Side 1  free  transition at x/c =  0.1171   58
 Side 2 forced transition at x/c =  1.0000   58

   3   rms: 0.3465E-02   max: -.2892E-01   C at   58  1
       a = 19.250      CL =  1.2011
      Cm =  0.0491     CD =  0.07733   =>   CDf =  0.00585    CDp =  0.07147

 Side 1  free  transition at x/c =  0.1168   58
 Side 2 forced transition at x/c =  1.0000   58

   4   rms: 0.4229E-03   max: -.2812E-02   D at   78  1
       a = 19.250      CL =  1.2014
      Cm =  0.0491     CD =  0.07726   =>   CDf =  0.00584    CDp =  0.07142

 Side 1  free  transition at x/c =  0.1168   58
 Side 2 forced transition at x/c =  1.0000   58

   5   rms: 0.3031E-04   max: -.1653E-03   D at   73  2
       a = 19.250      CL =  1.2014
      Cm =  0.0491     CD =  0.07727   =>   CDf =  0.00584    CDp =  0.07143
 plradd ia,ip,cpol           11           0  1.90443601E-02

 Point added to stored polar  1
 Point written to save file  goe776_Re400k.ext.pol                           
 Dump file unspecified or not available
 Calculating wake trajectory ...
 Calculating source influence matrix ...

 Solving BL system ...

 Side 1  free  transition at x/c =  0.1168   58
 Side 2 forced transition at x/c =  1.0000   58

   1   rms: 0.5447E-01   max: 0.2769E+00   D at   77  1   RLX: 0.367
       a = 19.750      CL =  1.2005
      Cm =  0.0482     CD =  0.08017   =>   CDf =  0.00585    CDp =  0.07432

 Side 1  free  transition at x/c =  0.1153   58
 Side 2 forced transition at x/c =  1.0000   58

   2   rms: 0.3105E-01   max: 0.1454E+00   D at   77  1
       a = 19.750      CL =  1.2028
      Cm =  0.0471     CD =  0.08402   =>   CDf =  0.00556    CDp =  0.07846

 Side 1  free  transition at x/c =  0.1125   59
 Side 2 forced transition at x/c =  1.0000   57
 idif Ue xi dudx           1  6.04375266E-02  5.94508648E-03   10.165962    
 Uenew xinew           2  7.27126258E-04  7.15255737E-05

   3   rms: 0.6925E-02   max: -.9301E-01   T at    2  1
       a = 19.750      CL =  1.1992
      Cm =  0.0472     CD =  0.08369   =>   CDf =  0.00587    CDp =  0.07782

 Side 1  free  transition at x/c =  0.1127   58
 Side 2 forced transition at x/c =  1.0000   58

   4   rms: 0.7057E-03   max: 0.7557E-02   D at    2  2
       a = 19.750      CL =  1.1995
      Cm =  0.0472     CD =  0.08358   =>   CDf =  0.00566    CDp =  0.07792

 Side 1  free  transition at x/c =  0.1127   58
 Side 2 forced transition at x/c =  1.0000   58

   5   rms: 0.2548E-03   max: 0.3130E-02   D at    4  2
       a = 19.750      CL =  1.1995
      Cm =  0.0472     CD =  0.08358   =>   CDf =  0.00566    CDp =  0.07792

 Side 1  free  transition at x/c =  0.1127   58
 Side 2 forced transition at x/c =  1.0000   58

   6   rms: 0.1084E-05   max: 0.7603E-05   T at   73  2
       a = 19.750      CL =  1.1995
      Cm =  0.0472     CD =  0.08359   =>   CDf =  0.00566    CDp =  0.07792
 plradd ia,ip,cpol           12           0  1.64366215E-02

 Point added to stored polar  1
 Point written to save file  goe776_Re400k.ext.pol                           
 Dump file unspecified or not available
 Calculating wake trajectory ...
 Calculating source influence matrix ...

 Solving BL system ...

 Side 1  free  transition at x/c =  0.1127   58
 Side 2 forced transition at x/c =  1.0000   58

   1   rms: 0.4981E-01   max: 0.2343E+00   D at   76  1   RLX: 0.352
       a = 20.250      CL =  1.2001
      Cm =  0.0464     CD =  0.08612   =>   CDf =  0.00547    CDp =  0.08064

 Side 1  free  transition at x/c =  0.1112   59
 Side 2 forced transition at x/c =  1.0000   57

   2   rms: 0.3080E-01   max: 0.1251E+00   D at   77  1
       a = 20.250      CL =  1.2037
      Cm =  0.0453     CD =  0.08984   =>   CDf =  0.00565    CDp =  0.08419

 Side 1  free  transition at x/c =  0.1088   59
 Side 2 forced transition at x/c =  1.0000   57

   3   rms: 0.4510E-02   max: -.3684E-01   D at   78  1
       a = 20.250      CL =  1.2051
      Cm =  0.0458     CD =  0.08856   =>   CDf =  0.00568    CDp =  0.08288

 Side 1  free  transition at x/c =  0.1086   59
 Side 2 forced transition at x/c =  1.0000   57

   4   rms: 0.5389E-03   max: -.2443E-02   D at   75  2
       a = 20.250      CL =  1.2056
      Cm =  0.0458     CD =  0.08862   =>   CDf =  0.00570    CDp =  0.08292

 Side 1  free  transition at x/c =  0.1086   59
 Side 2 forced transition at x/c =  1.0000   57

   5   rms: 0.2278E-04   max: -.1562E-03   D at   72  2
       a = 20.250      CL =  1.2056
      Cm =  0.0458     CD =  0.08863   =>   CDf =  0.00570    CDp =  0.08293
 plradd ia,ip,cpol           13           0  1.64366215E-02

 Point added to stored polar  1
 Point written to save file  goe776_Re400k.ext.pol                           
 Dump file unspecified or not available
 Calculating wake trajectory ...
 Calculating source influence matrix ...

 Solving BL system ...

 Side 1  free  transition at x/c =  0.1086   59
 Side 2 forced transition at x/c =  1.0000   57

   1   rms: 0.5002E-01   max: 0.2412E+00   T at   59  1   RLX: 0.344
       a = 20.750      CL =  1.2141
      Cm =  0.0458     CD =  0.08949   =>   CDf =  0.00571    CDp =  0.08378

 Side 1  free  transition at x/c =  0.1073   58
 Side 2 forced transition at x/c =  1.0000   57

   2   rms: 0.4386E-01   max: 0.2613E+00   D at   77  1
       a = 20.750      CL =  1.2016
      Cm =  0.0429     CD =  0.09706   =>   CDf =  0.00571    CDp =  0.09134

 Side 1  free  transition at x/c =  0.1048   58
 Side 2 forced transition at x/c =  1.0000   57

   3   rms: 0.3531E-02   max: 0.3522E-01   D at   76  1
       a = 20.750      CL =  1.2005
      Cm =  0.0434     CD =  0.09549   =>   CDf =  0.00551    CDp =  0.08997

 Side 1  free  transition at x/c =  0.1048   58
 Side 2 forced transition at x/c =  1.0000   57

   4   rms: 0.3783E-03   max: 0.5529E-02   D at   76  1
       a = 20.750      CL =  1.2004
      Cm =  0.0434     CD =  0.09556   =>   CDf =  0.00551    CDp =  0.09004

 Side 1  free  transition at x/c =  0.1048   58
 Side 2 forced transition at x/c =  1.0000   57

   5   rms: 0.3892E-04   max: 0.1738E-03   D at   75  2
       a = 20.750      CL =  1.2004
      Cm =  0.0434     CD =  0.09555   =>   CDf =  0.00551    CDp =  0.09004
 plradd ia,ip,cpol           14           0  1.64366215E-02

 Point added to stored polar  1
 Point written to save file  goe776_Re400k.ext.pol                           
 Dump file unspecified or not available
 Calculating wake trajectory ...
 Calculating source influence matrix ...

 Solving BL system ...

 Side 1  free  transition at x/c =  0.1048   58
 Side 2 forced transition at x/c =  1.0000   57

   1   rms: 0.4952E-01   max: 0.2555E+00   D at   75  1   RLX: 0.323
       a = 21.250      CL =  1.1996
      Cm =  0.0424     CD =  0.09823   =>   CDf =  0.00552    CDp =  0.09271

 Side 1  free  transition at x/c =  0.1035   58
 Side 2 forced transition at x/c =  1.0000   57

   2   rms: 0.3227E-01   max: 0.1572E+00   D at   75  1
       a = 21.250      CL =  1.1997
      Cm =  0.0406     CD =  0.10308   =>   CDf =  0.00549    CDp =  0.09759

 Side 1  free  transition at x/c =  0.1011   58
 Side 2 forced transition at x/c =  1.0000   57

   3   rms: 0.5250E-02   max: -.4288E-01   D at   76  1
       a = 21.250      CL =  1.2008
      Cm =  0.0412     CD =  0.10147   =>   CDf =  0.00526    CDp =  0.09621

 Side 1  free  transition at x/c =  0.1012   59
 Side 2 forced transition at x/c =  1.0000   56

   4   rms: 0.4731E-02   max: 0.8170E-01   T at    2  1
       a = 21.250      CL =  1.2016
      Cm =  0.0411     CD =  0.10147   =>   CDf =  0.00547    CDp =  0.09600

 Side 1  free  transition at x/c =  0.1012   59
 Side 2 forced transition at x/c =  1.0000   56

   5   rms: 0.1510E-03   max: 0.1831E-02   D at    4  1
       a = 21.250      CL =  1.2017
      Cm =  0.0411     CD =  0.10149   =>   CDf =  0.00547    CDp =  0.09602

 Side 1  free  transition at x/c =  0.1012   59
 Side 2 forced transition at x/c =  1.0000   56

   6   rms: 0.4424E-05   max: 0.3622E-04   D at    4  1
       a = 21.250      CL =  1.2017
      Cm =  0.0411     CD =  0.10149   =>   CDf =  0.00547    CDp =  0.09602
 plradd ia,ip,cpol           15           0  1.64366215E-02

 Point added to stored polar  1
 Point written to save file  goe776_Re400k.ext.pol                           
 Dump file unspecified or not available
 Calculating wake trajectory ...
 Calculating source influence matrix ...

 Solving BL system ...

 Side 1  free  transition at x/c =  0.1012   59
 Side 2 forced transition at x/c =  1.0000   56

   1   rms: 0.4518E-01   max: -.1559E+00   D at   60  1   RLX: 0.314
       a = 21.750      CL =  1.2058
      Cm =  0.0406     CD =  0.10309   =>   CDf =  0.00549    CDp =  0.09761

 Side 1  free  transition at x/c =  0.1001   59
 Side 2 forced transition at x/c =  1.0000   56

   2   rms: 0.3616E-01   max: 0.1718E+00   T at   59  1
       a = 21.750      CL =  1.2277
      Cm =  0.0408     CD =  0.10372   =>   CDf =  0.00552    CDp =  0.09820

 Side 1  free  transition at x/c =  0.0977   58
 Side 2 forced transition at x/c =  1.0000   56

   3   rms: 0.3442E-01   max: 0.1937E+00   D at   76  1
       a = 21.750      CL =  1.2030
      Cm =  0.0384     CD =  0.10865   =>   CDf =  0.00551    CDp =  0.10315

 Side 1  free  transition at x/c =  0.0977   58
 Side 2 forced transition at x/c =  1.0000   56

   4   rms: 0.3899E-02   max: 0.5955E-01   D at   76  1
       a = 21.750      CL =  1.2006
      Cm =  0.0386     CD =  0.10790   =>   CDf =  0.00538    CDp =  0.10253

 Side 1  free  transition at x/c =  0.0977   58
 Side 2 forced transition at x/c =  1.0000   56

   5   rms: 0.3000E-03   max: -.3155E-02   D at   76  1
       a = 21.750      CL =  1.2008
      Cm =  0.0387     CD =  0.10776   =>   CDf =  0.00537    CDp =  0.10239

 Side 1  free  transition at x/c =  0.0977   58
 Side 2 forced transition at x/c =  1.0000   56

   6   rms: 0.2425E-04   max: -.1206E-03   D at   75  2
       a = 21.750      CL =  1.2008
      Cm =  0.0387     CD =  0.10776   =>   CDf =  0.00537    CDp =  0.10239
 plradd ia,ip,cpol           16           0  1.64366215E-02

 Point added to stored polar  1
 Point written to save file  goe776_Re400k.ext.pol                           
 Dump file unspecified or not available
 Calculating wake trajectory ...
 Calculating source influence matrix ...

 Solving BL system ...

 Side 1  free  transition at x/c =  0.0977   58
 Side 2 forced transition at x/c =  1.0000   56

   1   rms: 0.4926E-01   max: 0.2640E+00   D at   74  1   RLX: 0.299
       a = 22.250      CL =  1.1995
      Cm =  0.0376     CD =  0.11044   =>   CDf =  0.00539    CDp =  0.10505

 Side 1  free  transition at x/c =  0.0966   58
 Side 2 forced transition at x/c =  1.0000   56

   2   rms: 0.3251E-01   max: 0.1627E+00   D at   74  1
       a = 22.250      CL =  1.1996
      Cm =  0.0354     CD =  0.11574   =>   CDf =  0.00533    CDp =  0.11040

 Side 1  free  transition at x/c =  0.0940   58
 Side 2 forced transition at x/c =  1.0000   56

   3   rms: 0.5455E-02   max: -.6105E-01   D at   58  1
       a = 22.250      CL =  1.1964
      Cm =  0.0355     CD =  0.11479   =>   CDf =  0.00528    CDp =  0.10951

 Side 1  free  transition at x/c =  0.0942   58
 Side 2 forced transition at x/c =  1.0000   56

   4   rms: 0.1013E-02   max: -.6185E-02   D at   75  1
       a = 22.250      CL =  1.1972
      Cm =  0.0356     CD =  0.11459   =>   CDf =  0.00526    CDp =  0.10932

 Side 1  free  transition at x/c =  0.0942   58
 Side 2 forced transition at x/c =  1.0000   56

   5   rms: 0.1035E-03   max: -.5290E-03   D at   75  2
       a = 22.250      CL =  1.1973
      Cm =  0.0356     CD =  0.11462   =>   CDf =  0.00527    CDp =  0.10935

 Side 1  free  transition at x/c =  0.0942   58
 Side 2 forced transition at x/c =  1.0000   56

   6   rms: 0.4418E-05   max: -.3212E-04   D at   72  2
       a = 22.250      CL =  1.1973
      Cm =  0.0356     CD =  0.11462   =>   CDf =  0.00527    CDp =  0.10935
 plradd ia,ip,cpol           17           0  1.64366215E-02

 Point added to stored polar  1
 Point written to save file  goe776_Re400k.ext.pol                           
 Dump file unspecified or not available

.OPERva   c>  
 Polar accumulation disabled

.OPERv   c>  
 XFOIL   c>  
 XFOIL   c>  