
 ===================================================
  XFOIL Version 6.99
  Copyright (C) 2000   Mark Drela, Harold Youngren

  This software comes with ABSOLUTELY NO WARRANTY,
    subject to the GNU General Public License.

  Caveat computor
 ===================================================

 File  xfoil.def  not found

   QUIT    Exit program

  .OPER    Direct operating point(s)
  .MDES    Complex mapping design routine
  .QDES    Surface speed design routine
  .GDES    Geometry design routine

   SAVE f  Write airfoil to labeled coordinate file
   PSAV f  Write airfoil to plain coordinate file
   ISAV f  Write airfoil to ISES coordinate file
   MSAV f  Write airfoil to MSES coordinate file
   REVE    Reverse written-airfoil node ordering

   LOAD f  Read buffer airfoil from coordinate file
   NACA i  Set NACA 4,5-digit airfoil and buffer airfoil
   INTE    Set buffer airfoil by interpolating two airfoils
   NORM    Buffer airfoil normalization toggle
   XYCM rr Change CM reference location, currently  0.25000 0.00000

   BEND    Display structural properties of current airfoil

   PCOP    Set current-airfoil panel nodes directly from buffer airfoil points
   PANE    Set current-airfoil panel nodes ( 160 ) based on curvature
  .PPAR    Show/change paneling

  .PLOP    Plotting options

   WDEF f  Write  current-settings file
   RDEF f  Reread current-settings file
   NAME s  Specify new airfoil name
   NINC    Increment name version number

   Z       Zoom    | (available in all menus)
   U       Unzoom  | 

 XFOIL   c>  
 Labeled airfoil file.  Name:  GOE 770 AIRFOIL                                 

 Number of input coordinate points:  31
 Counterclockwise ordering
 Max thickness =     0.209907  at x =   0.302
 Max camber    =     0.033813  at x =   0.302

  LE  x,y  =  -0.00126   0.00888  |   Chord =   1.00129
  TE  x,y  =   1.00000   0.00130  |

 Current airfoil nodes set from buffer airfoil nodes (  31 )

 WARNING: Poor input coordinate distribution
          Excessive panel angle   51.9  at i =  16
          Repaneling with PANE and/or PPAR suggested
           (doing GDES,CADD before repaneling _may_
            improve excessively coarse LE spacing

 XFOIL   c>  
 XFOIL   c>  
 Blunt trailing edge.  Gap =  0.00260

 Paneling parameters used...
   Number of panel nodes       160
   Panel bunching parameter    1.000
   TE/LE panel density ratio   0.150
   Refined-area/LE panel density ratio    0.200
   Top    side refined area x/c limits  1.000 1.000
   Bottom side refined area x/c limits  1.000 1.000

 XFOIL   c>  
.OPERi   c>  
 Xtr/c     =  1.0000    top    side
 Xtr/c     =  1.0000    bottom side
 Ncrit     =    9.00   ( 0.070 % turb. level )
 Vacc      =  0.0100

 Klag  =  5.6000     Uxwt  =    1.00
 A     =  6.7000     B     =  0.7500       KCt = 0.01485
 CtiniK=  1.8000     CtiniX=  3.3000

..VPAR   c>  
..VPAR   c>  
.OPERi   c>  
 M  =    0.0000
 Re =    200000

.OPERv   c>  
.OPERv   c>  
.OPERv   c>  
 Polar  1 newly created for accumulation
 Airfoil archived with polar: GOE 770 AIRFOIL                                 

Enter  polar save filename  OR  <return> for no file   s>  
 New polar save file available

Enter  polar dump filename  OR  <return> for no file   s>  
 Polar dump file will NOT be written

 Polar accumulation enabled

.OPERva   c>   Calculating unit vorticity distributions ...
 Calculating wake trajectory ...
 Calculating source influence matrix ...

 Solving BL system ...

 Initializing BL ...
    side            1  ...
 MRCHUE: Inverse mode at  47     Hk =   3.878
 MRCHUE: Inverse mode at  48     Hk =   4.503
 MRCHUE: Inverse mode at  49     Hk =   5.121
 MRCHUE: Inverse mode at  50     Hk =   5.738
 MRCHUE: Inverse mode at  51     Hk =   6.358
 MRCHUE: Inverse mode at  52     Hk =   6.983
 MRCHUE: Inverse mode at  53     Hk =   7.613
 MRCHUE: Inverse mode at  54     Hk =   8.248
 MRCHUE: Inverse mode at  55     Hk =   8.886
 MRCHUE: Inverse mode at  56     Hk =   9.524
 MRCHUE: Inverse mode at  57     Hk =   7.533
 MRCHUE: Inverse mode at  58     Hk =   5.454
 MRCHUE: Inverse mode at  59     Hk =   4.106
 MRCHUE: Inverse mode at  60     Hk =   3.113
 MRCHUE: Inverse mode at  76     Hk =   2.500
    side            2  ...
 MRCHUE: Inverse mode at  36     Hk =   4.089
 MRCHUE: Inverse mode at  37     Hk =   4.675
 MRCHUE: Inverse mode at  38     Hk =   5.283
 MRCHUE: Inverse mode at  39     Hk =   5.917
 MRCHUE: Inverse mode at  40     Hk =   6.576
 MRCHUE: Inverse mode at  41     Hk =   7.256
 MRCHUE: Inverse mode at  42     Hk =   7.951
 MRCHUE: Inverse mode at  43     Hk =   8.656
 MRCHUE: Inverse mode at  44     Hk =   9.368
 MRCHUE: Inverse mode at  45     Hk =   7.669
 MRCHUE: Inverse mode at  46     Hk =   5.095
 MRCHUE: Inverse mode at  47     Hk =   3.485
 MRCHUE: Inverse mode at  48     Hk =   2.500
 MRCHUE: Inverse mode at  85     Hk =   2.500
 MRCHUE: Inverse mode at  86     Hk =   2.500

 Side 1  free  transition at x/c =  0.6212   57
 Side 2  free  transition at x/c =  0.1823   45

   1   rms: 0.3976E+00   max: -.3665E+01   T at   45  2   RLX: 0.136
       a = -4.000      CL = -0.0286
      Cm = -0.0566     CD =  0.01465   =>   CDf =  0.00889    CDp =  0.00577

 Side 1  free  transition at x/c =  0.6181   58
 Side 2  free  transition at x/c =  0.1975   45

   2   rms: 0.3354E+00   max: -.3567E+01   T at   45  2   RLX: 0.140
       a = -4.000      CL = -0.0052
      Cm = -0.0614     CD =  0.01411   =>   CDf =  0.00880    CDp =  0.00531

 Side 1  free  transition at x/c =  0.6159   58
 Side 2  free  transition at x/c =  0.2150   46

   3   rms: 0.3044E+00   max: -.3423E+01   T at   46  2   RLX: 0.146
       a = -4.000      CL = -0.0040
      Cm = -0.0622     CD =  0.01378   =>   CDf =  0.00869    CDp =  0.00509

 Side 1  free  transition at x/c =  0.6143   58
 Side 2  free  transition at x/c =  0.2375   47

   4   rms: 0.3049E+00   max: -.3062E+01   T at   47  2   RLX: 0.163
       a = -4.000      CL = -0.0173
      Cm = -0.0602     CD =  0.01363   =>   CDf =  0.00860    CDp =  0.00503

 Side 1  free  transition at x/c =  0.6130   57
 Side 2  free  transition at x/c =  0.2742   49

   5   rms: 0.2576E+00   max: -.2922E+01   T at   49  2   RLX: 0.171
       a = -4.000      CL = -0.0315
      Cm = -0.0574     CD =  0.01401   =>   CDf =  0.00854    CDp =  0.00547

 Side 1  free  transition at x/c =  0.6097   57
 Side 2  free  transition at x/c =  0.3157   51

   6   rms: 0.2028E+00   max: -.2251E+01   T at   51  2   RLX: 0.222
       a = -4.000      CL = -0.0444
      Cm = -0.0552     CD =  0.01428   =>   CDf =  0.00829    CDp =  0.00600

 Side 1  free  transition at x/c =  0.6062   57
 Side 2  free  transition at x/c =  0.3659   54

   7   rms: 0.3361E+00   max: -.5753E+01   C at   54  2   RLX: 0.087
       a = -4.000      CL = -0.0547
      Cm = -0.0534     CD =  0.01405   =>   CDf =  0.00795    CDp =  0.00610

 Side 1  free  transition at x/c =  0.6054   57
 Side 2  free  transition at x/c =  0.3737   54

   8   rms: 0.1192E+00   max: -.1267E+01   T at   54  2   RLX: 0.394
       a = -4.000      CL = -0.0743
      Cm = -0.0501     CD =  0.01457   =>   CDf =  0.00801    CDp =  0.00656

 Side 1  free  transition at x/c =  0.6015   57
 Side 2  free  transition at x/c =  0.4329   57

   9   rms: 0.6799E-01   max: -.6374E+00   T at   57  2   RLX: 0.784
       a = -4.000      CL = -0.1037
      Cm = -0.0449     CD =  0.01533   =>   CDf =  0.00769    CDp =  0.00765

 MRCHDU: Convergence failed at  59  side 2    Res =  0.4099E+01
 MRCHDU: Convergence failed at  60  side 2    Res =  0.1098E+01
 MRCHDU: Convergence failed at  61  side 2    Res =  0.1670E+01
 MRCHDU: Convergence failed at  62  side 2    Res =  0.2431E+01
 MRCHDU: Convergence failed at  63  side 2    Res =  0.3082E+01
 MRCHDU: Convergence failed at  64  side 2    Res =  0.3697E+01
 MRCHDU: Convergence failed at  65  side 2    Res =  0.4038E+01
 MRCHDU: Convergence failed at  66  side 2    Res =  0.4170E+01
 MRCHDU: Convergence failed at  67  side 2    Res =  0.4178E+01
 MRCHDU: Convergence failed at  68  side 2    Res =  0.4117E+01
 MRCHDU: Convergence failed at  69  side 2    Res =  0.4025E+01
 MRCHDU: Convergence failed at  70  side 2    Res =  0.3933E+01
 MRCHDU: Convergence failed at  71  side 2    Res =  0.3841E+01
 MRCHDU: Convergence failed at  72  side 2    Res =  0.3757E+01
 MRCHDU: Convergence failed at  73  side 2    Res =  0.3670E+01
 MRCHDU: Convergence failed at  74  side 2    Res =  0.3588E+01
 MRCHDU: Convergence failed at  75  side 2    Res =  0.3285E+01
 MRCHDU: Convergence failed at  76  side 2    Res =  0.3667E+01
 MRCHDU: Convergence failed at  77  side 2    Res =  0.4121E+01
 MRCHDU: Convergence failed at  78  side 2    Res =  0.4692E+01
 MRCHDU: Convergence failed at  79  side 2    Res =  0.5368E+01
 MRCHDU: Convergence failed at  80  side 2    Res =  0.6301E+01
 MRCHDU: Convergence failed at  81  side 2    Res =  0.7919E+01
 MRCHDU: Convergence failed at  82  side 2    Res =  0.1124E+02
 MRCHDU: Convergence failed at  83  side 2    Res =  0.2170E+02
 MRCHDU: Convergence failed at  84  side 2    Res =  0.3952E+03
 MRCHDU: Convergence failed at  85  side 2    Res =  0.1751E+02
 Side 1  free  transition at x/c =  0.5970   57
 Side 2  free  transition at x/c =  0.9953   85
 idif Ue xi dudx           1  0.12915388      4.73880768E-03   27.254509    
 Uenew xinew           2  4.76594456E-02  1.74868107E-03

  10   rms: 0.1760E+01   max: -.1163E+02   D at   85  2   RLX: 0.043
       a = -4.000      CL = -0.4563
      Cm =  0.1125     CD =  0.01039   =>   CDf =  0.00672    CDp =  0.00368

 MRCHDU: Convergence failed at  86  side 2    Res =  0.4426E-03
 Side 1  free  transition at x/c =  0.5993   56
 Side 2 forced transition at x/c =  1.0000   86

  11   rms: 0.3131E+00   max: -.3819E+00   U at   86  2   RLX: 0.747
       a = -4.000      CL = -0.1800
      Cm = -0.0096     CD =  0.01072   =>   CDf =  0.00682    CDp =  0.00390

 Side 1  free  transition at x/c =  0.5965   56
 Side 2  free  transition at x/c =  0.5707   65

  12   rms: 0.8709E-01   max: -.5505E+00   D at   67  2   RLX: 0.908
       a = -4.000      CL = -0.1414
      Cm = -0.0353     CD =  0.01480   =>   CDf =  0.00738    CDp =  0.00743

 Side 1  free  transition at x/c =  0.5963   56
 Side 2  free  transition at x/c =  0.5049   62

  13   rms: 0.3146E-01   max: 0.4116E+00   D at   64  2
       a = -4.000      CL = -0.1194
      Cm = -0.0412     CD =  0.01613   =>   CDf =  0.00739    CDp =  0.00874

 Side 1  free  transition at x/c =  0.5959   56
 Side 2  free  transition at x/c =  0.5056   62

  14   rms: 0.2410E-01   max: -.4373E+00   D at    2  2
       a = -4.000      CL = -0.1203
      Cm = -0.0411     CD =  0.01600   =>   CDf =  0.00736    CDp =  0.00864

 Side 1  free  transition at x/c =  0.5959   56
 Side 2  free  transition at x/c =  0.5049   62

  15   rms: 0.1450E-02   max: -.2193E-01   D at    4  2
       a = -4.000      CL = -0.1203
      Cm = -0.0411     CD =  0.01600   =>   CDf =  0.00735    CDp =  0.00864

 Side 1  free  transition at x/c =  0.5959   56
 Side 2  free  transition at x/c =  0.5049   62

  16   rms: 0.4695E-04   max: 0.5260E-03   D at    4  2
       a = -4.000      CL = -0.1203
      Cm = -0.0411     CD =  0.01600   =>   CDf =  0.00735    CDp =  0.00864
 plradd ia,ip,cpol            1           0  1.65941287E-02

 Point added to stored polar  1
 Point written to save file  goe770_Re200k.base.pol                          
 Dump file unspecified or not available
 Calculating wake trajectory ...
 Calculating source influence matrix ...

 Solving BL system ...

 Side 1  free  transition at x/c =  0.5959   56
 Side 2  free  transition at x/c =  0.5049   62

   1   rms: 0.8015E-01   max: -.3601E+00   T at   62  2
       a = -3.500      CL = -0.0668
      Cm = -0.0402     CD =  0.01628   =>   CDf =  0.00738    CDp =  0.00890

 Side 1  free  transition at x/c =  0.5899   56
 Side 2  free  transition at x/c =  0.5496   63

   2   rms: 0.1769E-01   max: 0.2174E+00   D at   63  2
       a = -3.500      CL = -0.0676
      Cm = -0.0402     CD =  0.01627   =>   CDf =  0.00731    CDp =  0.00896

 Side 1  free  transition at x/c =  0.5880   56
 Side 2  free  transition at x/c =  0.5496   63

   3   rms: 0.2813E-02   max: 0.2305E-01   C at   63  2
       a = -3.500      CL = -0.0675
      Cm = -0.0401     CD =  0.01630   =>   CDf =  0.00735    CDp =  0.00895

 Side 1  free  transition at x/c =  0.5879   56
 Side 2  free  transition at x/c =  0.5486   63

   4   rms: 0.4574E-04   max: -.6070E-03   D at   66  2
       a = -3.500      CL = -0.0675
      Cm = -0.0401     CD =  0.01630   =>   CDf =  0.00736    CDp =  0.00894
 plradd ia,ip,cpol            2           0  1.94784738E-02

 Point added to stored polar  1
 Point written to save file  goe770_Re200k.base.pol                          
 Dump file unspecified or not available
 Calculating wake trajectory ...
 Calculating source influence matrix ...

 Solving BL system ...

 Side 1  free  transition at x/c =  0.5879   56
 Side 2  free  transition at x/c =  0.5486   63

   1   rms: 0.7781E-01   max: -.4426E+00   T at   63  2
       a = -3.000      CL = -0.0153
      Cm = -0.0391     CD =  0.01657   =>   CDf =  0.00737    CDp =  0.00920

 Side 1  free  transition at x/c =  0.5779   57
 Side 2  free  transition at x/c =  0.5789   63

   2   rms: 0.1513E-01   max: -.1258E+00   D at   58  1
       a = -3.000      CL = -0.0141
      Cm = -0.0393     CD =  0.01647   =>   CDf =  0.00737    CDp =  0.00911

 Side 1  free  transition at x/c =  0.5791   57
 Side 2  free  transition at x/c =  0.5819   64

   3   rms: 0.1751E-02   max: -.2990E-01   D at   63  2
       a = -3.000      CL = -0.0140
      Cm = -0.0393     CD =  0.01648   =>   CDf =  0.00744    CDp =  0.00904

 Side 1  free  transition at x/c =  0.5790   57
 Side 2  free  transition at x/c =  0.5817   64

   4   rms: 0.9156E-04   max: 0.1255E-02   D at   64  2
       a = -3.000      CL = -0.0140
      Cm = -0.0393     CD =  0.01648   =>   CDf =  0.00742    CDp =  0.00906
 plradd ia,ip,cpol            3           0  1.94784738E-02

 Point added to stored polar  1
 Point written to save file  goe770_Re200k.base.pol                          
 Dump file unspecified or not available
 Calculating wake trajectory ...
 Calculating source influence matrix ...

 Solving BL system ...

 Side 1  free  transition at x/c =  0.5790   57
 Side 2  free  transition at x/c =  0.5817   64

   1   rms: 0.8226E-01   max: -.4551E+00   T at   64  2
       a = -2.500      CL =  0.0416
      Cm = -0.0385     CD =  0.01633   =>   CDf =  0.00742    CDp =  0.00891

 Side 1  free  transition at x/c =  0.5713   58
 Side 2  free  transition at x/c =  0.6024   63

   2   rms: 0.4187E-01   max: -.4112E+00   D at   64  2
       a = -2.500      CL =  0.0402
      Cm = -0.0385     CD =  0.01700   =>   CDf =  0.00769    CDp =  0.00931

 Side 1  free  transition at x/c =  0.5717   58
 Side 2  free  transition at x/c =  0.6153   64

   3   rms: 0.2492E-01   max: 0.3570E+00   D at   64  2
       a = -2.500      CL =  0.0414
      Cm = -0.0387     CD =  0.01660   =>   CDf =  0.00740    CDp =  0.00920

 Side 1  free  transition at x/c =  0.5717   58
 Side 2  free  transition at x/c =  0.6110   64

   4   rms: 0.4720E-02   max: 0.4435E-01   D at   64  2
       a = -2.500      CL =  0.0414
      Cm = -0.0386     CD =  0.01667   =>   CDf =  0.00747    CDp =  0.00920

 Side 1  free  transition at x/c =  0.5717   58
 Side 2  free  transition at x/c =  0.6092   64

   5   rms: 0.2414E-03   max: -.3959E-02   D at   66  2
       a = -2.500      CL =  0.0414
      Cm = -0.0386     CD =  0.01668   =>   CDf =  0.00751    CDp =  0.00917

 Side 1  free  transition at x/c =  0.5717   58
 Side 2  free  transition at x/c =  0.6092   64

   6   rms: 0.1371E-05   max: -.1156E-04   D at   66  2
       a = -2.500      CL =  0.0414
      Cm = -0.0386     CD =  0.01668   =>   CDf =  0.00751    CDp =  0.00917
 plradd ia,ip,cpol            4           0  0.23992318    

 Point added to stored polar  1
 Point written to save file  goe770_Re200k.base.pol                          
 Dump file unspecified or not available
 Calculating wake trajectory ...
 Calculating source influence matrix ...

 Solving BL system ...

 Side 1  free  transition at x/c =  0.5717   58
 Side 2  free  transition at x/c =  0.6092   64

   1   rms: 0.7863E-01   max: -.4266E+00   T at   64  2
       a = -2.000      CL =  0.0971
      Cm = -0.0380     CD =  0.01723   =>   CDf =  0.00751    CDp =  0.00973

 Side 1  free  transition at x/c =  0.5657   58
 Side 2  free  transition at x/c =  0.6264   64

   2   rms: 0.5053E-01   max: -.3523E+00   T at   64  2
       a = -2.000      CL =  0.0937
      Cm = -0.0380     CD =  0.01650   =>   CDf =  0.00768    CDp =  0.00883

 Side 1  free  transition at x/c =  0.5632   58
 Side 2  free  transition at x/c =  0.6354   64

   3   rms: 0.7380E-02   max: -.8476E-01   D at   66  2
       a = -2.000      CL =  0.0950
      Cm = -0.0379     CD =  0.01684   =>   CDf =  0.00741    CDp =  0.00943

 Side 1  free  transition at x/c =  0.5630   58
 Side 2  free  transition at x/c =  0.6320   64

   4   rms: 0.1156E-02   max: -.1503E-01   D at   64  2
       a = -2.000      CL =  0.0950
      Cm = -0.0379     CD =  0.01684   =>   CDf =  0.00744    CDp =  0.00940

 Side 1  free  transition at x/c =  0.5630   58
 Side 2  free  transition at x/c =  0.6322   64

   5   rms: 0.5321E-05   max: -.5622E-04   D at   66  2
       a = -2.000      CL =  0.0950
      Cm = -0.0379     CD =  0.01684   =>   CDf =  0.00744    CDp =  0.00941
 plradd ia,ip,cpol            5           0  0.22602753    

 Point added to stored polar  1
 Point written to save file  goe770_Re200k.base.pol                          
 Dump file unspecified or not available
 Calculating wake trajectory ...
 Calculating source influence matrix ...

 Solving BL system ...

 Side 1  free  transition at x/c =  0.5630   58
 Side 2  free  transition at x/c =  0.6322   64

   1   rms: 0.7462E-01   max: -.4042E+00   T at   64  2
       a = -1.500      CL =  0.1493
      Cm = -0.0372     CD =  0.01695   =>   CDf =  0.00744    CDp =  0.00951

 Side 1  free  transition at x/c =  0.5532   58
 Side 2  free  transition at x/c =  0.6475   64

   2   rms: 0.3836E-01   max: -.3387E+00   D at   65  2
       a = -1.500      CL =  0.1499
      Cm = -0.0375     CD =  0.01709   =>   CDf =  0.00765    CDp =  0.00945

 Side 1  free  transition at x/c =  0.5546   58
 Side 2  free  transition at x/c =  0.6570   65

   3   rms: 0.1831E-01   max: 0.3086E+00   D at   65  2
       a = -1.500      CL =  0.1505
      Cm = -0.0375     CD =  0.01685   =>   CDf =  0.00747    CDp =  0.00938

 Side 1  free  transition at x/c =  0.5546   58
 Side 2  free  transition at x/c =  0.6537   65

   4   rms: 0.2246E-02   max: 0.3044E-01   D at   65  2
       a = -1.500      CL =  0.1505
      Cm = -0.0375     CD =  0.01687   =>   CDf =  0.00750    CDp =  0.00937

 Side 1  free  transition at x/c =  0.5546   58
 Side 2  free  transition at x/c =  0.6531   65

   5   rms: 0.3603E-04   max: -.6309E-03   D at   67  2
       a = -1.500      CL =  0.1505
      Cm = -0.0375     CD =  0.01687   =>   CDf =  0.00751    CDp =  0.00936
 plradd ia,ip,cpol            6           0  0.22602753    

 Point added to stored polar  1
 Point written to save file  goe770_Re200k.base.pol                          
 Dump file unspecified or not available
 Calculating wake trajectory ...
 Calculating source influence matrix ...

 Solving BL system ...

 Side 1  free  transition at x/c =  0.5546   58
 Side 2  free  transition at x/c =  0.6531   65

   1   rms: 0.7656E-01   max: -.4220E+00   T at   65  2
       a = -1.000      CL =  0.2072
      Cm = -0.0369     CD =  0.01686   =>   CDf =  0.00749    CDp =  0.00937

 Side 1  free  transition at x/c =  0.5485   58
 Side 2  free  transition at x/c =  0.6690   64

   2   rms: 0.3412E-01   max: -.3259E+00   D at   64  2
       a = -1.000      CL =  0.2051
      Cm = -0.0371     CD =  0.01721   =>   CDf =  0.00771    CDp =  0.00950

 Side 1  free  transition at x/c =  0.5469   58
 Side 2  free  transition at x/c =  0.6767   65

   3   rms: 0.1253E-01   max: 0.2244E+00   D at   65  2
       a = -1.000      CL =  0.2055
      Cm = -0.0371     CD =  0.01706   =>   CDf =  0.00756    CDp =  0.00950

 Side 1  free  transition at x/c =  0.5468   58
 Side 2  free  transition at x/c =  0.6742   65

   4   rms: 0.1099E-02   max: 0.1577E-01   D at   65  2
       a = -1.000      CL =  0.2056
      Cm = -0.0370     CD =  0.01706   =>   CDf =  0.00757    CDp =  0.00949

 Side 1  free  transition at x/c =  0.5468   58
 Side 2  free  transition at x/c =  0.6739   65

   5   rms: 0.1007E-04   max: 0.1492E-03   D at   65  2
       a = -1.000      CL =  0.2056
      Cm = -0.0370     CD =  0.01706   =>   CDf =  0.00757    CDp =  0.00949
 plradd ia,ip,cpol            7           0  0.22602753    

 Point added to stored polar  1
 Point written to save file  goe770_Re200k.base.pol                          
 Dump file unspecified or not available
 Calculating wake trajectory ...
 Calculating source influence matrix ...

 Solving BL system ...

 Side 1  free  transition at x/c =  0.5468   58
 Side 2  free  transition at x/c =  0.6739   65

   1   rms: 0.7369E-01   max: -.3711E+00   T at   65  2
       a = -0.500      CL =  0.2583
      Cm = -0.0363     CD =  0.01705   =>   CDf =  0.00754    CDp =  0.00951

 Side 1  free  transition at x/c =  0.5361   59
 Side 2  free  transition at x/c =  0.6852   64

   2   rms: 0.3648E-01   max: -.3207E+00   D at   64  2
       a = -0.500      CL =  0.2601
      Cm = -0.0368     CD =  0.01713   =>   CDf =  0.00755    CDp =  0.00958

 Side 1  free  transition at x/c =  0.5377   59
 Side 2  free  transition at x/c =  0.6918   64

   3   rms: 0.4765E-02   max: 0.7540E-01   D at   65  2
       a = -0.500      CL =  0.2601
      Cm = -0.0367     CD =  0.01711   =>   CDf =  0.00755    CDp =  0.00956

 Side 1  free  transition at x/c =  0.5376   59
 Side 2  free  transition at x/c =  0.6905   64

   4   rms: 0.1166E-03   max: 0.1735E-02   D at   65  2
       a = -0.500      CL =  0.2601
      Cm = -0.0367     CD =  0.01711   =>   CDf =  0.00754    CDp =  0.00956

 Side 1  free  transition at x/c =  0.5376   59
 Side 2  free  transition at x/c =  0.6905   64

   5   rms: 0.7074E-06   max: 0.5699E-05   T at   64  2
       a = -0.500      CL =  0.2601
      Cm = -0.0367     CD =  0.01711   =>   CDf =  0.00754    CDp =  0.00956
 plradd ia,ip,cpol            8           0  0.22602753    

 Point added to stored polar  1
 Point written to save file  goe770_Re200k.base.pol                          
 Dump file unspecified or not available
 Calculating wake trajectory ...
 Calculating source influence matrix ...

 Solving BL system ...

 Side 1  free  transition at x/c =  0.5376   59
 Side 2  free  transition at x/c =  0.6905   64

   1   rms: 0.7136E-01   max: -.2536E+00   T at   64  2
       a =  0.000      CL =  0.3168
      Cm = -0.0369     CD =  0.01711   =>   CDf =  0.00750    CDp =  0.00961

 Side 1  free  transition at x/c =  0.5294   59
 Side 2  free  transition at x/c =  0.7108   64

   2   rms: 0.2832E-01   max: 0.2833E+00   C at   64  2
       a =  0.000      CL =  0.3191
      Cm = -0.0371     CD =  0.01709   =>   CDf =  0.00758    CDp =  0.00951

 Side 1  free  transition at x/c =  0.5313   60
 Side 2  free  transition at x/c =  0.7082   64

   3   rms: 0.1308E-01   max: 0.1325E+00   D at   60  1
       a =  0.000      CL =  0.3181
      Cm = -0.0368     CD =  0.01709   =>   CDf =  0.00765    CDp =  0.00944

 Side 1  free  transition at x/c =  0.5303   60
 Side 2  free  transition at x/c =  0.7062   64

   4   rms: 0.2299E-03   max: -.1993E-02   D at   67  2
       a =  0.000      CL =  0.3180
      Cm = -0.0368     CD =  0.01710   =>   CDf =  0.00767    CDp =  0.00943

 Side 1  free  transition at x/c =  0.5303   60
 Side 2  free  transition at x/c =  0.7062   64

   5   rms: 0.9653E-06   max: 0.6108E-05   T at   64  2
       a =  0.000      CL =  0.3180
      Cm = -0.0368     CD =  0.01710   =>   CDf =  0.00767    CDp =  0.00942
 plradd ia,ip,cpol            9           0  0.22602753    

 Point added to stored polar  1
 Point written to save file  goe770_Re200k.base.pol                          
 Dump file unspecified or not available
 Calculating wake trajectory ...
 Calculating source influence matrix ...

 Solving BL system ...

 Side 1  free  transition at x/c =  0.5303   60
 Side 2  free  transition at x/c =  0.7062   64

   1   rms: 0.7385E-01   max: 0.3328E+00   T at   60  1
       a =  0.500      CL =  0.3762
      Cm = -0.0371     CD =  0.01751   =>   CDf =  0.00763    CDp =  0.00988

 Side 1  free  transition at x/c =  0.5239   60
 Side 2  free  transition at x/c =  0.7197   64

   2   rms: 0.1846E-01   max: 0.2182E+00   D at   61  1
       a =  0.500      CL =  0.3696
      Cm = -0.0363     CD =  0.01726   =>   CDf =  0.00768    CDp =  0.00958

 Side 1  free  transition at x/c =  0.5197   60
 Side 2  free  transition at x/c =  0.7216   64

   3   rms: 0.2288E-02   max: 0.2067E-01   D at   63  1
       a =  0.500      CL =  0.3711
      Cm = -0.0365     CD =  0.01716   =>   CDf =  0.00758    CDp =  0.00958

 Side 1  free  transition at x/c =  0.5201   60
 Side 2  free  transition at x/c =  0.7214   64

   4   rms: 0.2825E-04   max: 0.4244E-03   D at   61  1
       a =  0.500      CL =  0.3711
      Cm = -0.0365     CD =  0.01716   =>   CDf =  0.00758    CDp =  0.00958
 plradd ia,ip,cpol           10           0  0.21255277    

 Point added to stored polar  1
 Point written to save file  goe770_Re200k.base.pol                          
 Dump file unspecified or not available
 Calculating wake trajectory ...
 Calculating source influence matrix ...

 Solving BL system ...

 Side 1  free  transition at x/c =  0.5201   60
 Side 2  free  transition at x/c =  0.7214   64

   1   rms: 0.7150E-01   max: -.2875E+00   T at   64  2
       a =  1.000      CL =  0.4259
      Cm = -0.0361     CD =  0.01708   =>   CDf =  0.00752    CDp =  0.00956

 Side 1  free  transition at x/c =  0.5112   61
 Side 2  free  transition at x/c =  0.7367   63

   2   rms: 0.2200E-01   max: -.2086E+00   D at   64  2
       a =  1.000      CL =  0.4281
      Cm = -0.0366     CD =  0.01714   =>   CDf =  0.00773    CDp =  0.00941

 Side 1  free  transition at x/c =  0.5122   61
 Side 2  free  transition at x/c =  0.7415   64

   3   rms: 0.3583E-02   max: -.6866E-01   D at   63  2
       a =  1.000      CL =  0.4281
      Cm = -0.0365     CD =  0.01712   =>   CDf =  0.00769    CDp =  0.00942

 Side 1  free  transition at x/c =  0.5122   61
 Side 2  free  transition at x/c =  0.7406   64

   4   rms: 0.4274E-03   max: 0.6661E-02   D at   64  2
       a =  1.000      CL =  0.4281
      Cm = -0.0365     CD =  0.01712   =>   CDf =  0.00767    CDp =  0.00944

 Side 1  free  transition at x/c =  0.5122   61
 Side 2  free  transition at x/c =  0.7405   64

   5   rms: 0.2901E-05   max: 0.2678E-04   D at    4  1
       a =  1.000      CL =  0.4281
      Cm = -0.0365     CD =  0.01712   =>   CDf =  0.00767    CDp =  0.00944
 plradd ia,ip,cpol           11           0  0.21255277    

 Point added to stored polar  1
 Point written to save file  goe770_Re200k.base.pol                          
 Dump file unspecified or not available
 Calculating wake trajectory ...
 Calculating source influence matrix ...

 Solving BL system ...

 Side 1  free  transition at x/c =  0.5122   61
 Side 2  free  transition at x/c =  0.7405   64

   1   rms: 0.7543E-01   max: -.2951E+00   T at   64  2
       a =  1.500      CL =  0.4867
      Cm = -0.0366     CD =  0.01702   =>   CDf =  0.00768    CDp =  0.00934

 Side 1  free  transition at x/c =  0.5067   60
 Side 2  free  transition at x/c =  0.7540   64

   2   rms: 0.2536E-01   max: -.2533E+00   D at   65  2
       a =  1.500      CL =  0.4798
      Cm = -0.0360     CD =  0.01736   =>   CDf =  0.00767    CDp =  0.00968

 Side 1  free  transition at x/c =  0.5026   60
 Side 2  free  transition at x/c =  0.7607   64

   3   rms: 0.3178E-02   max: 0.4258E-01   D at   65  2
       a =  1.500      CL =  0.4811
      Cm = -0.0361     CD =  0.01729   =>   CDf =  0.00757    CDp =  0.00972

 Side 1  free  transition at x/c =  0.5029   60
 Side 2  free  transition at x/c =  0.7593   64

   4   rms: 0.2896E-04   max: -.3057E-03   C at   64  2
       a =  1.500      CL =  0.4811
      Cm = -0.0361     CD =  0.01729   =>   CDf =  0.00757    CDp =  0.00972
 plradd ia,ip,cpol           12           0  0.21255277    

 Point added to stored polar  1
 Point written to save file  goe770_Re200k.base.pol                          
 Dump file unspecified or not available
 Calculating wake trajectory ...
 Calculating source influence matrix ...

 Solving BL system ...

 Side 1  free  transition at x/c =  0.5029   60
 Side 2  free  transition at x/c =  0.7593   64

   1   rms: 0.7029E-01   max: -.2411E+00   T at   64  2
       a =  2.000      CL =  0.5342
      Cm = -0.0360     CD =  0.01742   =>   CDf =  0.00749    CDp =  0.00992

 Side 1  free  transition at x/c =  0.4921   61
 Side 2  free  transition at x/c =  0.7877   65

   2   rms: 0.2238E-01   max: -.1572E+00   D at   62  1
       a =  2.000      CL =  0.5363
      Cm = -0.0359     CD =  0.01722   =>   CDf =  0.00759    CDp =  0.00963

 Side 1  free  transition at x/c =  0.4942   61
 Side 2  free  transition at x/c =  0.7839   64

   3   rms: 0.1750E-02   max: 0.2525E-01   D at   65  2
       a =  2.000      CL =  0.5365
      Cm = -0.0359     CD =  0.01723   =>   CDf =  0.00756    CDp =  0.00966

 Side 1  free  transition at x/c =  0.4942   61
 Side 2  free  transition at x/c =  0.7830   64

   4   rms: 0.1919E-04   max: -.2034E-03   D at   65  2
       a =  2.000      CL =  0.5365
      Cm = -0.0359     CD =  0.01723   =>   CDf =  0.00756    CDp =  0.00966
 plradd ia,ip,cpol           13           0  0.21255277    

 Point added to stored polar  1
 Point written to save file  goe770_Re200k.base.pol                          
 Dump file unspecified or not available
 Calculating wake trajectory ...
 Calculating source influence matrix ...

 Solving BL system ...

 Side 1  free  transition at x/c =  0.4942   61
 Side 2  free  transition at x/c =  0.7830   64

   1   rms: 0.7467E-01   max: -.2977E+00   T at   64  2
       a =  2.500      CL =  0.5944
      Cm = -0.0362     CD =  0.01718   =>   CDf =  0.00748    CDp =  0.00970

 Side 1  free  transition at x/c =  0.4880   61
 Side 2  free  transition at x/c =  0.8179   65

   2   rms: 0.1820E-01   max: 0.1949E+00   D at   65  2
       a =  2.500      CL =  0.5871
      Cm = -0.0350     CD =  0.01740   =>   CDf =  0.00746    CDp =  0.00993

 Side 1  free  transition at x/c =  0.4848   61
 Side 2  free  transition at x/c =  0.8132   65

   3   rms: 0.3448E-02   max: 0.3931E-01   C at   65  2
       a =  2.500      CL =  0.5884
      Cm = -0.0351     CD =  0.01737   =>   CDf =  0.00742    CDp =  0.00995

 Side 1  free  transition at x/c =  0.4849   61
 Side 2  free  transition at x/c =  0.8115   65

   4   rms: 0.1043E-03   max: -.1636E-02   D at   67  2
       a =  2.500      CL =  0.5884
      Cm = -0.0351     CD =  0.01737   =>   CDf =  0.00743    CDp =  0.00994

 Side 1  free  transition at x/c =  0.4849   61
 Side 2  free  transition at x/c =  0.8115   65

   5   rms: 0.1010E-05   max: 0.9569E-05   C at   65  2
       a =  2.500      CL =  0.5884
      Cm = -0.0351     CD =  0.01737   =>   CDf =  0.00743    CDp =  0.00994
 plradd ia,ip,cpol           14           0  0.21255277    

 Point added to stored polar  1
 Point written to save file  goe770_Re200k.base.pol                          
 Dump file unspecified or not available
 Calculating wake trajectory ...
 Calculating source influence matrix ...

 Solving BL system ...

 Side 1  free  transition at x/c =  0.4849   61
 Side 2  free  transition at x/c =  0.8115   65

   1   rms: 0.7363E-01   max: -.3234E+00   C at   65  2
       a =  3.000      CL =  0.6371
      Cm = -0.0336     CD =  0.01745   =>   CDf =  0.00735    CDp =  0.01010

 Side 1  free  transition at x/c =  0.4743   62
 Side 2  free  transition at x/c =  0.8430   65

   2   rms: 0.2032E-01   max: -.1421E+00   C at   65  2
       a =  3.000      CL =  0.6402
      Cm = -0.0341     CD =  0.01735   =>   CDf =  0.00742    CDp =  0.00993

 Side 1  free  transition at x/c =  0.4761   62
 Side 2  free  transition at x/c =  0.8513   66

   3   rms: 0.5261E-02   max: -.7053E-01   C at   66  2
       a =  3.000      CL =  0.6405
      Cm = -0.0341     CD =  0.01737   =>   CDf =  0.00737    CDp =  0.01000

 Side 1  free  transition at x/c =  0.4761   62
 Side 2  free  transition at x/c =  0.8518   66

   4   rms: 0.5503E-03   max: -.6204E-02   D at   68  2
       a =  3.000      CL =  0.6406
      Cm = -0.0341     CD =  0.01738   =>   CDf =  0.00734    CDp =  0.01003

 Side 1  free  transition at x/c =  0.4761   62
 Side 2  free  transition at x/c =  0.8515   66

   5   rms: 0.3478E-05   max: -.4830E-04   D at   68  2
       a =  3.000      CL =  0.6406
      Cm = -0.0341     CD =  0.01738   =>   CDf =  0.00735    CDp =  0.01003
 plradd ia,ip,cpol           15           0  0.21255277    

 Point added to stored polar  1
 Point written to save file  goe770_Re200k.base.pol                          
 Dump file unspecified or not available
 Calculating wake trajectory ...
 Calculating source influence matrix ...

 Solving BL system ...

 Side 1  free  transition at x/c =  0.4761   62
 Side 2  free  transition at x/c =  0.8515   66

   1   rms: 0.8411E-01   max: -.4420E+00   C at   66  2
       a =  3.500      CL =  0.6972
      Cm = -0.0333     CD =  0.01724   =>   CDf =  0.00727    CDp =  0.00998

 Side 1  free  transition at x/c =  0.4700   62
 Side 2  free  transition at x/c =  0.8824   66
 idif Ue xi dudx           1  0.10100959      2.50017643E-03   40.400986    
 Uenew xinew           2  2.05168966E-03  5.07831573E-05

   2   rms: 0.2788E-01   max: -.2623E+00   D at   67  2
       a =  3.500      CL =  0.6883
      Cm = -0.0324     CD =  0.01762   =>   CDf =  0.00743    CDp =  0.01019

 Side 1  free  transition at x/c =  0.4678   61
 Side 2  free  transition at x/c =  0.9114   68

   3   rms: 0.1925E-01   max: -.1829E+00   C at   68  2
       a =  3.500      CL =  0.7004
      Cm = -0.0344     CD =  0.01772   =>   CDf =  0.00716    CDp =  0.01056

 Side 1  free  transition at x/c =  0.4674   62
 Side 2  free  transition at x/c =  0.8905   66
 idif Ue xi dudx           1  9.91523787E-02  2.45606899E-03   40.370358    
 Uenew xinew           2  2.69501208E-04  6.67572021E-06

   4   rms: 0.1343E-01   max: -.1008E+00   D at   67  2
       a =  3.500      CL =  0.6909
      Cm = -0.0328     CD =  0.01765   =>   CDf =  0.00734    CDp =  0.01031

 Side 1  free  transition at x/c =  0.4678   61
 Side 2  free  transition at x/c =  0.9069   68

   5   rms: 0.1439E-01   max: 0.1690E+00   C at   68  2
       a =  3.500      CL =  0.6925
      Cm = -0.0330     CD =  0.01765   =>   CDf =  0.00715    CDp =  0.01050

 Side 1  free  transition at x/c =  0.4677   62
 Side 2  free  transition at x/c =  0.9012   67

   6   rms: 0.4558E-02   max: 0.6196E-01   D at    2  1
       a =  3.500      CL =  0.6948
      Cm = -0.0334     CD =  0.01767   =>   CDf =  0.00722    CDp =  0.01045

 Side 1  free  transition at x/c =  0.4677   62
 Side 2  free  transition at x/c =  0.8994   67

   7   rms: 0.2446E-03   max: 0.3046E-02   D at    4  1
       a =  3.500      CL =  0.6949
      Cm = -0.0335     CD =  0.01767   =>   CDf =  0.00722    CDp =  0.01045

 Side 1  free  transition at x/c =  0.4676   62
 Side 2  free  transition at x/c =  0.8994   67

   8   rms: 0.1384E-05   max: 0.1486E-04   D at    4  1
       a =  3.500      CL =  0.6949
      Cm = -0.0335     CD =  0.01767   =>   CDf =  0.00722    CDp =  0.01045
 plradd ia,ip,cpol           16           0  0.19940445    

 Point added to stored polar  1
 Point written to save file  goe770_Re200k.base.pol                          
 Dump file unspecified or not available
 Calculating wake trajectory ...
 Calculating source influence matrix ...

 Solving BL system ...

 Side 1  free  transition at x/c =  0.4676   62
 Side 2  free  transition at x/c =  0.8994   67

   1   rms: 0.8651E-01   max: -.4004E+00   C at   67  2
       a =  4.000      CL =  0.7542
      Cm = -0.0341     CD =  0.01814   =>   CDf =  0.00723    CDp =  0.01091

 Side 1  free  transition at x/c =  0.4563   62
 Side 2  free  transition at x/c =  0.9369   69

   2   rms: 0.2637E-01   max: -.1849E+00   D at   63  1
       a =  4.000      CL =  0.7660
      Cm = -0.0364     CD =  0.01796   =>   CDf =  0.00722    CDp =  0.01074

 Side 1  free  transition at x/c =  0.4584   62
 Side 2  free  transition at x/c =  0.9432   69

   3   rms: 0.2060E-02   max: 0.1124E-01   T at   69  2
       a =  4.000      CL =  0.7685
      Cm = -0.0369     CD =  0.01799   =>   CDf =  0.00720    CDp =  0.01079

 Side 1  free  transition at x/c =  0.4583   62
 Side 2  free  transition at x/c =  0.9416   69

   4   rms: 0.2021E-03   max: -.1752E-02   C at   69  2
       a =  4.000      CL =  0.7685
      Cm = -0.0369     CD =  0.01799   =>   CDf =  0.00720    CDp =  0.01079

 Side 1  free  transition at x/c =  0.4583   62
 Side 2  free  transition at x/c =  0.9417   69

   5   rms: 0.7532E-06   max: -.6499E-05   D at   70  2
       a =  4.000      CL =  0.7685
      Cm = -0.0369     CD =  0.01799   =>   CDf =  0.00720    CDp =  0.01079
 plradd ia,ip,cpol           17           0  0.19940445    

 Point added to stored polar  1
 Point written to save file  goe770_Re200k.base.pol                          
 Dump file unspecified or not available
 Calculating wake trajectory ...
 Calculating source influence matrix ...

 Solving BL system ...

 Side 1  free  transition at x/c =  0.4583   62
 Side 2  free  transition at x/c =  0.9417   69

   1   rms: 0.9107E-01   max: -.2691E+00   T at   69  2
       a =  4.500      CL =  0.8516
      Cm = -0.0422     CD =  0.01821   =>   CDf =  0.00715    CDp =  0.01106

 Side 1  free  transition at x/c =  0.4513   62
 Side 2  free  transition at x/c =  0.9784   70

   2   rms: 0.1271E-01   max: 0.1347E+00   D at   71  2
       a =  4.500      CL =  0.8563
      Cm = -0.0439     CD =  0.01855   =>   CDf =  0.00731    CDp =  0.01123

 Side 1  free  transition at x/c =  0.4490   62
 Side 2  free  transition at x/c =  0.9703   70

   3   rms: 0.2113E-02   max: -.2364E-01   D at   72  2
       a =  4.500      CL =  0.8559
      Cm = -0.0437     CD =  0.01853   =>   CDf =  0.00725    CDp =  0.01129

 Side 1  free  transition at x/c =  0.4492   62
 Side 2  free  transition at x/c =  0.9713   70

   4   rms: 0.2340E-04   max: -.2760E-03   D at   71  2
       a =  4.500      CL =  0.8559
      Cm = -0.0437     CD =  0.01853   =>   CDf =  0.00725    CDp =  0.01129
 plradd ia,ip,cpol           18           0  0.19940445    

 Point added to stored polar  1
 Point written to save file  goe770_Re200k.base.pol                          
 Dump file unspecified or not available
 Calculating wake trajectory ...
 Calculating source influence matrix ...

 Solving BL system ...

 Side 1  free  transition at x/c =  0.4492   62
 Side 2  free  transition at x/c =  0.9713   70

   1   rms: 0.9546E-01   max: 0.2296E+00   D at   72  2
       a =  5.000      CL =  0.9475
      Cm = -0.0520     CD =  0.01920   =>   CDf =  0.00719    CDp =  0.01201

 Side 1  free  transition at x/c =  0.4378   63
 Side 2  free  transition at x/c =  0.9932   71

   2   rms: 0.2033E-01   max: -.1630E+00   D at   64  1
       a =  5.000      CL =  0.9506
      Cm = -0.0522     CD =  0.01888   =>   CDf =  0.00737    CDp =  0.01151

 Side 1  free  transition at x/c =  0.4399   63
 Side 2  free  transition at x/c =  0.9915   70

   3   rms: 0.1378E-02   max: -.1117E-01   D at   63  1
       a =  5.000      CL =  0.9510
      Cm = -0.0523     CD =  0.01891   =>   CDf =  0.00731    CDp =  0.01160

 Side 1  free  transition at x/c =  0.4399   63
 Side 2  free  transition at x/c =  0.9914   70

   4   rms: 0.1189E-04   max: 0.8714E-04   D at   70  2
       a =  5.000      CL =  0.9510
      Cm = -0.0523     CD =  0.01891   =>   CDf =  0.00732    CDp =  0.01159
 plradd ia,ip,cpol           19           0  0.19940445    

 Point added to stored polar  1
 Point written to save file  goe770_Re200k.base.pol                          
 Dump file unspecified or not available
 Calculating wake trajectory ...
 Calculating source influence matrix ...

 Solving BL system ...

 Side 1  free  transition at x/c =  0.4399   63
 Side 2  free  transition at x/c =  0.9914   70

   1   rms: 0.9699E-01   max: 0.4441E+00   C at   70  2
       a =  5.500      CL =  1.0455
      Cm = -0.0606     CD =  0.01921   =>   CDf =  0.00715    CDp =  0.01206

 Side 1  free  transition at x/c =  0.4340   64
 Side 2 forced transition at x/c =  1.0000   69
 idif Ue xi dudx           1  9.85009074E-02  3.03995609E-03   32.402081    
 Uenew xinew           2  6.79822685E-03  2.09808350E-04

   2   rms: 0.7546E-01   max: -.1206E+01   D at    2  1   RLX: 0.415
       a =  5.500      CL =  1.0347
      Cm = -0.0589     CD =  0.01956   =>   CDf =  0.00750    CDp =  0.01207

 Side 1  free  transition at x/c =  0.4334   63
 Side 2 forced transition at x/c =  1.0000   70

   3   rms: 0.1849E-01   max: -.1215E+00   D at   70  2
       a =  5.500      CL =  1.0175
      Cm = -0.0559     CD =  0.01947   =>   CDf =  0.00738    CDp =  0.01210

 Side 1  free  transition at x/c =  0.4325   63
 Side 2 forced transition at x/c =  1.0000   70

   4   rms: 0.8933E-03   max: 0.5095E-02   D at   63  2
       a =  5.500      CL =  1.0178
      Cm = -0.0559     CD =  0.01946   =>   CDf =  0.00735    CDp =  0.01211

 Side 1  free  transition at x/c =  0.4325   63
 Side 2 forced transition at x/c =  1.0000   70

   5   rms: 0.7656E-05   max: 0.4553E-04   D at   63  2
       a =  5.500      CL =  1.0178
      Cm = -0.0559     CD =  0.01946   =>   CDf =  0.00735    CDp =  0.01211
 plradd ia,ip,cpol           20           0  0.19940445    

 Point added to stored polar  1
 Point written to save file  goe770_Re200k.base.pol                          
 Dump file unspecified or not available
 Calculating wake trajectory ...
 Calculating source influence matrix ...

 Solving BL system ...

 Side 1  free  transition at x/c =  0.4325   63
 Side 2 forced transition at x/c =  1.0000   70

   1   rms: 0.7194E-01   max: -.3226E+00   D at   66  2
       a =  6.000      CL =  1.0352
      Cm = -0.0504     CD =  0.02018   =>   CDf =  0.00726    CDp =  0.01292

 Side 1  free  transition at x/c =  0.4246   64
 Side 2 forced transition at x/c =  1.0000   69

   2   rms: 0.2368E-01   max: 0.1828E+00   C at   69  2
       a =  6.000      CL =  1.0442
      Cm = -0.0517     CD =  0.01997   =>   CDf =  0.00741    CDp =  0.01256

 Side 1  free  transition at x/c =  0.4256   64
 Side 2 forced transition at x/c =  1.0000   69

   3   rms: 0.5586E-02   max: 0.4340E-01   C at   69  2
       a =  6.000      CL =  1.0466
      Cm = -0.0520     CD =  0.02000   =>   CDf =  0.00734    CDp =  0.01266

 Side 1  free  transition at x/c =  0.4255   64
 Side 2 forced transition at x/c =  1.0000   69

   4   rms: 0.3775E-03   max: 0.2924E-02   C at   69  2
       a =  6.000      CL =  1.0468
      Cm = -0.0521     CD =  0.02001   =>   CDf =  0.00733    CDp =  0.01268

 Side 1  free  transition at x/c =  0.4255   64
 Side 2 forced transition at x/c =  1.0000   69

   5   rms: 0.1957E-05   max: 0.1545E-04   C at   69  2
       a =  6.000      CL =  1.0468
      Cm = -0.0521     CD =  0.02001   =>   CDf =  0.00733    CDp =  0.01268
 plradd ia,ip,cpol           21           0  0.19940445    

 Point added to stored polar  1
 Point written to save file  goe770_Re200k.base.pol                          
 Dump file unspecified or not available
 Calculating wake trajectory ...
 Calculating source influence matrix ...

 Solving BL system ...

 Side 1  free  transition at x/c =  0.4255   64
 Side 2 forced transition at x/c =  1.0000   69

   1   rms: 0.6461E-01   max: -.2227E+00   C at   69  2
       a =  6.500      CL =  1.0849
      Cm = -0.0495     CD =  0.02046   =>   CDf =  0.00723    CDp =  0.01324

 Side 1  free  transition at x/c =  0.4195   65
 Side 2 forced transition at x/c =  1.0000   68

   2   rms: 0.1456E-01   max: 0.9957E-01   C at   68  2
       a =  6.500      CL =  1.0917
      Cm = -0.0506     CD =  0.02040   =>   CDf =  0.00751    CDp =  0.01289

 Side 1  free  transition at x/c =  0.4200   65
 Side 2 forced transition at x/c =  1.0000   68

   3   rms: 0.7296E-03   max: 0.6319E-02   C at   68  2
       a =  6.500      CL =  1.0919
      Cm = -0.0506     CD =  0.02042   =>   CDf =  0.00748    CDp =  0.01295

 Side 1  free  transition at x/c =  0.4200   65
 Side 2 forced transition at x/c =  1.0000   68

   4   rms: 0.6889E-05   max: 0.7209E-04   C at   68  2
       a =  6.500      CL =  1.0919
      Cm = -0.0506     CD =  0.02042   =>   CDf =  0.00748    CDp =  0.01295
 plradd ia,ip,cpol           22           0  0.18648361    

 Point added to stored polar  1
 Point written to save file  goe770_Re200k.base.pol                          
 Dump file unspecified or not available
 Calculating wake trajectory ...
 Calculating source influence matrix ...

 Solving BL system ...

 Side 1  free  transition at x/c =  0.4200   65
 Side 2 forced transition at x/c =  1.0000   68

   1   rms: 0.6897E-01   max: -.1448E+00   C at   68  2
       a =  7.000      CL =  1.1435
      Cm = -0.0504     CD =  0.02102   =>   CDf =  0.00748    CDp =  0.01353

 Side 1  free  transition at x/c =  0.4155   64
 Side 2 forced transition at x/c =  1.0000   68

   2   rms: 0.2266E-01   max: 0.1710E+00   D at   65  1
       a =  7.000      CL =  1.1200
      Cm = -0.0467     CD =  0.02145   =>   CDf =  0.00742    CDp =  0.01403

 Side 1  free  transition at x/c =  0.4131   64
 Side 2 forced transition at x/c =  1.0000   68

   3   rms: 0.3074E-02   max: 0.2384E-01   C at   68  2
       a =  7.000      CL =  1.1227
      Cm = -0.0471     CD =  0.02136   =>   CDf =  0.00736    CDp =  0.01400

 Side 1  free  transition at x/c =  0.4132   64
 Side 2 forced transition at x/c =  1.0000   68

   4   rms: 0.3771E-04   max: 0.2751E-03   C at   68  2
       a =  7.000      CL =  1.1227
      Cm = -0.0471     CD =  0.02136   =>   CDf =  0.00735    CDp =  0.01401
 plradd ia,ip,cpol           23           0  0.18648361    

 Point added to stored polar  1
 Point written to save file  goe770_Re200k.base.pol                          
 Dump file unspecified or not available
 Calculating wake trajectory ...
 Calculating source influence matrix ...

 Solving BL system ...

 Side 1  free  transition at x/c =  0.4132   64
 Side 2 forced transition at x/c =  1.0000   68

   1   rms: 0.6177E-01   max: -.2762E+00   C at   68  2
       a =  7.500      CL =  1.1552
      Cm = -0.0439     CD =  0.02225   =>   CDf =  0.00722    CDp =  0.01503

 Side 1  free  transition at x/c =  0.4068   65
 Side 2 forced transition at x/c =  1.0000   67

   2   rms: 0.1021E-01   max: 0.1078E+00   C at   67  2
       a =  7.500      CL =  1.1626
      Cm = -0.0451     CD =  0.02207   =>   CDf =  0.00734    CDp =  0.01473

 Side 1  free  transition at x/c =  0.4072   65
 Side 2 forced transition at x/c =  1.0000   67

   3   rms: 0.5841E-03   max: 0.7322E-02   C at   67  2
       a =  7.500      CL =  1.1630
      Cm = -0.0451     CD =  0.02208   =>   CDf =  0.00732    CDp =  0.01476

 Side 1  free  transition at x/c =  0.4072   65
 Side 2 forced transition at x/c =  1.0000   67

   4   rms: 0.2122E-05   max: 0.2699E-04   C at   67  2
       a =  7.500      CL =  1.1630
      Cm = -0.0451     CD =  0.02208   =>   CDf =  0.00732    CDp =  0.01476
 plradd ia,ip,cpol           24           0  0.11565904    

 Point added to stored polar  1
 Point written to save file  goe770_Re200k.base.pol                          
 Dump file unspecified or not available
 Calculating wake trajectory ...
 Calculating source influence matrix ...

 Solving BL system ...

 Side 1  free  transition at x/c =  0.4072   65
 Side 2 forced transition at x/c =  1.0000   67

   1   rms: 0.6478E-01   max: -.1732E+00   C at   67  2
       a =  8.000      CL =  1.2101
      Cm = -0.0442     CD =  0.02268   =>   CDf =  0.00718    CDp =  0.01550

 Side 1  free  transition at x/c =  0.4023   66
 Side 2 forced transition at x/c =  1.0000   66

   2   rms: 0.1009E-01   max: -.6464E-01   D at   66  1
       a =  8.000      CL =  1.2161
      Cm = -0.0452     CD =  0.02269   =>   CDf =  0.00743    CDp =  0.01525

 Side 1  free  transition at x/c =  0.4025   66
 Side 2 forced transition at x/c =  1.0000   66

   3   rms: 0.1469E-03   max: 0.1309E-02   C at   66  2
       a =  8.000      CL =  1.2162
      Cm = -0.0452     CD =  0.02270   =>   CDf =  0.00744    CDp =  0.01526

 Side 1  free  transition at x/c =  0.4025   66
 Side 2 forced transition at x/c =  1.0000   66

   4   rms: 0.2487E-05   max: -.1435E-04   C at   66  2
       a =  8.000      CL =  1.2162
      Cm = -0.0452     CD =  0.02270   =>   CDf =  0.00744    CDp =  0.01526
 plradd ia,ip,cpol           25           0  0.10587591    

 Point added to stored polar  1
 Point written to save file  goe770_Re200k.base.pol                          
 Dump file unspecified or not available
 Calculating wake trajectory ...
 Calculating source influence matrix ...

 Solving BL system ...

 Side 1  free  transition at x/c =  0.4025   66
 Side 2 forced transition at x/c =  1.0000   66

   1   rms: 0.7159E-01   max: -.8063E-01   C at   66  2
       a =  8.500      CL =  1.2751
      Cm = -0.0464     CD =  0.02362   =>   CDf =  0.00745    CDp =  0.01617

 Side 1  free  transition at x/c =  0.3982   65
 Side 2 forced transition at x/c =  1.0000   66

   2   rms: 0.3052E-01   max: -.1992E+00   C at   66  2
       a =  8.500      CL =  1.2418
      Cm = -0.0415     CD =  0.02415   =>   CDf =  0.00728    CDp =  0.01686

 Side 1  free  transition at x/c =  0.3965   65
 Side 2 forced transition at x/c =  1.0000   66

   3   rms: 0.4049E-02   max: 0.3345E-01   C at   66  2
       a =  8.500      CL =  1.2447
      Cm = -0.0419     CD =  0.02405   =>   CDf =  0.00723    CDp =  0.01682

 Side 1  free  transition at x/c =  0.3964   65
 Side 2 forced transition at x/c =  1.0000   66

   4   rms: 0.1083E-03   max: 0.7103E-03   D at   66  1
       a =  8.500      CL =  1.2446
      Cm = -0.0419     CD =  0.02405   =>   CDf =  0.00721    CDp =  0.01684

 Side 1  free  transition at x/c =  0.3964   65
 Side 2 forced transition at x/c =  1.0000   66

   5   rms: 0.1946E-05   max: -.9074E-05   C at   66  2
       a =  8.500      CL =  1.2446
      Cm = -0.0419     CD =  0.02405   =>   CDf =  0.00721    CDp =  0.01684
 plradd ia,ip,cpol           26           0  0.10587591    

 Point added to stored polar  1
 Point written to save file  goe770_Re200k.base.pol                          
 Dump file unspecified or not available
 Calculating wake trajectory ...
 Calculating source influence matrix ...

 Solving BL system ...

 Side 1  free  transition at x/c =  0.3964   65
 Side 2 forced transition at x/c =  1.0000   66

   1   rms: 0.6097E-01   max: -.2547E+00   C at   66  2
       a =  9.000      CL =  1.2736
      Cm = -0.0387     CD =  0.02527   =>   CDf =  0.00704    CDp =  0.01822

 Side 1  free  transition at x/c =  0.3886   66
 Side 2 forced transition at x/c =  1.0000   65

   2   rms: 0.2207E-01   max: -.1363E+00   D at   67  1
       a =  9.000      CL =  1.2853
      Cm = -0.0403     CD =  0.02473   =>   CDf =  0.00717    CDp =  0.01756

 Side 1  free  transition at x/c =  0.3898   66
 Side 2 forced transition at x/c =  1.0000   65

   3   rms: 0.5930E-03   max: -.4723E-02   D at    4  1
       a =  9.000      CL =  1.2856
      Cm = -0.0403     CD =  0.02476   =>   CDf =  0.00716    CDp =  0.01760

 Side 1  free  transition at x/c =  0.3898   66
 Side 2 forced transition at x/c =  1.0000   65

   4   rms: 0.7520E-05   max: -.2935E-04   C at   65  2
       a =  9.000      CL =  1.2856
      Cm = -0.0403     CD =  0.02476   =>   CDf =  0.00716    CDp =  0.01760
 plradd ia,ip,cpol           27           0  9.67297330E-02

 Point added to stored polar  1
 Point written to save file  goe770_Re200k.base.pol                          
 Dump file unspecified or not available
 Calculating wake trajectory ...
 Calculating source influence matrix ...

 Solving BL system ...

 Side 1  free  transition at x/c =  0.3898   66
 Side 2 forced transition at x/c =  1.0000   65

   1   rms: 0.6825E-01   max: -.1023E+00   C at   65  2
       a =  9.500      CL =  1.3395
      Cm = -0.0405     CD =  0.02501   =>   CDf =  0.00698    CDp =  0.01803

 Side 1  free  transition at x/c =  0.3834   66
 Side 2 forced transition at x/c =  1.0000   64

   2   rms: 0.1213E-01   max: -.6114E-01   D at   66  1
       a =  9.500      CL =  1.3390
      Cm = -0.0405     CD =  0.02523   =>   CDf =  0.00726    CDp =  0.01798

 Side 1  free  transition at x/c =  0.3834   66
 Side 2 forced transition at x/c =  1.0000   64

   3   rms: 0.1147E-02   max: -.8437E-02   D at    4  1
       a =  9.500      CL =  1.3381
      Cm = -0.0404     CD =  0.02529   =>   CDf =  0.00725    CDp =  0.01804

 Side 1  free  transition at x/c =  0.3833   66
 Side 2 forced transition at x/c =  1.0000   64

   4   rms: 0.1888E-04   max: -.9446E-04   C at   64  2
       a =  9.500      CL =  1.3381
      Cm = -0.0404     CD =  0.02529   =>   CDf =  0.00725    CDp =  0.01804
 plradd ia,ip,cpol           28           0  9.67297330E-02

 Point added to stored polar  1
 Point written to save file  goe770_Re200k.base.pol                          
 Dump file unspecified or not available
 Calculating wake trajectory ...
 Calculating source influence matrix ...

 Solving BL system ...

 Side 1  free  transition at x/c =  0.3833   66
 Side 2 forced transition at x/c =  1.0000   64

   1   rms: 0.6681E-01   max: -.3769E+00   C at   64  2
       a = 10.000      CL =  1.3396
      Cm = -0.0335     CD =  0.02707   =>   CDf =  0.00726    CDp =  0.01981

 Side 1  free  transition at x/c =  0.3756   66
 Side 2 forced transition at x/c =  1.0000   64

   2   rms: 0.2345E-01   max: -.1167E+00   D at   67  1
       a = 10.000      CL =  1.3582
      Cm = -0.0363     CD =  0.02660   =>   CDf =  0.00699    CDp =  0.01961

 Side 1  free  transition at x/c =  0.3762   66
 Side 2 forced transition at x/c =  1.0000   64

   3   rms: 0.1423E-02   max: 0.1143E-01   D at   67  1
       a = 10.000      CL =  1.3574
      Cm = -0.0362     CD =  0.02667   =>   CDf =  0.00700    CDp =  0.01967

 Side 1  free  transition at x/c =  0.3762   66
 Side 2 forced transition at x/c =  1.0000   64

   4   rms: 0.5806E-04   max: 0.2298E-03   D at   72  2
       a = 10.000      CL =  1.3574
      Cm = -0.0362     CD =  0.02667   =>   CDf =  0.00700    CDp =  0.01968
 plradd ia,ip,cpol           29           0  8.81791413E-02

 Point added to stored polar  1
 Point written to save file  goe770_Re200k.base.pol                          
 Dump file unspecified or not available

.OPERva   c>  
 Solving BL system ...

 Side 1  free  transition at x/c =  0.3762   66
 Side 2 forced transition at x/c =  1.0000   64

   1   rms: 0.7120E-06   max: -.6080E-05   T at   66  1
       a = 10.000      CL =  1.3574
      Cm = -0.0362     CD =  0.02667   =>   CDf =  0.00700    CDp =  0.01968
 plradd ia,ip,cpol           30         182  8.81791413E-02

 Point added to stored polar  1
 Point written to save file  goe770_Re200k.base.pol                          
 Dump file unspecified or not available
 Calculating wake trajectory ...
 Calculating source influence matrix ...

 Solving BL system ...

 Side 1  free  transition at x/c =  0.3762   66
 Side 2 forced transition at x/c =  1.0000   64

   1   rms: 0.3002E-01   max: 0.9666E-01   T at   66  1
       a = 10.250      CL =  1.3753
      Cm = -0.0352     CD =  0.02719   =>   CDf =  0.00700    CDp =  0.02018

 Side 1  free  transition at x/c =  0.3731   66
 Side 2 forced transition at x/c =  1.0000   64

   2   rms: 0.5482E-02   max: -.2168E-01   D at   67  1
       a = 10.250      CL =  1.3785
      Cm = -0.0356     CD =  0.02705   =>   CDf =  0.00698    CDp =  0.02007

 Side 1  free  transition at x/c =  0.3733   66
 Side 2 forced transition at x/c =  1.0000   64

   3   rms: 0.1291E-03   max: 0.7325E-03   C at   64  2
       a = 10.250      CL =  1.3786
      Cm = -0.0356     CD =  0.02706   =>   CDf =  0.00698    CDp =  0.02008

 Side 1  free  transition at x/c =  0.3733   66
 Side 2 forced transition at x/c =  1.0000   64

   4   rms: 0.9257E-06   max: -.1003E-04   D at    4  2
       a = 10.250      CL =  1.3786
      Cm = -0.0356     CD =  0.02706   =>   CDf =  0.00698    CDp =  0.02008
 plradd ia,ip,cpol           31           0  8.81791413E-02

 Point added to stored polar  1
 Point written to save file  goe770_Re200k.base.pol                          
 Dump file unspecified or not available
 Calculating wake trajectory ...
 Calculating source influence matrix ...

 Solving BL system ...

 Side 1  free  transition at x/c =  0.3733   66
 Side 2 forced transition at x/c =  1.0000   64

   1   rms: 0.3274E-01   max: -.4881E-01   C at   64  2
       a = 10.500      CL =  1.4036
      Cm = -0.0356     CD =  0.02734   =>   CDf =  0.00676    CDp =  0.02059

 Side 1  free  transition at x/c =  0.3705   67
 Side 2 forced transition at x/c =  1.0000   63

   2   rms: 0.6387E-02   max: -.3610E-01   D at    3  1
       a = 10.500      CL =  1.4072
      Cm = -0.0360     CD =  0.02726   =>   CDf =  0.00702    CDp =  0.02025

 Side 1  free  transition at x/c =  0.3706   67
 Side 2 forced transition at x/c =  1.0000   63

   3   rms: 0.5737E-03   max: -.6249E-02   D at    4  1
       a = 10.500      CL =  1.4072
      Cm = -0.0361     CD =  0.02727   =>   CDf =  0.00702    CDp =  0.02025

 Side 1  free  transition at x/c =  0.3706   67
 Side 2 forced transition at x/c =  1.0000   63

   4   rms: 0.7388E-06   max: 0.4674E-05   C at   63  2
       a = 10.500      CL =  1.4072
      Cm = -0.0361     CD =  0.02727   =>   CDf =  0.00702    CDp =  0.02025
 plradd ia,ip,cpol           32           0  8.81791413E-02

 Point added to stored polar  1
 Point written to save file  goe770_Re200k.base.pol                          
 Dump file unspecified or not available
 Calculating wake trajectory ...
 Calculating source influence matrix ...

 Solving BL system ...

 Side 1  free  transition at x/c =  0.3706   67
 Side 2 forced transition at x/c =  1.0000   63

   1   rms: 0.3721E-01   max: 0.1774E-01   T at   65  2
       a = 10.750      CL =  1.4395
      Cm = -0.0370     CD =  0.02744   =>   CDf =  0.00703    CDp =  0.02041

 Side 1  free  transition at x/c =  0.3680   67
 Side 2 forced transition at x/c =  1.0000   63

   2   rms: 0.6811E-02   max: -.2797E-01   D at   67  1
       a = 10.750      CL =  1.4437
      Cm = -0.0377     CD =  0.02753   =>   CDf =  0.00710    CDp =  0.02043

 Side 1  free  transition at x/c =  0.3679   67
 Side 2 forced transition at x/c =  1.0000   63

   3   rms: 0.1190E-03   max: 0.8365E-03   D at   67  1
       a = 10.750      CL =  1.4437
      Cm = -0.0377     CD =  0.02754   =>   CDf =  0.00712    CDp =  0.02042

 Side 1  free  transition at x/c =  0.3679   67
 Side 2 forced transition at x/c =  1.0000   63

   4   rms: 0.4515E-05   max: -.2545E-04   C at   63  2
       a = 10.750      CL =  1.4437
      Cm = -0.0377     CD =  0.02754   =>   CDf =  0.00712    CDp =  0.02042
 plradd ia,ip,cpol           33           0  8.01980942E-02

 Point added to stored polar  1
 Point written to save file  goe770_Re200k.base.pol                          
 Dump file unspecified or not available
 Calculating wake trajectory ...
 Calculating source influence matrix ...

 Solving BL system ...

 Side 1  free  transition at x/c =  0.3679   67
 Side 2 forced transition at x/c =  1.0000   63

   1   rms: 0.4232E-01   max: 0.1591E+00   T at   67  1
       a = 11.000      CL =  1.4825
      Cm = -0.0398     CD =  0.02817   =>   CDf =  0.00688    CDp =  0.02129

 Side 1  free  transition at x/c =  0.3654   67
 Side 2 forced transition at x/c =  1.0000   62
 idif Ue xi dudx           1  6.84607998E-02  3.91066074E-03   17.506197    
 Uenew xinew           2  2.09733588E-03  1.19805336E-04

   2   rms: 0.4482E-01   max: -.2317E+00   C at   62  2
       a = 11.000      CL =  1.4432
      Cm = -0.0346     CD =  0.02865   =>   CDf =  0.00722    CDp =  0.02143

 Side 1  free  transition at x/c =  0.3649   66
 Side 2 forced transition at x/c =  1.0000   63

   3   rms: 0.7626E-02   max: -.7665E-01   D at    2  2
       a = 11.000      CL =  1.4384
      Cm = -0.0338     CD =  0.02872   =>   CDf =  0.00691    CDp =  0.02181

 Side 1  free  transition at x/c =  0.3649   66
 Side 2 forced transition at x/c =  1.0000   63

   4   rms: 0.4458E-03   max: 0.1865E-02   D at   71  2
       a = 11.000      CL =  1.4381
      Cm = -0.0337     CD =  0.02872   =>   CDf =  0.00690    CDp =  0.02182

 Side 1  free  transition at x/c =  0.3649   66
 Side 2 forced transition at x/c =  1.0000   63

   5   rms: 0.9087E-05   max: -.3620E-04   C at   63  2
       a = 11.000      CL =  1.4381
      Cm = -0.0337     CD =  0.02872   =>   CDf =  0.00690    CDp =  0.02182
 plradd ia,ip,cpol           34           0  8.01980942E-02

 Point added to stored polar  1
 Point written to save file  goe770_Re200k.base.pol                          
 Dump file unspecified or not available
 Calculating wake trajectory ...
 Calculating source influence matrix ...

 Solving BL system ...

 Side 1  free  transition at x/c =  0.3649   66
 Side 2 forced transition at x/c =  1.0000   63

   1   rms: 0.3378E-01   max: -.1818E+00   C at   63  2
       a = 11.250      CL =  1.4325
      Cm = -0.0299     CD =  0.03000   =>   CDf =  0.00665    CDp =  0.02335

 Side 1  free  transition at x/c =  0.3614   67
 Side 2 forced transition at x/c =  1.0000   62

   2   rms: 0.2823E-02   max: -.2591E-01   D at   68  1
       a = 11.250      CL =  1.4320
      Cm = -0.0298     CD =  0.02987   =>   CDf =  0.00673    CDp =  0.02314

 Side 1  free  transition at x/c =  0.3616   67
 Side 2 forced transition at x/c =  1.0000   62

   3   rms: 0.7506E-03   max: -.9234E-02   D at    4  1
       a = 11.250      CL =  1.4322
      Cm = -0.0298     CD =  0.02987   =>   CDf =  0.00674    CDp =  0.02313

 Side 1  free  transition at x/c =  0.3616   67
 Side 2 forced transition at x/c =  1.0000   62

   4   rms: 0.1125E-05   max: 0.8761E-05   D at    6  1
       a = 11.250      CL =  1.4322
      Cm = -0.0298     CD =  0.02987   =>   CDf =  0.00674    CDp =  0.02313
 plradd ia,ip,cpol           35           0  1.50088351E-02

 Point added to stored polar  1
 Point written to save file  goe770_Re200k.base.pol                          
 Dump file unspecified or not available
 Calculating wake trajectory ...
 Calculating source influence matrix ...

 Solving BL system ...

 Side 1  free  transition at x/c =  0.3616   67
 Side 2 forced transition at x/c =  1.0000   62

   1   rms: 0.2997E-01   max: -.1587E+00   C at   62  2
       a = 11.500      CL =  1.4319
      Cm = -0.0268     CD =  0.03101   =>   CDf =  0.00674    CDp =  0.02426

 Side 1  free  transition at x/c =  0.3583   67
 Side 2 forced transition at x/c =  1.0000   62

   2   rms: 0.8102E-02   max: -.3234E-01   D at   72  2
       a = 11.500      CL =  1.4374
      Cm = -0.0276     CD =  0.03076   =>   CDf =  0.00665    CDp =  0.02410

 Side 1  free  transition at x/c =  0.3584   67
 Side 2 forced transition at x/c =  1.0000   62

   3   rms: 0.6168E-03   max: 0.2636E-02   C at   62  2
       a = 11.500      CL =  1.4380
      Cm = -0.0276     CD =  0.03076   =>   CDf =  0.00665    CDp =  0.02410

 Side 1  free  transition at x/c =  0.3584   67
 Side 2 forced transition at x/c =  1.0000   62

   4   rms: 0.5130E-05   max: -.1875E-04   D at   98  1
       a = 11.500      CL =  1.4380
      Cm = -0.0276     CD =  0.03076   =>   CDf =  0.00665    CDp =  0.02410
 plradd ia,ip,cpol           36           0  1.50088351E-02

 Point added to stored polar  1
 Point written to save file  goe770_Re200k.base.pol                          
 Dump file unspecified or not available
 Calculating wake trajectory ...
 Calculating source influence matrix ...

 Solving BL system ...

 Side 1  free  transition at x/c =  0.3584   67
 Side 2 forced transition at x/c =  1.0000   62

   1   rms: 0.2858E-01   max: 0.1044E+00   T at   67  1
       a = 11.750      CL =  1.4526
      Cm = -0.0265     CD =  0.03138   =>   CDf =  0.00666    CDp =  0.02472

 Side 1  free  transition at x/c =  0.3550   67
 Side 2 forced transition at x/c =  1.0000   62

   2   rms: 0.1299E-01   max: -.4923E-01   D at   96  1
       a = 11.750      CL =  1.4611
      Cm = -0.0274     CD =  0.03097   =>   CDf =  0.00665    CDp =  0.02432

 Side 1  free  transition at x/c =  0.3553   67
 Side 2 forced transition at x/c =  1.0000   62

   3   rms: 0.7870E-03   max: 0.3373E-02   C at   62  2
       a = 11.750      CL =  1.4619
      Cm = -0.0275     CD =  0.03099   =>   CDf =  0.00666    CDp =  0.02432

 Side 1  free  transition at x/c =  0.3553   67
 Side 2 forced transition at x/c =  1.0000   62

   4   rms: 0.1683E-04   max: -.5571E-04   D at   97  1
       a = 11.750      CL =  1.4619
      Cm = -0.0275     CD =  0.03099   =>   CDf =  0.00666    CDp =  0.02432
 plradd ia,ip,cpol           37           0  1.50088351E-02

 Point added to stored polar  1
 Point written to save file  goe770_Re200k.base.pol                          
 Dump file unspecified or not available
 Calculating wake trajectory ...
 Calculating source influence matrix ...

 Solving BL system ...

 Side 1  free  transition at x/c =  0.3553   67
 Side 2 forced transition at x/c =  1.0000   62

   1   rms: 0.3871E-01   max: 0.1205E+00   T at   67  1
       a = 12.000      CL =  1.4953
      Cm = -0.0283     CD =  0.03082   =>   CDf =  0.00640    CDp =  0.02442

 Side 1  free  transition at x/c =  0.3518   68
 Side 2 forced transition at x/c =  1.0000   61

   2   rms: 0.2192E-01   max: -.8794E-01   D at   97  1
       a = 12.000      CL =  1.5102
      Cm = -0.0301     CD =  0.03042   =>   CDf =  0.00677    CDp =  0.02365

 Side 1  free  transition at x/c =  0.3519   68
 Side 2 forced transition at x/c =  1.0000   61

   3   rms: 0.7939E-03   max: 0.7749E-02   C at   61  2
       a = 12.000      CL =  1.5107
      Cm = -0.0302     CD =  0.03049   =>   CDf =  0.00680    CDp =  0.02369

 Side 1  free  transition at x/c =  0.3518   68
 Side 2 forced transition at x/c =  1.0000   61

   4   rms: 0.4014E-05   max: -.3164E-04   D at   71  2
       a = 12.000      CL =  1.5107
      Cm = -0.0302     CD =  0.03049   =>   CDf =  0.00680    CDp =  0.02369
 plradd ia,ip,cpol           38           0  1.50088351E-02

 Point added to stored polar  1
 Point written to save file  goe770_Re200k.base.pol                          
 Dump file unspecified or not available
 Calculating wake trajectory ...
 Calculating source influence matrix ...

 Solving BL system ...

 Side 1  free  transition at x/c =  0.3518   68
 Side 2 forced transition at x/c =  1.0000   61

   1   rms: 0.6521E-01   max: 0.2059E+00   T at   68  1
       a = 12.250      CL =  1.5760
      Cm = -0.0353     CD =  0.02993   =>   CDf =  0.00681    CDp =  0.02312

 Side 1  free  transition at x/c =  0.3481   67
 Side 2 forced transition at x/c =  1.0000   61

   2   rms: 0.7090E-01   max: -.2843E+00   C at   61  2
       a = 12.250      CL =  1.5175
      Cm = -0.0291     CD =  0.03168   =>   CDf =  0.00670    CDp =  0.02497

 Side 1  free  transition at x/c =  0.3480   67
 Side 2 forced transition at x/c =  1.0000   61

   3   rms: 0.1997E-01   max: 0.9186E-01   D at   99  1
       a = 12.250      CL =  1.4996
      Cm = -0.0263     CD =  0.03204   =>   CDf =  0.00664    CDp =  0.02540

 Side 1  free  transition at x/c =  0.3485   67
 Side 2 forced transition at x/c =  1.0000   61

   4   rms: 0.7916E-03   max: 0.8949E-02   D at   66  2
       a = 12.250      CL =  1.4992
      Cm = -0.0263     CD =  0.03204   =>   CDf =  0.00664    CDp =  0.02540

 Side 1  free  transition at x/c =  0.3485   67
 Side 2 forced transition at x/c =  1.0000   61

   5   rms: 0.2145E-04   max: 0.1830E-03   D at   67  2
       a = 12.250      CL =  1.4991
      Cm = -0.0263     CD =  0.03204   =>   CDf =  0.00664    CDp =  0.02540
 plradd ia,ip,cpol           39           0  1.50088351E-02

 Point added to stored polar  1
 Point written to save file  goe770_Re200k.base.pol                          
 Dump file unspecified or not available
 Calculating wake trajectory ...
 Calculating source influence matrix ...

 Solving BL system ...

 Side 1  free  transition at x/c =  0.3485   67
 Side 2 forced transition at x/c =  1.0000   61

   1   rms: 0.5026E-01   max: -.2077E+00   C at   61  2
       a = 12.500      CL =  1.4702
      Cm = -0.0210     CD =  0.03447   =>   CDf =  0.00664    CDp =  0.02783

 Side 1  free  transition at x/c =  0.3447   67
 Side 2 forced transition at x/c =  1.0000   61

   2   rms: 0.7625E-02   max: -.4174E-01   D at   73  2
       a = 12.500      CL =  1.4745
      Cm = -0.0221     CD =  0.03440   =>   CDf =  0.00643    CDp =  0.02796

 Side 1  free  transition at x/c =  0.3446   67
 Side 2 forced transition at x/c =  1.0000   61

   3   rms: 0.2445E-03   max: -.1682E-02   D at   73  2
       a = 12.500      CL =  1.4747
      Cm = -0.0221     CD =  0.03441   =>   CDf =  0.00642    CDp =  0.02799

 Side 1  free  transition at x/c =  0.3446   67
 Side 2 forced transition at x/c =  1.0000   61

   4   rms: 0.1395E-05   max: -.6318E-05   D at   76  2
       a = 12.500      CL =  1.4747
      Cm = -0.0221     CD =  0.03441   =>   CDf =  0.00642    CDp =  0.02799
 plradd ia,ip,cpol           40           0  1.50088351E-02

 Point added to stored polar  1
 Point written to save file  goe770_Re200k.base.pol                          
 Dump file unspecified or not available
 Calculating wake trajectory ...
 Calculating source influence matrix ...

 Solving BL system ...

 Side 1  free  transition at x/c =  0.3446   67
 Side 2 forced transition at x/c =  1.0000   61

   1   rms: 0.3929E-01   max: 0.1524E+00   D at   88  1   RLX: 0.950
       a = 12.750      CL =  1.4616
      Cm = -0.0195     CD =  0.03660   =>   CDf =  0.00643    CDp =  0.03017

 Side 1  free  transition at x/c =  0.3406   67
 Side 2 forced transition at x/c =  1.0000   61

   2   rms: 0.1882E-01   max: -.6628E-01   D at   93  1
       a = 12.750      CL =  1.4762
      Cm = -0.0205     CD =  0.03563   =>   CDf =  0.00633    CDp =  0.02930

 Side 1  free  transition at x/c =  0.3406   67
 Side 2 forced transition at x/c =  1.0000   61

   3   rms: 0.1285E-02   max: -.4915E-02   D at   73  2
       a = 12.750      CL =  1.4773
      Cm = -0.0206     CD =  0.03566   =>   CDf =  0.00635    CDp =  0.02931

 Side 1  free  transition at x/c =  0.3406   67
 Side 2 forced transition at x/c =  1.0000   61

   4   rms: 0.4525E-04   max: -.1519E-03   D at   92  1
       a = 12.750      CL =  1.4774
      Cm = -0.0206     CD =  0.03567   =>   CDf =  0.00635    CDp =  0.02931
 plradd ia,ip,cpol           41           0  1.50088351E-02

 Point added to stored polar  1
 Point written to save file  goe770_Re200k.base.pol                          
 Dump file unspecified or not available
 Calculating wake trajectory ...
 Calculating source influence matrix ...

 Solving BL system ...

 Side 1  free  transition at x/c =  0.3406   67
 Side 2 forced transition at x/c =  1.0000   61

   1   rms: 0.3202E-01   max: 0.1306E+00   T at   67  1   RLX: 0.965
       a = 13.000      CL =  1.4987
      Cm = -0.0204     CD =  0.03580   =>   CDf =  0.00636    CDp =  0.02944

 Side 1  free  transition at x/c =  0.3366   67
 Side 2 forced transition at x/c =  1.0000   61

   2   rms: 0.2799E-01   max: -.1113E+00   D at   90  1
       a = 13.000      CL =  1.5196
      Cm = -0.0216     CD =  0.03452   =>   CDf =  0.00612    CDp =  0.02840

 Side 1  free  transition at x/c =  0.3368   68
 Side 2 forced transition at x/c =  1.0000   60

   3   rms: 0.1256E-02   max: -.9263E-02   D at    3  1
       a = 13.000      CL =  1.5205
      Cm = -0.0217     CD =  0.03465   =>   CDf =  0.00646    CDp =  0.02819

 Side 1  free  transition at x/c =  0.3367   68
 Side 2 forced transition at x/c =  1.0000   60

   4   rms: 0.5507E-03   max: -.7116E-02   D at    4  1
       a = 13.000      CL =  1.5205
      Cm = -0.0217     CD =  0.03465   =>   CDf =  0.00646    CDp =  0.02819

 Side 1  free  transition at x/c =  0.3367   68
 Side 2 forced transition at x/c =  1.0000   60

   5   rms: 0.1140E-05   max: 0.4863E-05   D at    6  1
       a = 13.000      CL =  1.5205
      Cm = -0.0217     CD =  0.03465   =>   CDf =  0.00646    CDp =  0.02819
 plradd ia,ip,cpol           42           0  1.26471873E-02

 Point added to stored polar  1
 Point written to save file  goe770_Re200k.base.pol                          
 Dump file unspecified or not available
 Calculating wake trajectory ...
 Calculating source influence matrix ...

 Solving BL system ...

 Side 1  free  transition at x/c =  0.3367   68
 Side 2 forced transition at x/c =  1.0000   60

   1   rms: 0.6177E-01   max: 0.1644E+00   T at   68  1
       a = 13.250      CL =  1.5768
      Cm = -0.0238     CD =  0.03296   =>   CDf =  0.00647    CDp =  0.02649

 Side 1  free  transition at x/c =  0.3335   67
 Side 2 forced transition at x/c =  1.0000   60

   2   rms: 0.3585E-01   max: 0.1366E+00   D at   95  1
       a = 13.250      CL =  1.5452
      Cm = -0.0217     CD =  0.03499   =>   CDf =  0.00655    CDp =  0.02845

 Side 1  free  transition at x/c =  0.3329   67
 Side 2 forced transition at x/c =  1.0000   60

   3   rms: 0.2904E-02   max: 0.3019E-01   D at   94  1
       a = 13.250      CL =  1.5438
      Cm = -0.0216     CD =  0.03503   =>   CDf =  0.00649    CDp =  0.02854

 Side 1  free  transition at x/c =  0.3328   67
 Side 2 forced transition at x/c =  1.0000   60

   4   rms: 0.1935E-03   max: 0.1274E-02   D at   93  1
       a = 13.250      CL =  1.5436
      Cm = -0.0216     CD =  0.03503   =>   CDf =  0.00648    CDp =  0.02855

 Side 1  free  transition at x/c =  0.3328   67
 Side 2 forced transition at x/c =  1.0000   60

   5   rms: 0.3723E-05   max: -.1582E-04   C at   60  2
       a = 13.250      CL =  1.5436
      Cm = -0.0216     CD =  0.03503   =>   CDf =  0.00648    CDp =  0.02855
 plradd ia,ip,cpol           43           0  1.26471873E-02

 Point added to stored polar  1
 Point written to save file  goe770_Re200k.base.pol                          
 Dump file unspecified or not available
 Calculating wake trajectory ...
 Calculating source influence matrix ...

 Solving BL system ...

 Side 1  free  transition at x/c =  0.3328   67
 Side 2 forced transition at x/c =  1.0000   60

   1   rms: 0.7309E-01   max: 0.2840E+00   D at   88  1   RLX: 0.854
       a = 13.500      CL =  1.5011
      Cm = -0.0173     CD =  0.03864   =>   CDf =  0.00649    CDp =  0.03216

 Side 1  free  transition at x/c =  0.3295   67
 Side 2 forced transition at x/c =  1.0000   60

   2   rms: 0.1484E-01   max: 0.1129E+00   D at   90  1
       a = 13.500      CL =  1.4920
      Cm = -0.0175     CD =  0.03980   =>   CDf =  0.00624    CDp =  0.03356

 Side 1  free  transition at x/c =  0.3285   67
 Side 2 forced transition at x/c =  1.0000   60

   3   rms: 0.8600E-03   max: 0.1718E-01   D at   89  1
       a = 13.500      CL =  1.4921
      Cm = -0.0175     CD =  0.03974   =>   CDf =  0.00618    CDp =  0.03356

 Side 1  free  transition at x/c =  0.3284   67
 Side 2 forced transition at x/c =  1.0000   60

   4   rms: 0.4120E-04   max: -.1862E-03   D at   89  1
       a = 13.500      CL =  1.4921
      Cm = -0.0176     CD =  0.03974   =>   CDf =  0.00618    CDp =  0.03356
 plradd ia,ip,cpol           44           0  1.26471873E-02

 Point added to stored polar  1
 Point written to save file  goe770_Re200k.base.pol                          
 Dump file unspecified or not available
 Calculating wake trajectory ...
 Calculating source influence matrix ...

 Solving BL system ...

 Side 1  free  transition at x/c =  0.3284   67
 Side 2 forced transition at x/c =  1.0000   60

   1   rms: 0.6395E-01   max: 0.2612E+00   D at   85  1   RLX: 0.762
       a = 13.750      CL =  1.4628
      Cm = -0.0158     CD =  0.04356   =>   CDf =  0.00618    CDp =  0.03738

 Side 1  free  transition at x/c =  0.3246   67
 Side 2 forced transition at x/c =  1.0000   60

   2   rms: 0.1787E-01   max: -.5493E-01   D at   68  1
       a = 13.750      CL =  1.4774
      Cm = -0.0162     CD =  0.04253   =>   CDf =  0.00605    CDp =  0.03649

 Side 1  free  transition at x/c =  0.3238   67
 Side 2 forced transition at x/c =  1.0000   60

   3   rms: 0.4567E-02   max: -.1674E-01   D at   86  1
       a = 13.750      CL =  1.4814
      Cm = -0.0163     CD =  0.04231   =>   CDf =  0.00606    CDp =  0.03625

 Side 1  free  transition at x/c =  0.3238   67
 Side 2 forced transition at x/c =  1.0000   60

   4   rms: 0.2410E-03   max: -.8606E-03   D at   70  2
       a = 13.750      CL =  1.4816
      Cm = -0.0163     CD =  0.04233   =>   CDf =  0.00607    CDp =  0.03626

 Side 1  free  transition at x/c =  0.3238   67
 Side 2 forced transition at x/c =  1.0000   60

   5   rms: 0.1652E-04   max: -.5251E-04   D at   84  1
       a = 13.750      CL =  1.4816
      Cm = -0.0163     CD =  0.04233   =>   CDf =  0.00607    CDp =  0.03626
 plradd ia,ip,cpol           45           0  1.26471873E-02

 Point added to stored polar  1
 Point written to save file  goe770_Re200k.base.pol                          
 Dump file unspecified or not available
 Calculating wake trajectory ...
 Calculating source influence matrix ...

 Solving BL system ...

 Side 1  free  transition at x/c =  0.3238   67
 Side 2 forced transition at x/c =  1.0000   60

   1   rms: 0.3235E-01   max: 0.1294E+00   T at   67  1   RLX: 0.786
       a = 14.000      CL =  1.4994
      Cm = -0.0162     CD =  0.04239   =>   CDf =  0.00608    CDp =  0.03631

 Side 1  free  transition at x/c =  0.3205   67
 Side 2 forced transition at x/c =  1.0000   60

   2   rms: 0.3140E-01   max: -.1038E+00   D at   87  1
       a = 14.000      CL =  1.5254
      Cm = -0.0168     CD =  0.04055   =>   CDf =  0.00611    CDp =  0.03444

 Side 1  free  transition at x/c =  0.3202   67
 Side 2 forced transition at x/c =  1.0000   60

   3   rms: 0.2529E-02   max: -.9994E-02   D at   84  1
       a = 14.000      CL =  1.5276
      Cm = -0.0169     CD =  0.04064   =>   CDf =  0.00616    CDp =  0.03448

 Side 1  free  transition at x/c =  0.3201   67
 Side 2 forced transition at x/c =  1.0000   60

   4   rms: 0.1709E-03   max: -.6019E-03   D at   70  2
       a = 14.000      CL =  1.5277
      Cm = -0.0169     CD =  0.04065   =>   CDf =  0.00617    CDp =  0.03448

 Side 1  free  transition at x/c =  0.3201   67
 Side 2 forced transition at x/c =  1.0000   60

   5   rms: 0.9372E-05   max: -.2878E-04   D at   87  1
       a = 14.000      CL =  1.5277
      Cm = -0.0169     CD =  0.04065   =>   CDf =  0.00617    CDp =  0.03448
 plradd ia,ip,cpol           46           0  1.26471873E-02

 Point added to stored polar  1
 Point written to save file  goe770_Re200k.base.pol                          
 Dump file unspecified or not available
 Calculating wake trajectory ...
 Calculating source influence matrix ...

 Solving BL system ...

 Side 1  free  transition at x/c =  0.3201   67
 Side 2 forced transition at x/c =  1.0000   60

   1   rms: 0.6297E-01   max: -.7983E-01   D at   73  2   RLX: 0.851
       a = 14.250      CL =  1.5753
[...]

 Side 1  free  transition at x/c =  0.3127   66
 Side 2 forced transition at x/c =  1.0000   60

   2   rms: 0.4751E+00   max: -.8435E+01   T at    2  2   RLX: 0.059
       a = 14.500      CL =  1.4935
      Cm = -0.0149     CD =  0.04713   =>   CDf =  0.00595    CDp =  0.04117

 Side 1  free  transition at x/c =  0.3125   66
 Side 2 forced transition at x/c =  1.0000   60

   3   rms: 0.6094E-01   max: 0.3029E+00   D at   85  1
       a = 14.500      CL =  1.4450
      Cm = -0.0142     CD =  0.05231   =>   CDf =  0.00594    CDp =  0.04637

 Side 1  free  transition at x/c =  0.3094   66
 Side 2 forced transition at x/c =  1.0000   60

   4   rms: 0.4728E-02   max: 0.6167E-01   D at   83  1
       a = 14.500      CL =  1.4441
      Cm = -0.0143     CD =  0.05194   =>   CDf =  0.00579    CDp =  0.04615

 Side 1  free  transition at x/c =  0.3091   66
 Side 2 forced transition at x/c =  1.0000   60

   5   rms: 0.1583E-02   max: -.6868E-02   D at   83  1
       a = 14.500      CL =  1.4454
      Cm = -0.0143     CD =  0.05177   =>   CDf =  0.00578    CDp =  0.04599

 Side 1  free  transition at x/c =  0.3092   66
 Side 2 forced transition at x/c =  1.0000   60

   6   rms: 0.3857E-03   max: -.1290E-02   D at   80  1
       a = 14.500      CL =  1.4458
      Cm = -0.0143     CD =  0.05175   =>   CDf =  0.00578    CDp =  0.04597

 Side 1  free  transition at x/c =  0.3092   66
 Side 2 forced transition at x/c =  1.0000   60

   7   rms: 0.8550E-04   max: -.2872E-03   D at   79  1
       a = 14.500      CL =  1.4459
      Cm = -0.0143     CD =  0.05175   =>   CDf =  0.00578    CDp =  0.04597
 plradd ia,ip,cpol           48           0  1.26471873E-02

 Point added to stored polar  1
 Point written to save file  goe770_Re200k.base.pol                          
 Dump file unspecified or not available
 Calculating wake trajectory ...
 Calculating source influence matrix ...

 Solving BL system ...

 Side 1  free  transition at x/c =  0.3092   66
 Side 2 forced transition at x/c =  1.0000   60

   1   rms: 0.5481E-01   max: 0.2381E+00   D at   80  1   RLX: 0.611
       a = 14.750      CL =  1.4261
      Cm = -0.0142     CD =  0.05549   =>   CDf =  0.00579    CDp =  0.04970

 Side 1  free  transition at x/c =  0.3053   66
 Side 2 forced transition at x/c =  1.0000   60

   2   rms: 0.6313E-01   max: -.1992E+00   D at   80  1
       a = 14.750      CL =  1.4798
      Cm = -0.0139     CD =  0.04971   =>   CDf =  0.00544    CDp =  0.04427

 Side 1  free  transition at x/c =  0.3057   67
 Side 2 forced transition at x/c =  1.0000   59

   3   rms: 0.3555E-02   max: -.2643E-01   D at   80  1
       a = 14.750      CL =  1.4813
      Cm = -0.0143     CD =  0.05050   =>   CDf =  0.00581    CDp =  0.04468

 Side 1  free  transition at x/c =  0.3053   67
 Side 2 forced transition at x/c =  1.0000   59

   4   rms: 0.6820E-03   max: -.6750E-02   D at    4  1
       a = 14.750      CL =  1.4816
      Cm = -0.0143     CD =  0.05048   =>   CDf =  0.00582    CDp =  0.04465

 Side 1  free  transition at x/c =  0.3053   67
 Side 2 forced transition at x/c =  1.0000   59

   5   rms: 0.6490E-04   max: -.2089E-03   D at   71  2
       a = 14.750      CL =  1.4817
      Cm = -0.0143     CD =  0.05048   =>   CDf =  0.00582    CDp =  0.04465
 plradd ia,ip,cpol           49           0  1.26471873E-02

 Point added to stored polar  1
 Point written to save file  goe770_Re200k.base.pol                          
 Dump file unspecified or not available
 Calculating wake trajectory ...
 Calculating source influence matrix ...

 Solving BL system ...

 Side 1  free  transition at x/c =  0.3053   67
 Side 2 forced transition at x/c =  1.0000   59

   1   rms: 0.6047E-01   max: -.1425E+00   D at   80  1   RLX: 0.686
       a = 15.000      CL =  1.5173
      Cm = -0.0143     CD =  0.04827   =>   CDf =  0.00583    CDp =  0.04244

 Side 1  free  transition at x/c =  0.3029   67
 Side 2 forced transition at x/c =  1.0000   59

   2   rms: 0.3389E-01   max: -.9665E-01   D at   81  1
       a = 15.000      CL =  1.5460
      Cm = -0.0145     CD =  0.04640   =>   CDf =  0.00592    CDp =  0.04048

 Side 1  free  transition at x/c =  0.3019   67
 Side 2 forced transition at x/c =  1.0000   59

   3   rms: 0.3928E-02   max: -.1946E-01   D at   82  1
       a = 15.000      CL =  1.5491
      Cm = -0.0147     CD =  0.04648   =>   CDf =  0.00599    CDp =  0.04049

 Side 1  free  transition at x/c =  0.3018   67
 Side 2 forced transition at x/c =  1.0000   59

   4   rms: 0.3713E-03   max: -.1297E-02   D at   70  2
       a = 15.000      CL =  1.5494
      Cm = -0.0147     CD =  0.04649   =>   CDf =  0.00600    CDp =  0.04049

 Side 1  free  transition at x/c =  0.3018   67
 Side 2 forced transition at x/c =  1.0000   59

   5   rms: 0.3354E-04   max: -.1183E-03   D at   71  2
       a = 15.000      CL =  1.5495
      Cm = -0.0147     CD =  0.04649   =>   CDf =  0.00600    CDp =  0.04049
 plradd ia,ip,cpol           50           0  1.26471873E-02

 Point added to stored polar  1
 Point written to save file  goe770_Re200k.base.pol                          
 Dump file unspecified or not available
 Calculating wake trajectory ...
 Calculating source influence matrix ...

 Solving BL system ...

 Side 1  free  transition at x/c =  0.3018   67
 Side 2 forced transition at x/c =  1.0000   59

   1   rms: 0.7555E-01   max: -.1928E+00   D at   82  1   RLX: 0.738
       a = 15.250      CL =  1.5986
      Cm = -0.0150     CD =  0.04349   =>   CDf =  0.00569    CDp =  0.03780

 Side 1  free  transition at x/c =  0.2992   67
 Side 2 forced transition at x/c =  1.0000   58
 idif Ue xi dudx           1  7.84429759E-02  6.33287430E-03   12.386631    
 Uenew xinew           2  1.84486583E-02  1.48940086E-03

   2   rms: 0.1256E+00   max: 0.5159E+00   D at   88  1
       a = 15.250      CL =  1.4998
      Cm = -0.0138     CD =  0.05370   =>   CDf =  0.00636    CDp =  0.04734

 Side 1  free  transition at x/c =  0.2968   66
 Side 2 forced transition at x/c =  1.0000   59

   3   rms: 0.1033E+00   max: 0.5154E+00   D at   84  1
       a = 15.250      CL =  1.4189
      Cm = -0.0140     CD =  0.06260   =>   CDf =  0.00576    CDp =  0.05683

 Side 1  free  transition at x/c =  0.2937   66
 Side 2 forced transition at x/c =  1.0000   59
 idif Ue xi dudx           3  0.18822403      1.35315657E-02   13.909997    
 Uenew xinew           4  0.12525553      9.00471210E-03

   4   rms: 0.7352E+00   max: 0.2863E+01   D at   80  1   RLX: 0.524
       a = 15.250      CL =  1.1157
      Cm = -0.0199     CD =  0.10352   =>   CDf =  0.00639    CDp =  0.09714

 MRCHDU: Convergence failed at  69  side 1    Res =  0.1616E+01
 MRCHDU: Convergence failed at  70  side 1    Res =  0.2298E+01
 MRCHDU: Convergence failed at  71  side 1    Res =  0.7430E+01
 MRCHDU: Convergence failed at  72  side 1    Res =  0.5061E+01
 MRCHDU: Convergence failed at  73  side 1    Res =  0.1921E+01
 MRCHDU: Convergence failed at  74  side 1    Res =  0.8509E+01
 MRCHDU: Convergence failed at  75  side 1    Res =  0.1752E+01
 Side 1  free  transition at x/c =  0.2836   62
 Side 2 forced transition at x/c =  1.0000   62

   5   rms: 0.1642E+00   max: 0.1219E+01   D at   75  1
       a = 15.250      CL =  1.2557
      Cm = -0.0168     CD =  0.08010   =>   CDf =  0.00525    CDp =  0.07485

 Side 1  free  transition at x/c =  0.2762   63
 Side 2 forced transition at x/c =  1.0000   61

   6   rms: 0.5265E+00   max: -.2075E+01   D at   71  1   RLX: 0.221
       a = 15.250      CL =  1.3620
      Cm = -0.0218     CD =  0.06688   =>   CDf =  0.00501    CDp =  0.06187

 Side 1  free  transition at x/c =  0.2913   65
 Side 2 forced transition at x/c =  1.0000   60

   7   rms: 0.7081E-01   max: -.3389E+00   D at   72  1
       a = 15.250      CL =  1.4033
      Cm = -0.0135     CD =  0.06132   =>   CDf =  0.00545    CDp =  0.05587

 Side 1  free  transition at x/c =  0.2932   65
 Side 2 forced transition at x/c =  1.0000   60

   8   rms: 0.2649E+01   max: -.1049E+02   D at   76  1   RLX: 0.048
       a = 15.250      CL =  1.5143
      Cm = -0.0146     CD =  0.04939   =>   CDf =  0.00522    CDp =  0.04417

 Side 1  free  transition at x/c =  0.2999   66
 Side 2 forced transition at x/c =  1.0000   59
 idif Ue xi dudx           2  0.14873835      1.07855797E-02   13.790483    
 Uenew xinew           3  8.63108560E-02  6.25872612E-03

   9   rms: 0.5469E+00   max: 0.2215E+01   D at   81  1   RLX: 0.677
       a = 15.250      CL =  1.2014
      Cm = -0.0148     CD =  0.08839   =>   CDf =  0.00641    CDp =  0.08198

 MRCHDU: Convergence failed at  71  side 1    Res =  0.8443E+00
 MRCHDU: Convergence failed at  72  side 1    Res =  0.1320E+01
 MRCHDU: Convergence failed at  73  side 1    Res =  0.2539E+01
 MRCHDU: Convergence failed at  74  side 1    Res =  0.8066E+01
 MRCHDU: Convergence failed at  75  side 1    Res =  0.6077E+01
 MRCHDU: Convergence failed at  76  side 1    Res =  0.2254E+01
 MRCHDU: Convergence failed at  77  side 1    Res =  0.4249E+01
 MRCHDU: Convergence failed at  78  side 1    Res =  0.4569E+01
 MRCHDU: Convergence failed at  79  side 1    Res =  0.2292E+01
 MRCHDU: Convergence failed at  80  side 1    Res =  0.3299E+01
 Side 1  free  transition at x/c =  0.2922   64
 Side 2 forced transition at x/c =  1.0000   61

  10   rms: 0.2721E+00   max: 0.1137E+01   D at   80  1   RLX: 0.723
       a = 15.250      CL =  1.4501
      Cm = -0.0373     CD =  0.05947   =>   CDf =  0.00530    CDp =  0.05417

 Side 1  free  transition at x/c =  0.2977   65
 Side 2 forced transition at x/c =  1.0000   60

  11   rms: 0.2228E+00   max: -.7507E+00   D at   71  1   RLX: 0.666
       a = 15.250      CL =  1.5576
      Cm = -0.0185     CD =  0.04552   =>   CDf =  0.00548    CDp =  0.04003

 Side 1  free  transition at x/c =  0.3000   66
 Side 2 forced transition at x/c =  1.0000   59

  12   rms: 0.6142E-01   max: 0.5787E+00   D at   81  1
       a = 15.250      CL =  1.5089
      Cm = -0.0136     CD =  0.05246   =>   CDf =  0.00593    CDp =  0.04653

 Side 1  free  transition at x/c =  0.2961   66
 Side 2 forced transition at x/c =  1.0000   59

  13   rms: 0.8144E-01   max: 0.3345E+00   D at   83  1
       a = 15.250      CL =  1.4419
      Cm = -0.0141     CD =  0.05986   =>   CDf =  0.00576    CDp =  0.05410

 Side 1  free  transition at x/c =  0.2942   66
 Side 2 forced transition at x/c =  1.0000   59
 idif Ue xi dudx           1  0.10091162      7.39192963E-03   13.651593    
 Uenew xinew           2  3.91128547E-02  2.86507607E-03

  14   rms: 0.1620E+00   max: 0.6536E+00   D at   81  1
       a = 15.250      CL =  1.3095
      Cm = -0.0153     CD =  0.07604   =>   CDf =  0.00590    CDp =  0.07014

 Side 1  free  transition at x/c =  0.2882   65
 Side 2 forced transition at x/c =  1.0000   60

  15   rms: 0.4717E-01   max: -.2321E+00   D at   73  1
       a = 15.250      CL =  1.3493
      Cm = -0.0140     CD =  0.06795   =>   CDf =  0.00544    CDp =  0.06251

 Side 1  free  transition at x/c =  0.2896   65
 Side 2 forced transition at x/c =  1.0000   60

  16   rms: 0.1881E-01   max: -.9310E-01   D at   73  1
       a = 15.250      CL =  1.3655
      Cm = -0.0141     CD =  0.06694   =>   CDf =  0.00547    CDp =  0.06148

 Side 1  free  transition at x/c =  0.2900   65
 Side 2 forced transition at x/c =  1.0000   60

  17   rms: 0.3505E-02   max: -.1601E-01   D at   74  1
       a = 15.250      CL =  1.3686
      Cm = -0.0142     CD =  0.06693   =>   CDf =  0.00549    CDp =  0.06145

 Side 1  free  transition at x/c =  0.2901   65
 Side 2 forced transition at x/c =  1.0000   60

  18   rms: 0.7580E-03   max: -.2614E-02   D at   74  1
       a = 15.250      CL =  1.3692
      Cm = -0.0142     CD =  0.06691   =>   CDf =  0.00549    CDp =  0.06142

 Side 1  free  transition at x/c =  0.2901   65
 Side 2 forced transition at x/c =  1.0000   60

  19   rms: 0.1675E-03   max: -.5685E-03   D at   75  1
       a = 15.250      CL =  1.3694
      Cm = -0.0142     CD =  0.06691   =>   CDf =  0.00549    CDp =  0.06141

 Side 1  free  transition at x/c =  0.2901   65
 Side 2 forced transition at x/c =  1.0000   60

  20   rms: 0.3333E-04   max: -.1126E-03   D at   76  1
       a = 15.250      CL =  1.3694
      Cm = -0.0142     CD =  0.06691   =>   CDf =  0.00549    CDp =  0.06141
 plradd ia,ip,cpol           51           0  1.26471873E-02

 Point added to stored polar  1
 Point written to save file  goe770_Re200k.base.pol                          
 Dump file unspecified or not available
 Calculating wake trajectory ...
 Calculating source influence matrix ...

 Solving BL system ...

 Side 1  free  transition at x/c =  0.2901   65
 Side 2 forced transition at x/c =  1.0000   60

   1   rms: 0.8421E-01   max: -.2654E+00   D at   74  1   RLX: 0.567
       a = 15.500      CL =  1.4105
      Cm = -0.0136     CD =  0.06289   =>   CDf =  0.00520    CDp =  0.05768

 Side 1  free  transition at x/c =  0.2896   66
 Side 2 forced transition at x/c =  1.0000   59

   2   rms: 0.4095E-01   max: -.1385E+00   D at   76  1
       a = 15.500      CL =  1.4453
      Cm = -0.0135     CD =  0.06023   =>   CDf =  0.00554    CDp =  0.05469

 Side 1  free  transition at x/c =  0.2888   66
 Side 2 forced transition at x/c =  1.0000   59

   3   rms: 0.6294E-02   max: -.3287E-01   D at   77  1
       a = 15.500      CL =  1.4505
      Cm = -0.0137     CD =  0.06019   =>   CDf =  0.00559    CDp =  0.05460

 Side 1  free  transition at x/c =  0.2887   66
 Side 2 forced transition at x/c =  1.0000   59

   4   rms: 0.7270E-03   max: -.2854E-02   D at   72  2
       a = 15.500      CL =  1.4512
      Cm = -0.0137     CD =  0.06022   =>   CDf =  0.00560    CDp =  0.05462

 Side 1  free  transition at x/c =  0.2887   66
 Side 2 forced transition at x/c =  1.0000   59

   5   rms: 0.9149E-04   max: -.3121E-03   D at   72  2
       a = 15.500      CL =  1.4512
      Cm = -0.0137     CD =  0.06022   =>   CDf =  0.00560    CDp =  0.05463
 plradd ia,ip,cpol           52           0  1.26471873E-02

 Point added to stored polar  1
 Point written to save file  goe770_Re200k.base.pol                          
 Dump file unspecified or not available
 Calculating wake trajectory ...
 Calculating source influence matrix ...

 Solving BL system ...

 Side 1  free  transition at x/c =  0.2887   66
 Side 2 forced transition at x/c =  1.0000   59

   1   rms: 0.6962E-01   max: -.1953E+00   D at   77  1   RLX: 0.593
       a = 15.750      CL =  1.4864
      Cm = -0.0134     CD =  0.05738   =>   CDf =  0.00561    CDp =  0.05177

 Side 1  free  transition at x/c =  0.2870   66
 Side 2 forced transition at x/c =  1.0000   59

   2   rms: 0.3832E-01   max: -.1209E+00   D at   78  1
       a = 15.750      CL =  1.5191
      Cm = -0.0134     CD =  0.05493   =>   CDf =  0.00536    CDp =  0.04958

 Side 1  free  transition at x/c =  0.2858   67
 Side 2 forced transition at x/c =  1.0000   58

   3   rms: 0.3796E-02   max: -.2200E-01   D at    3  1
       a = 15.750      CL =  1.5216
      Cm = -0.0136     CD =  0.05518   =>   CDf =  0.00574    CDp =  0.04944

 Side 1  free  transition at x/c =  0.2857   67
 Side 2 forced transition at x/c =  1.0000   58

   4   rms: 0.6641E-03   max: -.6346E-02   D at    4  1
       a = 15.750      CL =  1.5220
      Cm = -0.0136     CD =  0.05519   =>   CDf =  0.00576    CDp =  0.04943

 Side 1  free  transition at x/c =  0.2857   67
 Side 2 forced transition at x/c =  1.0000   58

   5   rms: 0.3601E-04   max: -.1547E-03   D at   71  2
       a = 15.750      CL =  1.5220
      Cm = -0.0136     CD =  0.05519   =>   CDf =  0.00576    CDp =  0.04944
 plradd ia,ip,cpol           53           0  1.04844943E-02

 Point added to stored polar  1
 Point written to save file  goe770_Re200k.base.pol                          
 Dump file unspecified or not available
 Calculating wake trajectory ...
 Calculating source influence matrix ...

 Solving BL system ...

 Side 1  free  transition at x/c =  0.2857   67
 Side 2 forced transition at x/c =  1.0000   58

   1   rms: 0.7597E-01   max: -.2117E+00   D at   80  1   RLX: 0.628
       a = 16.000      CL =  1.5632
      Cm = -0.0133     CD =  0.05203   =>   CDf =  0.00577    CDp =  0.04627

 Side 1  free  transition at x/c =  0.2836   66
 Side 2 forced transition at x/c =  1.0000   58
 idif Ue xi dudx           1  7.75768906E-02  6.25836849E-03   12.395705    
 Uenew xinew           2  1.75386220E-02  1.41489506E-03

   2   rms: 0.1804E+00   max: 0.7385E+00   D at   83  1
       a = 16.000      CL =  1.4205
      Cm = -0.0145     CD =  0.07003   =>   CDf =  0.00613    CDp =  0.06390

 Side 1  free  transition at x/c =  0.2786   65
 Side 2 forced transition at x/c =  1.0000   59

   3   rms: 0.3668E+01   max: -.1487E+02   D at   79  1   RLX: 0.034
       a = 16.000      CL =  1.5314
      Cm = -0.0137     CD =  0.05379   =>   CDf =  0.00514    CDp =  0.04865

 Side 1  free  transition at x/c =  0.2854   67
 Side 2 forced transition at x/c =  1.0000   58

   4   rms: 0.7890E-01   max: -.4016E+00   D at   77  1
       a = 16.000      CL =  1.5869
      Cm = -0.0132     CD =  0.04946   =>   CDf =  0.00572    CDp =  0.04374

 Side 1  free  transition at x/c =  0.2823   66
 Side 2 forced transition at x/c =  1.0000   58
 idif Ue xi dudx           1  6.22211508E-02  5.08260727E-03   12.241975    
 Uenew xinew           2  2.92747049E-03  2.39133835E-04

   5   rms: 0.1568E+00   max: 0.6519E+00   D at   84  1
       a = 16.000      CL =  1.4582
      Cm = -0.0143     CD =  0.06589   =>   CDf =  0.00611    CDp =  0.05978

 Side 1  free  transition at x/c =  0.2791   65
 Side 2 forced transition at x/c =  1.0000   59

   6   rms: 0.3700E+00   max: -.2360E+01   T at    2  2   RLX: 0.212
       a = 16.000      CL =  1.4051
      Cm = -0.0168     CD =  0.07222   =>   CDf =  0.00550    CDp =  0.06672

 Side 1  free  transition at x/c =  0.2760   65
 Side 2 forced transition at x/c =  1.0000   59

   7   rms: 0.7241E-01   max: 0.3696E+00   D at   79  1
       a = 16.000      CL =  1.3440
      Cm = -0.0160     CD =  0.07970   =>   CDf =  0.00539    CDp =  0.07431

 Side 1  free  transition at x/c =  0.2713   65
 Side 2 forced transition at x/c =  1.0000   59

   8   rms: 0.2941E-01   max: -.1376E+00   D at   79  1
       a = 16.000      CL =  1.3647
      Cm = -0.0147     CD =  0.07442   =>   CDf =  0.00535    CDp =  0.06907

 Side 1  free  transition at x/c =  0.2730   65
 Side 2 forced transition at x/c =  1.0000   59

   9   rms: 0.1341E-01   max: -.5028E-01   D at   74  1
       a = 16.000      CL =  1.3758
      Cm = -0.0147     CD =  0.07353   =>   CDf =  0.00536    CDp =  0.06817

 Side 1  free  transition at x/c =  0.2735   65
 Side 2 forced transition at x/c =  1.0000   59

  10   rms: 0.3464E-02   max: -.1271E-01   D at   74  1
       a = 16.000      CL =  1.3789
      Cm = -0.0148     CD =  0.07342   =>   CDf =  0.00537    CDp =  0.06805

 Side 1  free  transition at x/c =  0.2736   65
 Side 2 forced transition at x/c =  1.0000   59

  11   rms: 0.6553E-03   max: -.2131E-02   D at   74  1
       a = 16.000      CL =  1.3795
      Cm = -0.0148     CD =  0.07342   =>   CDf =  0.00537    CDp =  0.06805

 Side 1  free  transition at x/c =  0.2736   65
 Side 2 forced transition at x/c =  1.0000   59

  12   rms: 0.1124E-03   max: -.3693E-03   D at   75  1
       a = 16.000      CL =  1.3796
      Cm = -0.0148     CD =  0.07342   =>   CDf =  0.00537    CDp =  0.06805

 Side 1  free  transition at x/c =  0.2736   65
 Side 2 forced transition at x/c =  1.0000   59

  13   rms: 0.1593E-04   max: -.5485E-04   D at   74  2
       a = 16.000      CL =  1.3796
      Cm = -0.0148     CD =  0.07342   =>   CDf =  0.00537    CDp =  0.06805
 plradd ia,ip,cpol           54           0  1.26471873E-02

 Point added to stored polar  1
 Point written to save file  goe770_Re200k.base.pol                          
 Dump file unspecified or not available

.OPERva   c>  
 Polar accumulation disabled

.OPERv   c>  
 XFOIL   c>  
 XFOIL   c>  