  
       XFOIL         Version 6.99
  
 Calculated polar for: GOE 711 AIRFOIL                                 
  
 1 1 Reynolds number fixed          Mach number fixed         
  
 xtrf =   1.000 (top)        1.000 (bottom)  
 Mach =   0.000     Re =     0.200 e 6     Ncrit =   9.000
  
   alpha    CL        CD       CDp       CM     Top_Xtr  Bot_Xtr
  ------ -------- --------- --------- -------- -------- --------
-3.500   0.2659   0.03120   0.02577  -0.1363   0.8515   0.1071
-3.000   0.3233   0.02781   0.02213  -0.1375   0.8336   0.1278
-1.500   0.5159   0.01856   0.01074  -0.1381   0.7629   0.0801
-1.000   0.5733   0.01725   0.00891  -0.1373   0.7321   0.0740
-0.500   0.6276   0.01634   0.00774  -0.1366   0.6996   0.0737
0.000   0.6793   0.01559   0.00689  -0.1357   0.6654   0.0779
0.500   0.7303   0.01530   0.00642  -0.1347   0.6309   0.0830
1.000   0.7807   0.01520   0.00608  -0.1337   0.5965   0.0927
1.500   0.8250   0.01326   0.00614  -0.1312   0.5649   1.0000
2.000   0.8733   0.01384   0.00626  -0.1299   0.5349   1.0000
2.500   0.9209   0.01446   0.00653  -0.1287   0.5072   1.0000
3.000   0.9687   0.01510   0.00692  -0.1276   0.4830   1.0000
3.500   1.0168   0.01577   0.00736  -0.1266   0.4625   1.0000
4.000   1.0649   0.01646   0.00787  -0.1257   0.4447   1.0000
4.500   1.1131   0.01717   0.00844  -0.1249   0.4289   1.0000
5.000   1.1618   0.01792   0.00909  -0.1243   0.4155   1.0000
5.500   1.2112   0.01871   0.00978  -0.1238   0.4038   1.0000
6.000   1.2604   0.01953   0.01046  -0.1234   0.3918   1.0000
6.500   1.3023   0.02021   0.01123  -0.1216   0.3802   1.0000
7.000   1.3484   0.02106   0.01209  -0.1206   0.3704   1.0000
7.500   1.3951   0.02191   0.01290  -0.1199   0.3609   1.0000
8.000   1.4329   0.02273   0.01387  -0.1175   0.3514   1.0000
8.500   1.4794   0.02369   0.01480  -0.1168   0.3430   1.0000
9.000   1.5045   0.02451   0.01581  -0.1120   0.3333   1.0000
9.500   1.5283   0.02549   0.01690  -0.1073   0.3220   1.0000
10.000   1.5552   0.02656   0.01799  -0.1035   0.3112   1.0000
10.250   1.5635   0.02719   0.01879  -0.1008   0.3060   1.0000
10.500   1.5739   0.02782   0.01949  -0.0986   0.3006   1.0000
10.750   1.5846   0.02853   0.02022  -0.0965   0.2948   1.0000
11.000   1.5911   0.02934   0.02118  -0.0939   0.2886   1.0000
11.250   1.6000   0.03017   0.02202  -0.0918   0.2828   1.0000
11.500   1.6078   0.03111   0.02312  -0.0896   0.2767   1.0000
11.750   1.6149   0.03213   0.02423  -0.0875   0.2702   1.0000
12.000   1.6220   0.03325   0.02540  -0.0855   0.2640   1.0000
12.250   1.6271   0.03452   0.02682  -0.0835   0.2553   1.0000
12.500   1.6304   0.03601   0.02838  -0.0814   0.2457   1.0000
12.750   1.6308   0.03782   0.03020  -0.0793   0.2353   1.0000
13.000   1.6333   0.03967   0.03216  -0.0776   0.2225   1.0000
13.250   1.6299   0.04216   0.03464  -0.0757   0.2059   1.0000
13.500   1.6221   0.04523   0.03768  -0.0738   0.1825   1.0000
13.750   1.6035   0.04959   0.04190  -0.0716   0.1545   1.0000
14.000   1.5799   0.05479   0.04698  -0.0698   0.1304   1.0000
14.250   1.5549   0.06048   0.05262  -0.0684   0.1106   1.0000
14.500   1.5285   0.06667   0.05879  -0.0676   0.0705   1.0000
14.750   1.4994   0.07356   0.06566  -0.0674   0.0612   1.0000
15.000   1.4753   0.08010   0.07230  -0.0676   0.0560   1.0000
15.250   1.4551   0.08633   0.07868  -0.0681   0.0509   1.0000
15.500   1.4346   0.09279   0.08531  -0.0688   0.0471   1.0000
15.750   1.4196   0.09854   0.09122  -0.0697   0.0424   1.0000
16.000   1.4034   0.10458   0.09740  -0.0708   0.0392   1.0000
