
 ===================================================
  XFOIL Version 6.99
  Copyright (C) 2000   Mark Drela, Harold Youngren

  This software comes with ABSOLUTELY NO WARRANTY,
    subject to the GNU General Public License.

  Caveat computor
 ===================================================

 File  xfoil.def  not found

   QUIT    Exit program

  .OPER    Direct operating point(s)
  .MDES    Complex mapping design routine
  .QDES    Surface speed design routine
  .GDES    Geometry design routine

   SAVE f  Write airfoil to labeled coordinate file
   PSAV f  Write airfoil to plain coordinate file
   ISAV f  Write airfoil to ISES coordinate file
   MSAV f  Write airfoil to MSES coordinate file
   REVE    Reverse written-airfoil node ordering

   LOAD f  Read buffer airfoil from coordinate file
   NACA i  Set NACA 4,5-digit airfoil and buffer airfoil
   INTE    Set buffer airfoil by interpolating two airfoils
   NORM    Buffer airfoil normalization toggle
   XYCM rr Change CM reference location, currently  0.25000 0.00000

   BEND    Display structural properties of current airfoil

   PCOP    Set current-airfoil panel nodes directly from buffer airfoil points
   PANE    Set current-airfoil panel nodes ( 160 ) based on curvature
  .PPAR    Show/change paneling

  .PLOP    Plotting options

   WDEF f  Write  current-settings file
   RDEF f  Reread current-settings file
   NAME s  Specify new airfoil name
   NINC    Increment name version number

   Z       Zoom    | (available in all menus)
   U       Unzoom  | 

 XFOIL   c>  
 Labeled airfoil file.  Name:  GOE 766 AIRFOIL                                 

 Number of input coordinate points:  33
 Counterclockwise ordering
 Max thickness =     0.120096  at x =   0.250
 Max camber    =     0.012644  at x =   0.200

  LE  x,y  =  -0.00022   0.00277  |   Chord =   1.00023
  TE  x,y  =   1.00000   0.00000  |

 Current airfoil nodes set from buffer airfoil nodes (  33 )

 WARNING: Poor input coordinate distribution
          Excessive panel angle   61.7  at i =  17
          Repaneling with PANE and/or PPAR suggested
           (doing GDES,CADD before repaneling _may_
            improve excessively coarse LE spacing

 XFOIL   c>  
 XFOIL   c>  
 Sharp trailing edge

 Paneling parameters used...
   Number of panel nodes       160
   Panel bunching parameter    1.000
   TE/LE panel density ratio   0.150
   Refined-area/LE panel density ratio    0.200
   Top    side refined area x/c limits  1.000 1.000
   Bottom side refined area x/c limits  1.000 1.000

 XFOIL   c>  
.OPERi   c>  
 Xtr/c     =  1.0000    top    side
 Xtr/c     =  1.0000    bottom side
 Ncrit     =    9.00   ( 0.070 % turb. level )
 Vacc      =  0.0100

 Klag  =  5.6000     Uxwt  =    1.00
 A     =  6.7000     B     =  0.7500       KCt = 0.01485
 CtiniK=  1.8000     CtiniX=  3.3000

..VPAR   c>  
..VPAR   c>  
.OPERi   c>  
 M  =    0.0000
 Re =    600000

.OPERv   c>  
.OPERv   c>  
.OPERv   c>  
 Polar  1 newly created for accumulation
 Airfoil archived with polar: GOE 766 AIRFOIL                                 

Enter  polar save filename  OR  <return> for no file   s>  
 New polar save file available

Enter  polar dump filename  OR  <return> for no file   s>  
 Polar dump file will NOT be written

 Polar accumulation enabled

.OPERva   c>   Calculating unit vorticity distributions ...
 Calculating wake trajectory ...
 Calculating source influence matrix ...

 Solving BL system ...

 Initializing BL ...
    side            1  ...
 MRCHUE: Inverse mode at  63     Hk =   3.832
 MRCHUE: Inverse mode at  64     Hk =   4.395
 MRCHUE: Inverse mode at  65     Hk =   2.810
 MRCHUE: Inverse mode at  74     Hk =   2.500
    side            2  ...
 MRCHUE: Inverse mode at  24     Hk =   3.982
 MRCHUE: Inverse mode at  25     Hk =   5.002
 MRCHUE: Inverse mode at  26     Hk =   6.032
 MRCHUE: Inverse mode at  27     Hk =   7.107
 MRCHUE: Inverse mode at  28     Hk =   8.260
 MRCHUE: Inverse mode at  29     Hk =   9.522
 MRCHUE: Inverse mode at  30     Hk =   6.056
 MRCHUE: Inverse mode at  31     Hk =   2.500
 MRCHUE: Inverse mode at  88     Hk =   2.500

 Side 1  free  transition at x/c =  0.8632   65
 Side 2  free  transition at x/c =  0.0541   30

   1   rms: 0.1411E+00   max: -.1081E+01   C at   65  1   RLX: 0.463
       a = -4.000      CL = -0.3797
      Cm = -0.0011     CD =  0.00897   =>   CDf =  0.00660    CDp =  0.00237

 Side 1  free  transition at x/c =  0.8736   67
 Side 2  free  transition at x/c =  0.0584   30

   2   rms: 0.2204E+00   max: -.1097E+01   D at   30  2   RLX: 0.456
       a = -4.000      CL = -0.3756
      Cm = -0.0011     CD =  0.00870   =>   CDf =  0.00651    CDp =  0.00220

 Side 1  free  transition at x/c =  0.8879   67
 Side 2  free  transition at x/c =  0.0709   31

   3   rms: 0.5665E-01   max: -.5410E+00   C at   67  1   RLX: 0.924
       a = -4.000      CL = -0.3398
      Cm = -0.0079     CD =  0.00944   =>   CDf =  0.00636    CDp =  0.00309

 Side 1  free  transition at x/c =  0.9061   68
 Side 2  free  transition at x/c =  0.0757   31

   4   rms: 0.9794E-02   max: 0.7690E-01   D at   31  2
       a = -4.000      CL = -0.3300
      Cm = -0.0098     CD =  0.00947   =>   CDf =  0.00625    CDp =  0.00323

 Side 1  free  transition at x/c =  0.9078   68
 Side 2  free  transition at x/c =  0.0762   31

   5   rms: 0.2463E-03   max: 0.2704E-02   C at   31  2
       a = -4.000      CL = -0.3298
      Cm = -0.0099     CD =  0.00947   =>   CDf =  0.00623    CDp =  0.00324

 Side 1  free  transition at x/c =  0.9077   68
 Side 2  free  transition at x/c =  0.0762   31

   6   rms: 0.1635E-05   max: 0.8408E-05   C at   31  2
       a = -4.000      CL = -0.3298
      Cm = -0.0099     CD =  0.00947   =>   CDf =  0.00623    CDp =  0.00324
 plradd ia,ip,cpol            1           0  1.40257617E-02

 Point added to stored polar  1
 Point written to save file  goe766_Re600k.base.pol                          
 Dump file unspecified or not available
 Calculating wake trajectory ...
 Calculating source influence matrix ...

 Solving BL system ...

 Side 1  free  transition at x/c =  0.9077   68
 Side 2  free  transition at x/c =  0.0762   31

   1   rms: 0.1106E+00   max: 0.9108E+00   C at   68  1   RLX: 0.927
       a = -3.500      CL = -0.2777
      Cm = -0.0094     CD =  0.00905   =>   CDf =  0.00628    CDp =  0.00277

 MRCHDU: Convergence failed at  35  side 2    Res =  0.7195E+00
 Side 1  free  transition at x/c =  0.7954   63
 Side 2  free  transition at x/c =  0.1432   35

   2   rms: 0.4114E-01   max: 0.5101E+00   D at   30  2
       a = -3.500      CL = -0.2801
      Cm = -0.0079     CD =  0.00899   =>   CDf =  0.00632    CDp =  0.00267

 Side 1  free  transition at x/c =  0.8003   63
 Side 2  free  transition at x/c =  0.1408   35

   3   rms: 0.2249E-01   max: -.3497E+00   C at   35  2
       a = -3.500      CL = -0.2805
      Cm = -0.0079     CD =  0.00895   =>   CDf =  0.00623    CDp =  0.00272

 Side 1  free  transition at x/c =  0.7992   63
 Side 2  free  transition at x/c =  0.1300   35

   4   rms: 0.3741E-02   max: -.6770E-01   D at   35  2
       a = -3.500      CL = -0.2795
      Cm = -0.0080     CD =  0.00906   =>   CDf =  0.00628    CDp =  0.00279

 Side 1  free  transition at x/c =  0.7988   63
 Side 2  free  transition at x/c =  0.1282   34

   5   rms: 0.1948E-03   max: -.3100E-02   D at   35  2
       a = -3.500      CL = -0.2795
      Cm = -0.0080     CD =  0.00906   =>   CDf =  0.00629    CDp =  0.00277

 Side 1  free  transition at x/c =  0.7988   63
 Side 2  free  transition at x/c =  0.1281   34

   6   rms: 0.3185E-05   max: 0.5569E-04   C at   63  1
       a = -3.500      CL = -0.2795
      Cm = -0.0080     CD =  0.00906   =>   CDf =  0.00629    CDp =  0.00277
 plradd ia,ip,cpol            2           0  1.68661382E-02

 Point added to stored polar  1
 Point written to save file  goe766_Re600k.base.pol                          
 Dump file unspecified or not available
 Calculating wake trajectory ...
 Calculating source influence matrix ...

 Solving BL system ...

 Side 1  free  transition at x/c =  0.7988   63
 Side 2  free  transition at x/c =  0.1281   34

   1   rms: 0.1786E+00   max: 0.3174E+01   C at   63  1   RLX: 0.473
       a = -3.000      CL = -0.2576
      Cm = -0.0067     CD =  0.00915   =>   CDf =  0.00629    CDp =  0.00286

 Side 1  free  transition at x/c =  0.7276   59
 Side 2  free  transition at x/c =  0.1607   37

   2   rms: 0.5811E-01   max: 0.8161E+00   C at   59  1
       a = -3.000      CL = -0.2347
      Cm = -0.0052     CD =  0.00902   =>   CDf =  0.00645    CDp =  0.00256

 Side 1  free  transition at x/c =  0.6774   56
 Side 2  free  transition at x/c =  0.1681   37

   3   rms: 0.1279E-01   max: -.1893E+00   C at   56  1
       a = -3.000      CL = -0.2351
      Cm = -0.0051     CD =  0.00911   =>   CDf =  0.00662    CDp =  0.00248

 Side 1  free  transition at x/c =  0.6826   57
 Side 2  free  transition at x/c =  0.1636   37

   4   rms: 0.1973E-02   max: -.3496E-01   C at   57  1
       a = -3.000      CL = -0.2349
      Cm = -0.0052     CD =  0.00910   =>   CDf =  0.00662    CDp =  0.00248

 Side 1  free  transition at x/c =  0.6827   57
 Side 2  free  transition at x/c =  0.1637   37

   5   rms: 0.1722E-04   max: 0.3013E-03   D at   58  1
       a = -3.000      CL = -0.2349
      Cm = -0.0052     CD =  0.00910   =>   CDf =  0.00662    CDp =  0.00249
 plradd ia,ip,cpol            3           0  1.68661382E-02

 Point added to stored polar  1
 Point written to save file  goe766_Re600k.base.pol                          
 Dump file unspecified or not available
 Calculating wake trajectory ...
 Calculating source influence matrix ...

 Solving BL system ...

 Side 1  free  transition at x/c =  0.6827   57
 Side 2  free  transition at x/c =  0.1637   37

   1   rms: 0.1454E+00   max: 0.2207E+01   C at   57  1   RLX: 0.680
       a = -2.500      CL = -0.2042
      Cm = -0.0035     CD =  0.00907   =>   CDf =  0.00664    CDp =  0.00243

 Side 1  free  transition at x/c =  0.6263   55
 Side 2  free  transition at x/c =  0.1760   36

   2   rms: 0.3782E-01   max: 0.3037E+00   C at   55  1
       a = -2.500      CL = -0.1854
      Cm = -0.0034     CD =  0.00926   =>   CDf =  0.00687    CDp =  0.00239

 Side 1  free  transition at x/c =  0.6058   53
 Side 2  free  transition at x/c =  0.1901   37

   3   rms: 0.2079E-01   max: -.3207E+00   C at   37  2
       a = -2.500      CL = -0.1865
      Cm = -0.0033     CD =  0.00906   =>   CDf =  0.00686    CDp =  0.00221

 Side 1  free  transition at x/c =  0.6074   53
 Side 2  free  transition at x/c =  0.2013   38

   4   rms: 0.6534E-02   max: -.1224E+00   C at   38  2
       a = -2.500      CL = -0.1872
      Cm = -0.0032     CD =  0.00900   =>   CDf =  0.00677    CDp =  0.00223

 Side 1  free  transition at x/c =  0.6075   53
 Side 2  free  transition at x/c =  0.2028   38

   5   rms: 0.8802E-03   max: 0.1915E-01   C at   38  2
       a = -2.500      CL = -0.1871
      Cm = -0.0032     CD =  0.00900   =>   CDf =  0.00675    CDp =  0.00225

 Side 1  free  transition at x/c =  0.6075   53
 Side 2  free  transition at x/c =  0.2024   38

   6   rms: 0.2372E-05   max: -.3233E-04   C at   38  2
       a = -2.500      CL = -0.1871
      Cm = -0.0032     CD =  0.00900   =>   CDf =  0.00676    CDp =  0.00225
 plradd ia,ip,cpol            4           0  1.68661382E-02

 Point added to stored polar  1
 Point written to save file  goe766_Re600k.base.pol                          
 Dump file unspecified or not available
 Calculating wake trajectory ...
 Calculating source influence matrix ...

 Solving BL system ...

 Side 1  free  transition at x/c =  0.6075   53
 Side 2  free  transition at x/c =  0.2024   38

   1   rms: 0.1435E+00   max: -.2214E+01   C at   38  2   RLX: 0.226
       a = -2.000      CL = -0.1760
      Cm = -0.0028     CD =  0.00892   =>   CDf =  0.00676    CDp =  0.00217

 Side 1  free  transition at x/c =  0.5909   53
 Side 2  free  transition at x/c =  0.2117   39

   2   rms: 0.1146E+00   max: -.1271E+01   C at   39  2   RLX: 0.393
       a = -2.000      CL = -0.1619
      Cm = -0.0021     CD =  0.00890   =>   CDf =  0.00682    CDp =  0.00208

 Side 1  free  transition at x/c =  0.5748   53
 Side 2  free  transition at x/c =  0.2276   39

   3   rms: 0.8956E-01   max: -.9157E+00   C at   39  2   RLX: 0.546
       a = -2.000      CL = -0.1497
      Cm = -0.0016     CD =  0.00880   =>   CDf =  0.00681    CDp =  0.00198

 Side 1  free  transition at x/c =  0.5637   52
 Side 2  free  transition at x/c =  0.2681   41

   4   rms: 0.8807E-01   max: -.1887E+01   C at   41  2   RLX: 0.265
       a = -2.000      CL = -0.1477
      Cm = -0.0014     CD =  0.00865   =>   CDf =  0.00666    CDp =  0.00199

 Side 1  free  transition at x/c =  0.5608   52
 Side 2  free  transition at x/c =  0.2796   42

   5   rms: 0.7476E-01   max: -.1537E+01   C at   42  2   RLX: 0.325
       a = -2.000      CL = -0.1457
      Cm = -0.0013     CD =  0.00857   =>   CDf =  0.00662    CDp =  0.00195

 Side 1  free  transition at x/c =  0.5584   52
 Side 2  free  transition at x/c =  0.2934   42

   6   rms: 0.7198E-01   max: -.1592E+01   C at   42  2   RLX: 0.314
       a = -2.000      CL = -0.1443
      Cm = -0.0012     CD =  0.00855   =>   CDf =  0.00657    CDp =  0.00198

 Side 1  free  transition at x/c =  0.5569   52
 Side 2  free  transition at x/c =  0.3050   43

   7   rms: 0.4681E-01   max: -.1033E+01   C at   43  2   RLX: 0.484
       a = -2.000      CL = -0.1431
      Cm = -0.0011     CD =  0.00849   =>   CDf =  0.00653    CDp =  0.00196

 Side 1  free  transition at x/c =  0.5554   52
 Side 2  free  transition at x/c =  0.3180   44

   8   rms: 0.2204E-01   max: -.4781E+00   C at   44  2
       a = -2.000      CL = -0.1420
      Cm = -0.0010     CD =  0.00843   =>   CDf =  0.00649    CDp =  0.00194

 Side 1  free  transition at x/c =  0.5540   51
 Side 2  free  transition at x/c =  0.3294   44

   9   rms: 0.4381E-02   max: -.9703E-01   C at   44  2
       a = -2.000      CL = -0.1418
      Cm = -0.0010     CD =  0.00844   =>   CDf =  0.00646    CDp =  0.00198

 Side 1  free  transition at x/c =  0.5538   51
 Side 2  free  transition at x/c =  0.3324   45

  10   rms: 0.9008E-03   max: 0.1884E-01   C at   45  2
       a = -2.000      CL = -0.1418
      Cm = -0.0010     CD =  0.00844   =>   CDf =  0.00645    CDp =  0.00199

 Side 1  free  transition at x/c =  0.5538   51
 Side 2  free  transition at x/c =  0.3319   45

  11   rms: 0.3456E-05   max: -.6505E-04   C at   45  2
       a = -2.000      CL = -0.1418
      Cm = -0.0010     CD =  0.00844   =>   CDf =  0.00645    CDp =  0.00199
 plradd ia,ip,cpol            5           0  1.68661382E-02

 Point added to stored polar  1
 Point written to save file  goe766_Re600k.base.pol                          
 Dump file unspecified or not available
 Calculating wake trajectory ...
 Calculating source influence matrix ...

 Solving BL system ...

 Side 1  free  transition at x/c =  0.5538   51
 Side 2  free  transition at x/c =  0.3319   45

   1   rms: 0.3094E+00   max: -.6330E+01   C at   45  2   RLX: 0.079
       a = -1.500      CL = -0.1385
      Cm = -0.0008     CD =  0.00836   =>   CDf =  0.00645    CDp =  0.00191

 Side 1  free  transition at x/c =  0.5505   51
 Side 2  free  transition at x/c =  0.3446   45

   2   rms: 0.2539E+00   max: -.5308E+01   C at   45  2   RLX: 0.094
       a = -1.500      CL = -0.1340
      Cm = -0.0007     CD =  0.00834   =>   CDf =  0.00641    CDp =  0.00192

 Side 1  free  transition at x/c =  0.5466   51
 Side 2  free  transition at x/c =  0.3623   46

   3   rms: 0.1905E+00   max: -.3837E+01   C at   46  2   RLX: 0.130
       a = -1.500      CL = -0.1290
      Cm = -0.0005     CD =  0.00827   =>   CDf =  0.00636    CDp =  0.00191

 Side 1  free  transition at x/c =  0.5419   51
 Side 2  free  transition at x/c =  0.3852   48

   4   rms: 0.1656E+00   max: -.3146E+01   C at   48  2   RLX: 0.159
       a = -1.500      CL = -0.1245
      Cm = -0.0001     CD =  0.00816   =>   CDf =  0.00629    CDp =  0.00186

 Side 1  free  transition at x/c =  0.5376   51
 Side 2  free  transition at x/c =  0.3981   48

   5   rms: 0.9180E-01   max: -.1545E+01   C at   48  2   RLX: 0.324
       a = -1.500      CL = -0.1144
      Cm =  0.0001     CD =  0.00818   =>   CDf =  0.00629    CDp =  0.00189

 Side 1  free  transition at x/c =  0.5312   50
 Side 2  free  transition at x/c =  0.4316   50

   6   rms: 0.4765E-01   max: -.6091E+00   C at   50  2   RLX: 0.821
       a = -1.500      CL = -0.0976
      Cm =  0.0007     CD =  0.00801   =>   CDf =  0.00620    CDp =  0.00182

 Side 1  free  transition at x/c =  0.5180   50
 Side 2  free  transition at x/c =  0.4945   53

   7   rms: 0.3261E-01   max: -.6535E+00   C at   53  2   RLX: 0.765
       a = -1.500      CL = -0.0988
      Cm =  0.0015     CD =  0.00773   =>   CDf =  0.00601    CDp =  0.00172

 Side 1  free  transition at x/c =  0.5177   50
 Side 2  free  transition at x/c =  0.5005   53

   8   rms: 0.7025E-02   max: -.1382E+00   C at   53  2
       a = -1.500      CL = -0.0979
      Cm =  0.0015     CD =  0.00775   =>   CDf =  0.00596    CDp =  0.00179

 Side 1  free  transition at x/c =  0.5175   50
 Side 2  free  transition at x/c =  0.5028   53

   9   rms: 0.7111E-03   max: -.1457E-01   C at   53  2
       a = -1.500      CL = -0.0979
      Cm =  0.0014     CD =  0.00776   =>   CDf =  0.00595    CDp =  0.00180

 Side 1  free  transition at x/c =  0.5175   50
 Side 2  free  transition at x/c =  0.5032   53

  10   rms: 0.8340E-05   max: 0.1707E-03   C at   53  2
       a = -1.500      CL = -0.0979
      Cm =  0.0014     CD =  0.00776   =>   CDf =  0.00595    CDp =  0.00181
 plradd ia,ip,cpol            6           0  1.68661382E-02

 Point added to stored polar  1
 Point written to save file  goe766_Re600k.base.pol                          
 Dump file unspecified or not available
 Calculating wake trajectory ...
 Calculating source influence matrix ...

 Solving BL system ...

 Side 1  free  transition at x/c =  0.5175   50
 Side 2  free  transition at x/c =  0.5032   53

   1   rms: 0.3133E+00   max: -.6323E+01   C at   53  2   RLX: 0.079
       a = -1.000      CL = -0.0944
      Cm =  0.0017     CD =  0.00770   =>   CDf =  0.00595    CDp =  0.00175

 Side 1  free  transition at x/c =  0.5150   50
 Side 2  free  transition at x/c =  0.5215   54

   2   rms: 0.2457E+00   max: -.4863E+01   C at   54  2   RLX: 0.103
       a = -1.000      CL = -0.0902
      Cm =  0.0019     CD =  0.00764   =>   CDf =  0.00589    CDp =  0.00175

 Side 1  free  transition at x/c =  0.5119   50
 Side 2  free  transition at x/c =  0.5468   56

   3   rms: 0.1981E+00   max: -.3875E+01   C at   56  2   RLX: 0.129
       a = -1.000      CL = -0.0861
      Cm =  0.0024     CD =  0.00754   =>   CDf =  0.00580    CDp =  0.00174

 Side 1  free  transition at x/c =  0.5086   50
 Side 2  free  transition at x/c =  0.5674   57

   4   rms: 0.1155E+00   max: -.2002E+01   C at   57  2   RLX: 0.250
       a = -1.000      CL = -0.0776
      Cm =  0.0028     CD =  0.00749   =>   CDf =  0.00574    CDp =  0.00175

 Side 1  free  transition at x/c =  0.5031   50
 Side 2  free  transition at x/c =  0.6022   59

   5   rms: 0.5579E-01   max: -.4831E+00   C at   59  2
       a = -1.000      CL = -0.0515
      Cm =  0.0038     CD =  0.00749   =>   CDf =  0.00566    CDp =  0.00183

 Side 1  free  transition at x/c =  0.4892   49
 Side 2  free  transition at x/c =  0.6743   63

   6   rms: 0.2208E-01   max: -.3159E+00   C at   63  2
       a = -1.000      CL = -0.0547
      Cm =  0.0045     CD =  0.00721   =>   CDf =  0.00552    CDp =  0.00170

 Side 1  free  transition at x/c =  0.4895   49
 Side 2  free  transition at x/c =  0.6549   62

   7   rms: 0.4181E-02   max: 0.5285E-01   D at   64  2
       a = -1.000      CL = -0.0533
      Cm =  0.0042     CD =  0.00730   =>   CDf =  0.00553    CDp =  0.00178

 Side 1  free  transition at x/c =  0.4892   49
 Side 2  free  transition at x/c =  0.6544   62

   8   rms: 0.8216E-04   max: -.1392E-02   D at   64  2
       a = -1.000      CL = -0.0533
      Cm =  0.0042     CD =  0.00730   =>   CDf =  0.00552    CDp =  0.00178
 plradd ia,ip,cpol            7           0  2.00383514E-02

 Point added to stored polar  1
 Point written to save file  goe766_Re600k.base.pol                          
 Dump file unspecified or not available
 Calculating wake trajectory ...
 Calculating source influence matrix ...

 Solving BL system ...

 Side 1  free  transition at x/c =  0.4892   49
 Side 2  free  transition at x/c =  0.6543   62

   1   rms: 0.1411E+00   max: -.2172E+01   C at   62  2   RLX: 0.230
       a = -0.500      CL = -0.0425
      Cm =  0.0047     CD =  0.00726   =>   CDf =  0.00552    CDp =  0.00174

 Side 1  free  transition at x/c =  0.4832   48
 Side 2  free  transition at x/c =  0.6760   63

   2   rms: 0.8220E-01   max: -.9241E+00   C at   63  2   RLX: 0.541
       a = -0.500      CL = -0.0209
      Cm =  0.0053     CD =  0.00722   =>   CDf =  0.00548    CDp =  0.00174

 Side 1  free  transition at x/c =  0.4715   49
 Side 2  free  transition at x/c =  0.7178   65

   3   rms: 0.4258E-01   max: -.5725E+00   C at   65  2   RLX: 0.873
       a = -0.500      CL = -0.0081
      Cm =  0.0065     CD =  0.00709   =>   CDf =  0.00539    CDp =  0.00171

 Side 1  free  transition at x/c =  0.4655   48
 Side 2  free  transition at x/c =  0.7309   65

   4   rms: 0.1185E-01   max: -.2056E+00   C at   65  2
       a = -0.500      CL = -0.0048
      Cm =  0.0063     CD =  0.00716   =>   CDf =  0.00542    CDp =  0.00174

 Side 1  free  transition at x/c =  0.4648   48
 Side 2  free  transition at x/c =  0.7418   66

   5   rms: 0.2667E-02   max: 0.4597E-01   C at   66  2
       a = -0.500      CL = -0.0053
      Cm =  0.0065     CD =  0.00713   =>   CDf =  0.00533    CDp =  0.00180

 Side 1  free  transition at x/c =  0.4648   48
 Side 2  free  transition at x/c =  0.7402   66

   6   rms: 0.6407E-04   max: -.1013E-02   D at   68  2
       a = -0.500      CL = -0.0053
      Cm =  0.0065     CD =  0.00713   =>   CDf =  0.00534    CDp =  0.00179
 plradd ia,ip,cpol            8           0  2.00383514E-02

 Point added to stored polar  1
 Point written to save file  goe766_Re600k.base.pol                          
 Dump file unspecified or not available
 Calculating wake trajectory ...
 Calculating source influence matrix ...

 Solving BL system ...

 Side 1  free  transition at x/c =  0.4648   48
 Side 2  free  transition at x/c =  0.7402   66

   1   rms: 0.1117E+00   max: -.1462E+01   C at   66  2   RLX: 0.342
       a =  0.000      CL =  0.0117
      Cm =  0.0071     CD =  0.00705   =>   CDf =  0.00534    CDp =  0.00171

 Side 1  free  transition at x/c =  0.4564   48
 Side 2  free  transition at x/c =  0.7600   67

   2   rms: 0.7192E-01   max: -.8697E+00   C at   67  2   RLX: 0.575
       a =  0.000      CL =  0.0309
      Cm =  0.0077     CD =  0.00707   =>   CDf =  0.00529    CDp =  0.00178

 Side 1  free  transition at x/c =  0.4483   49
 Side 2  free  transition at x/c =  0.7817   67

   3   rms: 0.3187E-01   max: -.4062E+00   C at   67  2
       a =  0.000      CL =  0.0446
      Cm =  0.0084     CD =  0.00710   =>   CDf =  0.00530    CDp =  0.00180

 Side 1  free  transition at x/c =  0.4436   48
 Side 2  free  transition at x/c =  0.8070   69

   4   rms: 0.5611E-02   max: -.8157E-01   C at   69  2
       a =  0.000      CL =  0.0448
      Cm =  0.0084     CD =  0.00703   =>   CDf =  0.00521    CDp =  0.00182

 Side 1  free  transition at x/c =  0.4436   48
 Side 2  free  transition at x/c =  0.8094   69

   5   rms: 0.1910E-03   max: -.3439E-02   C at   69  2
       a =  0.000      CL =  0.0448
      Cm =  0.0084     CD =  0.00703   =>   CDf =  0.00518    CDp =  0.00185

 Side 1  free  transition at x/c =  0.4436   48
 Side 2  free  transition at x/c =  0.8095   69

   6   rms: 0.6633E-06   max: -.5135E-05   C at   69  2
       a =  0.000      CL =  0.0448
      Cm =  0.0084     CD =  0.00703   =>   CDf =  0.00518    CDp =  0.00185
 plradd ia,ip,cpol            9           0  0.14123276    

 Point added to stored polar  1
 Point written to save file  goe766_Re600k.base.pol                          
 Dump file unspecified or not available
 Calculating wake trajectory ...
 Calculating source influence matrix ...

 Solving BL system ...

 Side 1  free  transition at x/c =  0.4436   48
 Side 2  free  transition at x/c =  0.8095   69

   1   rms: 0.1019E+00   max: -.1138E+01   C at   69  2   RLX: 0.440
       a =  0.500      CL =  0.0676
      Cm =  0.0091     CD =  0.00698   =>   CDf =  0.00518    CDp =  0.00180

 Side 1  free  transition at x/c =  0.4336   48
 Side 2  free  transition at x/c =  0.8211   70

   2   rms: 0.6209E-01   max: -.6280E+00   C at   70  2   RLX: 0.796
       a =  0.500      CL =  0.0924
      Cm =  0.0092     CD =  0.00699   =>   CDf =  0.00525    CDp =  0.00174

 Side 1  free  transition at x/c =  0.4263   48
 Side 2  free  transition at x/c =  0.8382   69

   3   rms: 0.2123E-01   max: -.3040E+00   D at   69  2
       a =  0.500      CL =  0.0949
      Cm =  0.0102     CD =  0.00715   =>   CDf =  0.00534    CDp =  0.00181

 MRCHDU: Convergence failed at  72  side 2    Res =  0.1911E+01
 Side 1  free  transition at x/c =  0.4241   48
 Side 2  free  transition at x/c =  0.8856   72

   4   rms: 0.1839E-01   max: 0.2111E+00   D at   69  2
       a =  0.500      CL =  0.1015
      Cm =  0.0090     CD =  0.00703   =>   CDf =  0.00506    CDp =  0.00197

 Side 1  free  transition at x/c =  0.4234   48
 Side 2  free  transition at x/c =  0.8556   70

   5   rms: 0.1115E-01   max: -.1959E+00   D at   71  2
       a =  0.500      CL =  0.0974
      Cm =  0.0098     CD =  0.00705   =>   CDf =  0.00516    CDp =  0.00190

 Side 1  free  transition at x/c =  0.4238   48
 Side 2  free  transition at x/c =  0.8616   71

   6   rms: 0.2462E-02   max: 0.3778E-01   C at   71  2
       a =  0.500      CL =  0.0981
      Cm =  0.0097     CD =  0.00705   =>   CDf =  0.00512    CDp =  0.00193

 Side 1  free  transition at x/c =  0.4237   48
 Side 2  free  transition at x/c =  0.8600   71

   7   rms: 0.6675E-04   max: -.1009E-02   D at   73  2
       a =  0.500      CL =  0.0981
      Cm =  0.0097     CD =  0.00705   =>   CDf =  0.00512    CDp =  0.00192
 plradd ia,ip,cpol           10           0  0.14123276    

 Point added to stored polar  1
 Point written to save file  goe766_Re600k.base.pol                          
 Dump file unspecified or not available
 Calculating wake trajectory ...
 Calculating source influence matrix ...

 Solving BL system ...

 Side 1  free  transition at x/c =  0.4237   48
 Side 2  free  transition at x/c =  0.8599   71

   1   rms: 0.9739E-01   max: -.8265E+00   C at   71  2   RLX: 0.605
       a =  1.000      CL =  0.1325
      Cm =  0.0100     CD =  0.00704   =>   CDf =  0.00512    CDp =  0.00191

 Side 1  free  transition at x/c =  0.4108   47
 Side 2  free  transition at x/c =  0.8855   72

   2   rms: 0.3662E-01   max: -.2583E+00   C at   72  2
       a =  1.000      CL =  0.1522
      Cm =  0.0109     CD =  0.00710   =>   CDf =  0.00515    CDp =  0.00195

 Side 1  free  transition at x/c =  0.4035   47
 Side 2  free  transition at x/c =  0.9095   74

   3   rms: 0.7558E-02   max: -.6698E-01   C at   74  2
       a =  1.000      CL =  0.1564
      Cm =  0.0100     CD =  0.00715   =>   CDf =  0.00510    CDp =  0.00205

 Side 1  free  transition at x/c =  0.4035   47
 Side 2  free  transition at x/c =  0.9107   74

   4   rms: 0.3176E-03   max: -.3552E-02   D at   79  2
       a =  1.000      CL =  0.1564
      Cm =  0.0100     CD =  0.00715   =>   CDf =  0.00508    CDp =  0.00207

 Side 1  free  transition at x/c =  0.4035   47
 Side 2  free  transition at x/c =  0.9106   74

   5   rms: 0.1636E-05   max: -.1348E-04   D at   79  2
       a =  1.000      CL =  0.1564
      Cm =  0.0100     CD =  0.00715   =>   CDf =  0.00508    CDp =  0.00207
 plradd ia,ip,cpol           11           0  0.14123276    

 Point added to stored polar  1
 Point written to save file  goe766_Re600k.base.pol                          
 Dump file unspecified or not available
 Calculating wake trajectory ...
 Calculating source influence matrix ...

 Solving BL system ...

 Side 1  free  transition at x/c =  0.4035   47
 Side 2  free  transition at x/c =  0.9106   74

   1   rms: 0.1152E+00   max: 0.5433E+00   D at   75  2   RLX: 0.973
       a =  1.500      CL =  0.2297
      Cm =  0.0068     CD =  0.00734   =>   CDf =  0.00508    CDp =  0.00226

 Side 1  free  transition at x/c =  0.3799   47
 Side 2  free  transition at x/c =  0.9179   73

   2   rms: 0.5674E-01   max: -.5943E+00   D at   74  2   RLX: 0.841
       a =  1.500      CL =  0.2014
      Cm =  0.0126     CD =  0.00745   =>   CDf =  0.00526    CDp =  0.00219

 MRCHDU: Convergence failed at  76  side 2    Res =  0.3973E+04
 MRCHDU: Convergence failed at  77  side 2    Res =  0.1662E+01
 MRCHDU: Convergence failed at  78  side 2    Res =  0.2147E+01
 MRCHDU: Convergence failed at  79  side 2    Res =  0.2815E+01
 Side 1  free  transition at x/c =  0.3842   47
 Side 2  free  transition at x/c =  0.9708   77

   3   rms: 0.8720E-01   max: 0.9971E+00   C at   77  2
       a =  1.500      CL =  0.2102
      Cm =  0.0114     CD =  0.00712   =>   CDf =  0.00511    CDp =  0.00201

 Side 1  free  transition at x/c =  0.3820   47
 Side 2  free  transition at x/c =  0.9368   74

   4   rms: 0.3161E-01   max: 0.4941E+00   D at   76  2
       a =  1.500      CL =  0.2317
      Cm =  0.0064     CD =  0.00753   =>   CDf =  0.00516    CDp =  0.00237

 Side 1  free  transition at x/c =  0.3793   47
 Side 2  free  transition at x/c =  0.9348   74

   5   rms: 0.8699E-02   max: 0.8461E-01   D at   77  2
       a =  1.500      CL =  0.2243
      Cm =  0.0081     CD =  0.00740   =>   CDf =  0.00519    CDp =  0.00222

 Side 1  free  transition at x/c =  0.3803   47
 Side 2  free  transition at x/c =  0.9377   74

   6   rms: 0.6080E-03   max: -.6174E-02   C at   74  2
       a =  1.500      CL =  0.2241
      Cm =  0.0081     CD =  0.00741   =>   CDf =  0.00517    CDp =  0.00224

 Side 1  free  transition at x/c =  0.3803   47
 Side 2  free  transition at x/c =  0.9379   74

   7   rms: 0.3675E-05   max: 0.1869E-04   T at   74  2
       a =  1.500      CL =  0.2241
      Cm =  0.0081     CD =  0.00741   =>   CDf =  0.00517    CDp =  0.00224
 plradd ia,ip,cpol           12           0  0.14123276    

 Point added to stored polar  1
 Point written to save file  goe766_Re600k.base.pol                          
 Dump file unspecified or not available
 Calculating wake trajectory ...
 Calculating source influence matrix ...

 Solving BL system ...

 Side 1  free  transition at x/c =  0.3803   47
 Side 2  free  transition at x/c =  0.9379   74

   1   rms: 0.9262E-01   max: -.4738E+00   D at   47  1
       a =  2.000      CL =  0.2818
      Cm =  0.0083     CD =  0.00774   =>   CDf =  0.00517    CDp =  0.00257

 Side 1  free  transition at x/c =  0.3602   46
 Side 2  free  transition at x/c =  0.9635   75

   2   rms: 0.3713E-01   max: 0.3048E+00   C at   75  2
       a =  2.000      CL =  0.2899
      Cm =  0.0066     CD =  0.00765   =>   CDf =  0.00528    CDp =  0.00238

 Side 1  free  transition at x/c =  0.3577   46
 Side 2  free  transition at x/c =  0.9583   75

   3   rms: 0.4416E-02   max: 0.2772E-01   T at   78  2
       a =  2.000      CL =  0.2918
      Cm =  0.0062     CD =  0.00770   =>   CDf =  0.00527    CDp =  0.00244

 Side 1  free  transition at x/c =  0.3568   46
 Side 2  free  transition at x/c =  0.9573   75

   4   rms: 0.3107E-03   max: -.2559E-02   D at   78  2
       a =  2.000      CL =  0.2917
      Cm =  0.0062     CD =  0.00771   =>   CDf =  0.00527    CDp =  0.00243

 Side 1  free  transition at x/c =  0.3569   46
 Side 2  free  transition at x/c =  0.9573   75

   5   rms: 0.1698E-05   max: 0.1365E-04   D at   75  2
       a =  2.000      CL =  0.2917
      Cm =  0.0062     CD =  0.00771   =>   CDf =  0.00527    CDp =  0.00243
 plradd ia,ip,cpol           13           0  0.12831567    

 Point added to stored polar  1
 Point written to save file  goe766_Re600k.base.pol                          
 Dump file unspecified or not available
 Calculating wake trajectory ...
 Calculating source influence matrix ...

 Solving BL system ...

 Side 1  free  transition at x/c =  0.3569   46
 Side 2  free  transition at x/c =  0.9573   75

   1   rms: 0.1041E+00   max: 0.3020E+00   D at   77  2
       a =  2.500      CL =  0.3743
      Cm =  0.0010     CD =  0.00796   =>   CDf =  0.00527    CDp =  0.00270

 Side 1  free  transition at x/c =  0.3289   46
 Side 2  free  transition at x/c =  0.9676   74

   2   rms: 0.2839E-01   max: -.4350E+00   D at   46  1
       a =  2.500      CL =  0.3712
      Cm =  0.0017     CD =  0.00803   =>   CDf =  0.00544    CDp =  0.00259

 Side 1  free  transition at x/c =  0.3331   46
 Side 2  free  transition at x/c =  0.9673   74

   3   rms: 0.7276E-02   max: 0.1215E+00   C at   46  1
       a =  2.500      CL =  0.3709
      Cm =  0.0017     CD =  0.00809   =>   CDf =  0.00539    CDp =  0.00271

 Side 1  free  transition at x/c =  0.3299   46
 Side 2  free  transition at x/c =  0.9672   74

   4   rms: 0.2253E-03   max: -.2425E-02   D at   47  1
       a =  2.500      CL =  0.3709
      Cm =  0.0017     CD =  0.00810   =>   CDf =  0.00542    CDp =  0.00268

 Side 1  free  transition at x/c =  0.3299   46
 Side 2  free  transition at x/c =  0.9673   74

   5   rms: 0.1989E-05   max: 0.1370E-04   D at   75  2
       a =  2.500      CL =  0.3709
      Cm =  0.0017     CD =  0.00810   =>   CDf =  0.00542    CDp =  0.00268
 plradd ia,ip,cpol           14           0  8.08756351E-02

 Point added to stored polar  1
 Point written to save file  goe766_Re600k.base.pol                          
 Dump file unspecified or not available
 Calculating wake trajectory ...
 Calculating source influence matrix ...

 Solving BL system ...

 Side 1  free  transition at x/c =  0.3299   46
 Side 2  free  transition at x/c =  0.9673   74

   1   rms: 0.1017E+00   max: -.5455E+00   D at   46  1   RLX: 0.917
       a =  3.000      CL =  0.4301
      Cm =  0.0004     CD =  0.00856   =>   CDf =  0.00541    CDp =  0.00315

 Side 1  free  transition at x/c =  0.3095   45
 Side 2  free  transition at x/c =  0.9812   74

   2   rms: 0.3535E-01   max: 0.2789E+00   D at   76  2
       a =  3.000      CL =  0.4496
      Cm = -0.0028     CD =  0.00846   =>   CDf =  0.00555    CDp =  0.00291

 Side 1  free  transition at x/c =  0.3052   45
 Side 2  free  transition at x/c =  0.9752   74

   3   rms: 0.2619E-02   max: -.2572E-01   D at   75  2
       a =  3.000      CL =  0.4487
      Cm = -0.0026     CD =  0.00848   =>   CDf =  0.00555    CDp =  0.00293

 Side 1  free  transition at x/c =  0.3052   45
 Side 2  free  transition at x/c =  0.9759   74

   4   rms: 0.1338E-04   max: -.1863E-03   D at   74  2
       a =  3.000      CL =  0.4487
      Cm = -0.0026     CD =  0.00848   =>   CDf =  0.00555    CDp =  0.00293
 plradd ia,ip,cpol           15           0  3.41709517E-02

 Point added to stored polar  1
 Point written to save file  goe766_Re600k.base.pol                          
 Dump file unspecified or not available
 Calculating wake trajectory ...
 Calculating source influence matrix ...

 Solving BL system ...

 Side 1  free  transition at x/c =  0.3052   45
 Side 2  free  transition at x/c =  0.9759   74

   1   rms: 0.9859E-01   max: -.1725E+00   T at   74  2
       a =  3.500      CL =  0.5244
      Cm = -0.0065     CD =  0.00878   =>   CDf =  0.00553    CDp =  0.00325

 Side 1  free  transition at x/c =  0.2830   45
 Side 2  free  transition at x/c =  0.9824   73

   2   rms: 0.3084E-01   max: -.2662E+00   D at   45  1
       a =  3.500      CL =  0.5104
      Cm = -0.0035     CD =  0.00887   =>   CDf =  0.00569    CDp =  0.00318

 Side 1  free  transition at x/c =  0.2862   45
 Side 2  free  transition at x/c =  0.9912   74

   3   rms: 0.3408E-01   max: 0.4138E+00   D at   75  2
       a =  3.500      CL =  0.5214
      Cm = -0.0059     CD =  0.00874   =>   CDf =  0.00565    CDp =  0.00309

 Side 1  free  transition at x/c =  0.2842   45
 Side 2  free  transition at x/c =  0.9838   74

   4   rms: 0.2509E-02   max: -.4795E-01   D at   74  2
       a =  3.500      CL =  0.5213
      Cm = -0.0059     CD =  0.00883   =>   CDf =  0.00567    CDp =  0.00316

 Side 1  free  transition at x/c =  0.2843   45
 Side 2  free  transition at x/c =  0.9841   74

   5   rms: 0.3779E-04   max: 0.3679E-03   D at   75  2
       a =  3.500      CL =  0.5213
      Cm = -0.0059     CD =  0.00883   =>   CDf =  0.00567    CDp =  0.00316
 plradd ia,ip,cpol           16           0  3.41709517E-02

 Point added to stored polar  1
 Point written to save file  goe766_Re600k.base.pol                          
 Dump file unspecified or not available
 Calculating wake trajectory ...
 Calculating source influence matrix ...

 Solving BL system ...

 Side 1  free  transition at x/c =  0.2843   45
 Side 2  free  transition at x/c =  0.9841   74

   1   rms: 0.1029E+00   max: -.1750E+00   T at   74  2
       a =  4.000      CL =  0.6013
      Cm = -0.0109     CD =  0.00917   =>   CDf =  0.00564    CDp =  0.00353

 Side 1  free  transition at x/c =  0.2645   45
 Side 2  free  transition at x/c =  0.9865   73

   2   rms: 0.3274E-01   max: -.3207E+00   D at   45  1
       a =  4.000      CL =  0.5972
      Cm = -0.0101     CD =  0.00906   =>   CDf =  0.00579    CDp =  0.00327

 Side 1  free  transition at x/c =  0.2673   45
 Side 2  free  transition at x/c =  0.9900   73

   3   rms: 0.2650E-02   max: 0.3075E-01   C at   45  1
       a =  4.000      CL =  0.5968
      Cm = -0.0100     CD =  0.00913   =>   CDf =  0.00576    CDp =  0.00337

 Side 1  free  transition at x/c =  0.2664   45
 Side 2  free  transition at x/c =  0.9900   73

   4   rms: 0.3453E-04   max: -.6110E-03   D at   46  1
       a =  4.000      CL =  0.5968
      Cm = -0.0100     CD =  0.00913   =>   CDf =  0.00577    CDp =  0.00336
 plradd ia,ip,cpol           17           0  2.53296513E-02

 Point added to stored polar  1
 Point written to save file  goe766_Re600k.base.pol                          
 Dump file unspecified or not available
 Calculating wake trajectory ...
 Calculating source influence matrix ...

 Solving BL system ...

 Side 1  free  transition at x/c =  0.2664   45
 Side 2  free  transition at x/c =  0.9900   73

   1   rms: 0.9910E-01   max: -.5621E+00   D at   45  1   RLX: 0.889
       a =  4.500      CL =  0.6590
      Cm = -0.0127     CD =  0.00949   =>   CDf =  0.00574    CDp =  0.00375

 Side 1  free  transition at x/c =  0.2537   45
 Side 2  free  transition at x/c =  0.9954   73

   2   rms: 0.2092E-01   max: -.2711E+00   D at   46  1
       a =  4.500      CL =  0.6687
      Cm = -0.0133     CD =  0.00934   =>   CDf =  0.00581    CDp =  0.00353

 Side 1  free  transition at x/c =  0.2510   45
 Side 2  free  transition at x/c =  0.9955   73

   3   rms: 0.1385E-02   max: -.2648E-01   D at   46  1
       a =  4.500      CL =  0.6684
      Cm = -0.0133     CD =  0.00940   =>   CDf =  0.00583    CDp =  0.00356

 Side 1  free  transition at x/c =  0.2507   45
 Side 2  free  transition at x/c =  0.9955   73

   4   rms: 0.1819E-04   max: -.3674E-03   D at   46  1
       a =  4.500      CL =  0.6684
      Cm = -0.0133     CD =  0.00940   =>   CDf =  0.00584    CDp =  0.00356
 plradd ia,ip,cpol           18           0  2.16588452E-02

 Point added to stored polar  1
 Point written to save file  goe766_Re600k.base.pol                          
 Dump file unspecified or not available
 Calculating wake trajectory ...
 Calculating source influence matrix ...

 Solving BL system ...

 Side 1  free  transition at x/c =  0.2507   45
 Side 2  free  transition at x/c =  0.9955   73

   1   rms: 0.9530E-01   max: -.2227E+00   T at   73  2
       a =  5.000      CL =  0.7422
      Cm = -0.0172     CD =  0.00969   =>   CDf =  0.00580    CDp =  0.00390

 Side 1  free  transition at x/c =  0.2374   45
 Side 2  free  transition at x/c =  0.9998   72

   2   rms: 0.2334E-01   max: -.2509E+00   D at   45  1
       a =  5.000      CL =  0.7420
      Cm = -0.0171     CD =  0.00957   =>   CDf =  0.00587    CDp =  0.00370

 Side 1  free  transition at x/c =  0.2384   45
 Side 2 forced transition at x/c =  1.0000   72

   3   rms: 0.3163E-02   max: 0.3253E-01   C at   45  1
       a =  5.000      CL =  0.7402
      Cm = -0.0167     CD =  0.00962   =>   CDf =  0.00586    CDp =  0.00376

 Side 1  free  transition at x/c =  0.2379   45
 Side 2 forced transition at x/c =  1.0000   72

   4   rms: 0.3519E-04   max: -.6178E-03   D at   46  1
       a =  5.000      CL =  0.7402
      Cm = -0.0167     CD =  0.00962   =>   CDf =  0.00587    CDp =  0.00376
 plradd ia,ip,cpol           19           0  2.16588452E-02

 Point added to stored polar  1
 Point written to save file  goe766_Re600k.base.pol                          
 Dump file unspecified or not available
 Calculating wake trajectory ...
 Calculating source influence matrix ...

 Solving BL system ...

 Side 1  free  transition at x/c =  0.2379   45
 Side 2 forced transition at x/c =  1.0000   72

   1   rms: 0.7562E-01   max: -.1647E+00   D at   65  2
       a =  5.500      CL =  0.7841
      Cm = -0.0144     CD =  0.00984   =>   CDf =  0.00587    CDp =  0.00398

 Side 1  free  transition at x/c =  0.2258   44
 Side 2 forced transition at x/c =  1.0000   72

   2   rms: 0.1075E-01   max: -.1272E+00   D at   44  1
       a =  5.500      CL =  0.7839
      Cm = -0.0144     CD =  0.00987   =>   CDf =  0.00592    CDp =  0.00395

 Side 1  free  transition at x/c =  0.2269   44
 Side 2 forced transition at x/c =  1.0000   72

   3   rms: 0.4425E-03   max: 0.5623E-02   C at   44  1
       a =  5.500      CL =  0.7839
      Cm = -0.0144     CD =  0.00988   =>   CDf =  0.00590    CDp =  0.00398

 Side 1  free  transition at x/c =  0.2268   44
 Side 2 forced transition at x/c =  1.0000   72

   4   rms: 0.1973E-05   max: -.2243E-04   D at   45  1
       a =  5.500      CL =  0.7839
      Cm = -0.0144     CD =  0.00988   =>   CDf =  0.00590    CDp =  0.00398
 plradd ia,ip,cpol           20           0  2.16588452E-02

 Point added to stored polar  1
 Point written to save file  goe766_Re600k.base.pol                          
 Dump file unspecified or not available
 Calculating wake trajectory ...
 Calculating source influence matrix ...

 Solving BL system ...

 Side 1  free  transition at x/c =  0.2268   44
 Side 2 forced transition at x/c =  1.0000   72

   1   rms: 0.7473E-01   max: -.1531E+00   D at   66  2
       a =  6.000      CL =  0.8293
      Cm = -0.0122     CD =  0.01003   =>   CDf =  0.00584    CDp =  0.00419

 Side 1  free  transition at x/c =  0.2129   44
 Side 2 forced transition at x/c =  1.0000   71

   2   rms: 0.5306E-02   max: 0.4839E-01   D at   45  1
       a =  6.000      CL =  0.8275
      Cm = -0.0119     CD =  0.01020   =>   CDf =  0.00596    CDp =  0.00424

 Side 1  free  transition at x/c =  0.2141   45
 Side 2 forced transition at x/c =  1.0000   71

   3   rms: 0.1823E-02   max: -.1819E-01   D at   44  1
       a =  6.000      CL =  0.8279
      Cm = -0.0120     CD =  0.01017   =>   CDf =  0.00594    CDp =  0.00423

 Side 1  free  transition at x/c =  0.2143   45
 Side 2 forced transition at x/c =  1.0000   71

   4   rms: 0.4368E-04   max: -.7608E-03   D at   45  1
       a =  6.000      CL =  0.8279
      Cm = -0.0120     CD =  0.01017   =>   CDf =  0.00593    CDp =  0.00424
 plradd ia,ip,cpol           21           0  1.83802135E-02

 Point added to stored polar  1
 Point written to save file  goe766_Re600k.base.pol                          
 Dump file unspecified or not available
 Calculating wake trajectory ...
 Calculating source influence matrix ...

 Solving BL system ...

 Side 1  free  transition at x/c =  0.2143   45
 Side 2 forced transition at x/c =  1.0000   71

   1   rms: 0.7924E-01   max: -.3575E+00   D at   45  1
       a =  6.500      CL =  0.8698
      Cm = -0.0093     CD =  0.01072   =>   CDf =  0.00593    CDp =  0.00479

 Side 1  free  transition at x/c =  0.2002   44
 Side 2 forced transition at x/c =  1.0000   71

   2   rms: 0.1270E-01   max: 0.2210E+00   D at   44  1
       a =  6.500      CL =  0.8727
      Cm = -0.0098     CD =  0.01045   =>   CDf =  0.00596    CDp =  0.00449

 Side 1  free  transition at x/c =  0.2027   44
 Side 2 forced transition at x/c =  1.0000   71

   3   rms: 0.2292E-02   max: 0.2699E-01   C at   44  1
       a =  6.500      CL =  0.8729
      Cm = -0.0098     CD =  0.01044   =>   CDf =  0.00590    CDp =  0.00454

 Side 1  free  transition at x/c =  0.2020   44
 Side 2 forced transition at x/c =  1.0000   71

   4   rms: 0.2087E-04   max: -.3082E-03   D at   45  1
       a =  6.500      CL =  0.8729
      Cm = -0.0098     CD =  0.01044   =>   CDf =  0.00591    CDp =  0.00453
 plradd ia,ip,cpol           22           0  1.83802135E-02

 Point added to stored polar  1
 Point written to save file  goe766_Re600k.base.pol                          
 Dump file unspecified or not available
 Calculating wake trajectory ...
 Calculating source influence matrix ...

 Solving BL system ...

 Side 1  free  transition at x/c =  0.2020   44
 Side 2 forced transition at x/c =  1.0000   71

   1   rms: 0.7961E-01   max: -.4550E+00   D at   44  1
       a =  7.000      CL =  0.9163
      Cm = -0.0074     CD =  0.01089   =>   CDf =  0.00584    CDp =  0.00505

 Side 1  free  transition at x/c =  0.1858   44
 Side 2 forced transition at x/c =  1.0000   70

   2   rms: 0.1215E-01   max: -.1636E+00   D at   45  1
       a =  7.000      CL =  0.9176
      Cm = -0.0075     CD =  0.01078   =>   CDf =  0.00593    CDp =  0.00485

 Side 1  free  transition at x/c =  0.1862   44
 Side 2 forced transition at x/c =  1.0000   70

   3   rms: 0.6357E-03   max: -.1026E-01   D at   45  1
       a =  7.000      CL =  0.9175
      Cm = -0.0075     CD =  0.01079   =>   CDf =  0.00593    CDp =  0.00487

 Side 1  free  transition at x/c =  0.1860   44
 Side 2 forced transition at x/c =  1.0000   70

   4   rms: 0.3497E-05   max: -.6560E-04   D at   45  1
       a =  7.000      CL =  0.9175
      Cm = -0.0075     CD =  0.01079   =>   CDf =  0.00593    CDp =  0.00486
 plradd ia,ip,cpol           23           0  1.83802135E-02

 Point added to stored polar  1
 Point written to save file  goe766_Re600k.base.pol                          
 Dump file unspecified or not available
 Calculating wake trajectory ...
 Calculating source influence matrix ...

 Solving BL system ...

 Side 1  free  transition at x/c =  0.1860   44
 Side 2 forced transition at x/c =  1.0000   70

   1   rms: 0.8221E-01   max: -.5408E+00   D at   44  1   RLX: 0.925
       a =  7.500      CL =  0.9572
      Cm = -0.0053     CD =  0.01130   =>   CDf =  0.00585    CDp =  0.00545

 Side 1  free  transition at x/c =  0.1673   43
 Side 2 forced transition at x/c =  1.0000   69

   2   rms: 0.1610E-01   max: 0.1904E+00   D at   44  1
       a =  7.500      CL =  0.9615
      Cm = -0.0052     CD =  0.01125   =>   CDf =  0.00599    CDp =  0.00526

 Side 1  free  transition at x/c =  0.1652   43
 Side 2 forced transition at x/c =  1.0000   69

   3   rms: 0.9569E-03   max: 0.1458E-01   C at   43  1
       a =  7.500      CL =  0.9617
      Cm = -0.0053     CD =  0.01124   =>   CDf =  0.00598    CDp =  0.00526

 Side 1  free  transition at x/c =  0.1648   43
 Side 2 forced transition at x/c =  1.0000   69

   4   rms: 0.5790E-05   max: -.1079E-03   C at   43  1
       a =  7.500      CL =  0.9617
      Cm = -0.0053     CD =  0.01124   =>   CDf =  0.00598    CDp =  0.00526
 plradd ia,ip,cpol           24           0  1.83802135E-02

 Point added to stored polar  1
 Point written to save file  goe766_Re600k.base.pol                          
 Dump file unspecified or not available
 Calculating wake trajectory ...
 Calculating source influence matrix ...

 Solving BL system ...

 Side 1  free  transition at x/c =  0.1648   43
 Side 2 forced transition at x/c =  1.0000   69

   1   rms: 0.8005E-01   max: 0.4772E+00   C at   43  1
       a =  8.000      CL =  1.0063
      Cm = -0.0031     CD =  0.01168   =>   CDf =  0.00598    CDp =  0.00571

 Side 1  free  transition at x/c =  0.1329   41
 Side 2 forced transition at x/c =  1.0000   69

   2   rms: 0.1104E-01   max: 0.1370E+00   D at   42  1
       a =  8.000      CL =  1.0031
      Cm = -0.0027     CD =  0.01196   =>   CDf =  0.00614    CDp =  0.00583

 Side 1  free  transition at x/c =  0.1328   41
 Side 2 forced transition at x/c =  1.0000   69

   3   rms: 0.1484E-02   max: 0.2665E-01   C at   41  1
       a =  8.000      CL =  1.0030
      Cm = -0.0027     CD =  0.01197   =>   CDf =  0.00613    CDp =  0.00584

 Side 1  free  transition at x/c =  0.1322   41
 Side 2 forced transition at x/c =  1.0000   69

   4   rms: 0.1026E-04   max: 0.1131E-03   D at   41  1
       a =  8.000      CL =  1.0030
      Cm = -0.0027     CD =  0.01197   =>   CDf =  0.00614    CDp =  0.00583
 plradd ia,ip,cpol           25           0  1.54448114E-02

 Point added to stored polar  1
 Point written to save file  goe766_Re600k.base.pol                          
 Dump file unspecified or not available
 Calculating wake trajectory ...
 Calculating source influence matrix ...

 Solving BL system ...

 Side 1  free  transition at x/c =  0.1322   41
 Side 2 forced transition at x/c =  1.0000   69

   1   rms: 0.1078E+00   max: 0.1308E+01   C at   41  1   RLX: 0.654
       a =  8.500      CL =  1.0278
      Cm = -0.0007     CD =  0.01267   =>   CDf =  0.00603    CDp =  0.00664

 Side 1  free  transition at x/c =  0.1140   40
 Side 2 forced transition at x/c =  1.0000   68

   2   rms: 0.3191E-01   max: -.1991E+00   D at   40  1
       a =  8.500      CL =  1.0427
      Cm =  0.0001     CD =  0.01287   =>   CDf =  0.00625    CDp =  0.00662

 Side 1  free  transition at x/c =  0.1037   39
 Side 2 forced transition at x/c =  1.0000   68

   3   rms: 0.3036E-02   max: -.4879E-01   C at   39  1
       a =  8.500      CL =  1.0411
      Cm =  0.0004     CD =  0.01300   =>   CDf =  0.00631    CDp =  0.00669

 Side 1  free  transition at x/c =  0.1032   39
 Side 2 forced transition at x/c =  1.0000   68

   4   rms: 0.7408E-02   max: -.1510E+00   C at   39  1
       a =  8.500      CL =  1.0410
      Cm =  0.0004     CD =  0.01300   =>   CDf =  0.00632    CDp =  0.00668

 Side 1  free  transition at x/c =  0.1032   39
 Side 2 forced transition at x/c =  1.0000   68

   5   rms: 0.7267E-02   max: -.1492E+00   C at   39  1
       a =  8.500      CL =  1.0410
      Cm =  0.0004     CD =  0.01300   =>   CDf =  0.00632    CDp =  0.00668

 Side 1  free  transition at x/c =  0.1032   39
 Side 2 forced transition at x/c =  1.0000   68

   6   rms: 0.7277E-02   max: -.1494E+00   C at   39  1
       a =  8.500      CL =  1.0410
      Cm =  0.0004     CD =  0.01300   =>   CDf =  0.00632    CDp =  0.00668

 Side 1  free  transition at x/c =  0.1032   39
 Side 2 forced transition at x/c =  1.0000   68

   7   rms: 0.7276E-02   max: -.1494E+00   C at   39  1
       a =  8.500      CL =  1.0410
      Cm =  0.0004     CD =  0.01300   =>   CDf =  0.00632    CDp =  0.00668

 Side 1  free  transition at x/c =  0.1032   39
 Side 2 forced transition at x/c =  1.0000   68

   8   rms: 0.7276E-02   max: -.1494E+00   C at   39  1
       a =  8.500      CL =  1.0410
      Cm =  0.0004     CD =  0.01300   =>   CDf =  0.00632    CDp =  0.00668

 Side 1  free  transition at x/c =  0.1032   39
 Side 2 forced transition at x/c =  1.0000   68

   9   rms: 0.7276E-02   max: -.1494E+00   C at   39  1
       a =  8.500      CL =  1.0410
      Cm =  0.0004     CD =  0.01300   =>   CDf =  0.00632    CDp =  0.00668

 Side 1  free  transition at x/c =  0.1032   39
 Side 2 forced transition at x/c =  1.0000   68

  10   rms: 0.7276E-02   max: -.1494E+00   C at   39  1
       a =  8.500      CL =  1.0410
      Cm =  0.0004     CD =  0.01300   =>   CDf =  0.00632    CDp =  0.00668

 Side 1  free  transition at x/c =  0.1032   39
 Side 2 forced transition at x/c =  1.0000   68

  11   rms: 0.7276E-02   max: -.1494E+00   C at   39  1
       a =  8.500      CL =  1.0410
      Cm =  0.0004     CD =  0.01300   =>   CDf =  0.00632    CDp =  0.00668

 Side 1  free  transition at x/c =  0.1032   39
 Side 2 forced transition at x/c =  1.0000   68

  12   rms: 0.7276E-02   max: -.1494E+00   C at   39  1
       a =  8.500      CL =  1.0410
      Cm =  0.0004     CD =  0.01300   =>   CDf =  0.00632    CDp =  0.00668

 Side 1  free  transition at x/c =  0.1032   39
 Side 2 forced transition at x/c =  1.0000   68

  13   rms: 0.7276E-02   max: -.1494E+00   C at   39  1
       a =  8.500      CL =  1.0410
      Cm =  0.0004     CD =  0.01300   =>   CDf =  0.00632    CDp =  0.00668

 Side 1  free  transition at x/c =  0.1032   39
 Side 2 forced transition at x/c =  1.0000   68

  14   rms: 0.7276E-02   max: -.1494E+00   C at   39  1
       a =  8.500      CL =  1.0410
      Cm =  0.0004     CD =  0.01300   =>   CDf =  0.00632    CDp =  0.00668

 Side 1  free  transition at x/c =  0.1032   39
 Side 2 forced transition at x/c =  1.0000   68

  15   rms: 0.7276E-02   max: -.1494E+00   C at   39  1
       a =  8.500      CL =  1.0410
      Cm =  0.0004     CD =  0.01300   =>   CDf =  0.00632    CDp =  0.00668

 Side 1  free  transition at x/c =  0.1032   39
 Side 2 forced transition at x/c =  1.0000   68

  16   rms: 0.7276E-02   max: -.1494E+00   C at   39  1
       a =  8.500      CL =  1.0410
      Cm =  0.0004     CD =  0.01300   =>   CDf =  0.00632    CDp =  0.00668

 Side 1  free  transition at x/c =  0.1032   39
 Side 2 forced transition at x/c =  1.0000   68

  17   rms: 0.7276E-02   max: -.1494E+00   C at   39  1
       a =  8.500      CL =  1.0410
      Cm =  0.0004     CD =  0.01300   =>   CDf =  0.00632    CDp =  0.00668

 Side 1  free  transition at x/c =  0.1032   39
 Side 2 forced transition at x/c =  1.0000   68

  18   rms: 0.7276E-02   max: -.1494E+00   C at   39  1
       a =  8.500      CL =  1.0410
      Cm =  0.0004     CD =  0.01300   =>   CDf =  0.00632    CDp =  0.00668

 Side 1  free  transition at x/c =  0.1032   39
 Side 2 forced transition at x/c =  1.0000   68

  19   rms: 0.7276E-02   max: -.1494E+00   C at   39  1
       a =  8.500      CL =  1.0410
      Cm =  0.0004     CD =  0.01300   =>   CDf =  0.00632    CDp =  0.00668

 Side 1  free  transition at x/c =  0.1032   39
 Side 2 forced transition at x/c =  1.0000   68

  20   rms: 0.7276E-02   max: -.1494E+00   C at   39  1
       a =  8.500      CL =  1.0410
      Cm =  0.0004     CD =  0.01300   =>   CDf =  0.00632    CDp =  0.00668

 Side 1  free  transition at x/c =  0.1032   39
 Side 2 forced transition at x/c =  1.0000   68

  21   rms: 0.7276E-02   max: -.1494E+00   C at   39  1
       a =  8.500      CL =  1.0410
      Cm =  0.0004     CD =  0.01300   =>   CDf =  0.00632    CDp =  0.00668

 Side 1  free  transition at x/c =  0.1032   39
 Side 2 forced transition at x/c =  1.0000   68

  22   rms: 0.7276E-02   max: -.1494E+00   C at   39  1
       a =  8.500      CL =  1.0410
      Cm =  0.0004     CD =  0.01300   =>   CDf =  0.00632    CDp =  0.00668

 Side 1  free  transition at x/c =  0.1032   39
 Side 2 forced transition at x/c =  1.0000   68

  23   rms: 0.7276E-02   max: -.1494E+00   C at   39  1
       a =  8.500      CL =  1.0410
      Cm =  0.0004     CD =  0.01300   =>   CDf =  0.00632    CDp =  0.00668

 Side 1  free  transition at x/c =  0.1032   39
 Side 2 forced transition at x/c =  1.0000   68

  24   rms: 0.7276E-02   max: -.1494E+00   C at   39  1
       a =  8.500      CL =  1.0410
      Cm =  0.0004     CD =  0.01300   =>   CDf =  0.00632    CDp =  0.00668

 Side 1  free  transition at x/c =  0.1032   39
 Side 2 forced transition at x/c =  1.0000   68

  25   rms: 0.7276E-02   max: -.1494E+00   C at   39  1
       a =  8.500      CL =  1.0410
      Cm =  0.0004     CD =  0.01300   =>   CDf =  0.00632    CDp =  0.00668

 Side 1  free  transition at x/c =  0.1032   39
 Side 2 forced transition at x/c =  1.0000   68

  26   rms: 0.7276E-02   max: -.1494E+00   C at   39  1
       a =  8.500      CL =  1.0410
      Cm =  0.0004     CD =  0.01300   =>   CDf =  0.00632    CDp =  0.00668

 Side 1  free  transition at x/c =  0.1032   39
 Side 2 forced transition at x/c =  1.0000   68

  27   rms: 0.7276E-02   max: -.1494E+00   C at   39  1
       a =  8.500      CL =  1.0410
      Cm =  0.0004     CD =  0.01300   =>   CDf =  0.00632    CDp =  0.00668

 Side 1  free  transition at x/c =  0.1032   39
 Side 2 forced transition at x/c =  1.0000   68

  28   rms: 0.7276E-02   max: -.1494E+00   C at   39  1
       a =  8.500      CL =  1.0410
      Cm =  0.0004     CD =  0.01300   =>   CDf =  0.00632    CDp =  0.00668

 Side 1  free  transition at x/c =  0.1032   39
 Side 2 forced transition at x/c =  1.0000   68

  29   rms: 0.7276E-02   max: -.1494E+00   C at   39  1
       a =  8.500      CL =  1.0410
      Cm =  0.0004     CD =  0.01300   =>   CDf =  0.00632    CDp =  0.00668

 Side 1  free  transition at x/c =  0.1032   39
 Side 2 forced transition at x/c =  1.0000   68

  30   rms: 0.7276E-02   max: -.1494E+00   C at   39  1
       a =  8.500      CL =  1.0410
      Cm =  0.0004     CD =  0.01300   =>   CDf =  0.00632    CDp =  0.00668

 Side 1  free  transition at x/c =  0.1032   39
 Side 2 forced transition at x/c =  1.0000   68

  31   rms: 0.7276E-02   max: -.1494E+00   C at   39  1
       a =  8.500      CL =  1.0410
      Cm =  0.0004     CD =  0.01300   =>   CDf =  0.00632    CDp =  0.00668

 Side 1  free  transition at x/c =  0.1032   39
 Side 2 forced transition at x/c =  1.0000   68

  32   rms: 0.7276E-02   max: -.1494E+00   C at   39  1
       a =  8.500      CL =  1.0410
      Cm =  0.0004     CD =  0.01300   =>   CDf =  0.00632    CDp =  0.00668

 Side 1  free  transition at x/c =  0.1032   39
 Side 2 forced transition at x/c =  1.0000   68

  33   rms: 0.7276E-02   max: -.1494E+00   C at   39  1
       a =  8.500      CL =  1.0410
      Cm =  0.0004     CD =  0.01300   =>   CDf =  0.00632    CDp =  0.00668

 Side 1  free  transition at x/c =  0.1032   39
 Side 2 forced transition at x/c =  1.0000   68

  34   rms: 0.7276E-02   max: -.1494E+00   C at   39  1
       a =  8.500      CL =  1.0410
      Cm =  0.0004     CD =  0.01300   =>   CDf =  0.00632    CDp =  0.00668

 Side 1  free  transition at x/c =  0.1032   39
 Side 2 forced transition at x/c =  1.0000   68

  35   rms: 0.7276E-02   max: -.1494E+00   C at   39  1
       a =  8.500      CL =  1.0410
      Cm =  0.0004     CD =  0.01300   =>   CDf =  0.00632    CDp =  0.00668

 Side 1  free  transition at x/c =  0.1032   39
 Side 2 forced transition at x/c =  1.0000   68

  36   rms: 0.7276E-02   max: -.1494E+00   C at   39  1
       a =  8.500      CL =  1.0410
      Cm =  0.0004     CD =  0.01300   =>   CDf =  0.00632    CDp =  0.00668

 Side 1  free  transition at x/c =  0.1032   39
 Side 2 forced transition at x/c =  1.0000   68

  37   rms: 0.7276E-02   max: -.1494E+00   C at   39  1
       a =  8.500      CL =  1.0410
      Cm =  0.0004     CD =  0.01300   =>   CDf =  0.00632    CDp =  0.00668

 Side 1  free  transition at x/c =  0.1032   39
 Side 2 forced transition at x/c =  1.0000   68

  38   rms: 0.7276E-02   max: -.1494E+00   C at   39  1
       a =  8.500      CL =  1.0410
      Cm =  0.0004     CD =  0.01300   =>   CDf =  0.00632    CDp =  0.00668

 Side 1  free  transition at x/c =  0.1032   39
 Side 2 forced transition at x/c =  1.0000   68

  39   rms: 0.7276E-02   max: -.1494E+00   C at   39  1
       a =  8.500      CL =  1.0410
      Cm =  0.0004     CD =  0.01300   =>   CDf =  0.00632    CDp =  0.00668

 Side 1  free  transition at x/c =  0.1032   39
 Side 2 forced transition at x/c =  1.0000   68

  40   rms: 0.7276E-02   max: -.1494E+00   C at   39  1
       a =  8.500      CL =  1.0410
      Cm =  0.0004     CD =  0.01300   =>   CDf =  0.00632    CDp =  0.00668

 Side 1  free  transition at x/c =  0.1032   39
 Side 2 forced transition at x/c =  1.0000   68

  41   rms: 0.7276E-02   max: -.1494E+00   C at   39  1
       a =  8.500      CL =  1.0410
      Cm =  0.0004     CD =  0.01300   =>   CDf =  0.00632    CDp =  0.00668

 Side 1  free  transition at x/c =  0.1032   39
 Side 2 forced transition at x/c =  1.0000   68

  42   rms: 0.7276E-02   max: -.1494E+00   C at   39  1
       a =  8.500      CL =  1.0410
      Cm =  0.0004     CD =  0.01300   =>   CDf =  0.00632    CDp =  0.00668

 Side 1  free  transition at x/c =  0.1032   39
 Side 2 forced transition at x/c =  1.0000   68

  43   rms: 0.7276E-02   max: -.1494E+00   C at   39  1
       a =  8.500      CL =  1.0410
      Cm =  0.0004     CD =  0.01300   =>   CDf =  0.00632    CDp =  0.00668

 Side 1  free  transition at x/c =  0.1032   39
 Side 2 forced transition at x/c =  1.0000   68

  44   rms: 0.7276E-02   max: -.1494E+00   C at   39  1
       a =  8.500      CL =  1.0410
      Cm =  0.0004     CD =  0.01300   =>   CDf =  0.00632    CDp =  0.00668

 Side 1  free  transition at x/c =  0.1032   39
 Side 2 forced transition at x/c =  1.0000   68

  45   rms: 0.7276E-02   max: -.1494E+00   C at   39  1
       a =  8.500      CL =  1.0410
      Cm =  0.0004     CD =  0.01300   =>   CDf =  0.00632    CDp =  0.00668

 Side 1  free  transition at x/c =  0.1032   39
 Side 2 forced transition at x/c =  1.0000   68

  46   rms: 0.7276E-02   max: -.1494E+00   C at   39  1
       a =  8.500      CL =  1.0410
      Cm =  0.0004     CD =  0.01300   =>   CDf =  0.00632    CDp =  0.00668

 Side 1  free  transition at x/c =  0.1032   39
 Side 2 forced transition at x/c =  1.0000   68

  47   rms: 0.7276E-02   max: -.1494E+00   C at   39  1
       a =  8.500      CL =  1.0410
      Cm =  0.0004     CD =  0.01300   =>   CDf =  0.00632    CDp =  0.00668

 Side 1  free  transition at x/c =  0.1032   39
 Side 2 forced transition at x/c =  1.0000   68

  48   rms: 0.7276E-02   max: -.1494E+00   C at   39  1
       a =  8.500      CL =  1.0410
      Cm =  0.0004     CD =  0.01300   =>   CDf =  0.00632    CDp =  0.00668

 Side 1  free  transition at x/c =  0.1032   39
 Side 2 forced transition at x/c =  1.0000   68

  49   rms: 0.7276E-02   max: -.1494E+00   C at   39  1
       a =  8.500      CL =  1.0410
      Cm =  0.0004     CD =  0.01300   =>   CDf =  0.00632    CDp =  0.00668

 Side 1  free  transition at x/c =  0.1032   39
 Side 2 forced transition at x/c =  1.0000   68

  50   rms: 0.7276E-02   max: -.1494E+00   C at   39  1
       a =  8.500      CL =  1.0410
      Cm =  0.0004     CD =  0.01300   =>   CDf =  0.00632    CDp =  0.00668

 Side 1  free  transition at x/c =  0.1032   39
 Side 2 forced transition at x/c =  1.0000   68

  51   rms: 0.7276E-02   max: -.1494E+00   C at   39  1
       a =  8.500      CL =  1.0410
      Cm =  0.0004     CD =  0.01300   =>   CDf =  0.00632    CDp =  0.00668

 Side 1  free  transition at x/c =  0.1032   39
 Side 2 forced transition at x/c =  1.0000   68

  52   rms: 0.7276E-02   max: -.1494E+00   C at   39  1
       a =  8.500      CL =  1.0410
      Cm =  0.0004     CD =  0.01300   =>   CDf =  0.00632    CDp =  0.00668

 Side 1  free  transition at x/c =  0.1032   39
 Side 2 forced transition at x/c =  1.0000   68

  53   rms: 0.7276E-02   max: -.1494E+00   C at   39  1
       a =  8.500      CL =  1.0410
      Cm =  0.0004     CD =  0.01300   =>   CDf =  0.00632    CDp =  0.00668

 Side 1  free  transition at x/c =  0.1032   39
 Side 2 forced transition at x/c =  1.0000   68

  54   rms: 0.7276E-02   max: -.1494E+00   C at   39  1
       a =  8.500      CL =  1.0410
      Cm =  0.0004     CD =  0.01300   =>   CDf =  0.00632    CDp =  0.00668

 Side 1  free  transition at x/c =  0.1032   39
 Side 2 forced transition at x/c =  1.0000   68

  55   rms: 0.7276E-02   max: -.1494E+00   C at   39  1
       a =  8.500      CL =  1.0410
      Cm =  0.0004     CD =  0.01300   =>   CDf =  0.00632    CDp =  0.00668

 Side 1  free  transition at x/c =  0.1032   39
 Side 2 forced transition at x/c =  1.0000   68

  56   rms: 0.7276E-02   max: -.1494E+00   C at   39  1
       a =  8.500      CL =  1.0410
      Cm =  0.0004     CD =  0.01300   =>   CDf =  0.00632    CDp =  0.00668

 Side 1  free  transition at x/c =  0.1032   39
 Side 2 forced transition at x/c =  1.0000   68

  57   rms: 0.7276E-02   max: -.1494E+00   C at   39  1
       a =  8.500      CL =  1.0410
      Cm =  0.0004     CD =  0.01300   =>   CDf =  0.00632    CDp =  0.00668

 Side 1  free  transition at x/c =  0.1032   39
 Side 2 forced transition at x/c =  1.0000   68

  58   rms: 0.7276E-02   max: -.1494E+00   C at   39  1
       a =  8.500      CL =  1.0410
      Cm =  0.0004     CD =  0.01300   =>   CDf =  0.00632    CDp =  0.00668

 Side 1  free  transition at x/c =  0.1032   39
 Side 2 forced transition at x/c =  1.0000   68

  59   rms: 0.7276E-02   max: -.1494E+00   C at   39  1
       a =  8.500      CL =  1.0410
      Cm =  0.0004     CD =  0.01300   =>   CDf =  0.00632    CDp =  0.00668

 Side 1  free  transition at x/c =  0.1032   39
 Side 2 forced transition at x/c =  1.0000   68

  60   rms: 0.7276E-02   max: -.1494E+00   C at   39  1
       a =  8.500      CL =  1.0410
      Cm =  0.0004     CD =  0.01300   =>   CDf =  0.00632    CDp =  0.00668

 Side 1  free  transition at x/c =  0.1032   39
 Side 2 forced transition at x/c =  1.0000   68

  61   rms: 0.7276E-02   max: -.1494E+00   C at   39  1
       a =  8.500      CL =  1.0410
      Cm =  0.0004     CD =  0.01300   =>   CDf =  0.00632    CDp =  0.00668

 Side 1  free  transition at x/c =  0.1032   39
 Side 2 forced transition at x/c =  1.0000   68

  62   rms: 0.7276E-02   max: -.1494E+00   C at   39  1
       a =  8.500      CL =  1.0410
      Cm =  0.0004     CD =  0.01300   =>   CDf =  0.00632    CDp =  0.00668

 Side 1  free  transition at x/c =  0.1032   39
 Side 2 forced transition at x/c =  1.0000   68

  63   rms: 0.7276E-02   max: -.1494E+00   C at   39  1
       a =  8.500      CL =  1.0410
      Cm =  0.0004     CD =  0.01300   =>   CDf =  0.00632    CDp =  0.00668

 Side 1  free  transition at x/c =  0.1032   39
 Side 2 forced transition at x/c =  1.0000   68

  64   rms: 0.7276E-02   max: -.1494E+00   C at   39  1
       a =  8.500      CL =  1.0410
      Cm =  0.0004     CD =  0.01300   =>   CDf =  0.00632    CDp =  0.00668

 Side 1  free  transition at x/c =  0.1032   39
 Side 2 forced transition at x/c =  1.0000   68

  65   rms: 0.7276E-02   max: -.1494E+00   C at   39  1
       a =  8.500      CL =  1.0410
      Cm =  0.0004     CD =  0.01300   =>   CDf =  0.00632    CDp =  0.00668

 Side 1  free  transition at x/c =  0.1032   39
 Side 2 forced transition at x/c =  1.0000   68

  66   rms: 0.7276E-02   max: -.1494E+00   C at   39  1
       a =  8.500      CL =  1.0410
      Cm =  0.0004     CD =  0.01300   =>   CDf =  0.00632    CDp =  0.00668

 Side 1  free  transition at x/c =  0.1032   39
 Side 2 forced transition at x/c =  1.0000   68

  67   rms: 0.7276E-02   max: -.1494E+00   C at   39  1
       a =  8.500      CL =  1.0410
      Cm =  0.0004     CD =  0.01300   =>   CDf =  0.00632    CDp =  0.00668

 Side 1  free  transition at x/c =  0.1032   39
 Side 2 forced transition at x/c =  1.0000   68

  68   rms: 0.7276E-02   max: -.1494E+00   C at   39  1
       a =  8.500      CL =  1.0410
      Cm =  0.0004     CD =  0.01300   =>   CDf =  0.00632    CDp =  0.00668

 Side 1  free  transition at x/c =  0.1032   39
 Side 2 forced transition at x/c =  1.0000   68

  69   rms: 0.7276E-02   max: -.1494E+00   C at   39  1
       a =  8.500      CL =  1.0410
      Cm =  0.0004     CD =  0.01300   =>   CDf =  0.00632    CDp =  0.00668

 Side 1  free  transition at x/c =  0.1032   39
 Side 2 forced transition at x/c =  1.0000   68

  70   rms: 0.7276E-02   max: -.1494E+00   C at   39  1
       a =  8.500      CL =  1.0410
      Cm =  0.0004     CD =  0.01300   =>   CDf =  0.00632    CDp =  0.00668

 Side 1  free  transition at x/c =  0.1032   39
 Side 2 forced transition at x/c =  1.0000   68

  71   rms: 0.7276E-02   max: -.1494E+00   C at   39  1
       a =  8.500      CL =  1.0410
      Cm =  0.0004     CD =  0.01300   =>   CDf =  0.00632    CDp =  0.00668

 Side 1  free  transition at x/c =  0.1032   39
 Side 2 forced transition at x/c =  1.0000   68

  72   rms: 0.7276E-02   max: -.1494E+00   C at   39  1
       a =  8.500      CL =  1.0410
      Cm =  0.0004     CD =  0.01300   =>   CDf =  0.00632    CDp =  0.00668

 Side 1  free  transition at x/c =  0.1032   39
 Side 2 forced transition at x/c =  1.0000   68

  73   rms: 0.7276E-02   max: -.1494E+00   C at   39  1
       a =  8.500      CL =  1.0410
      Cm =  0.0004     CD =  0.01300   =>   CDf =  0.00632    CDp =  0.00668

 Side 1  free  transition at x/c =  0.1032   39
 Side 2 forced transition at x/c =  1.0000   68

  74   rms: 0.7276E-02   max: -.1494E+00   C at   39  1
       a =  8.500      CL =  1.0410
      Cm =  0.0004     CD =  0.01300   =>   CDf =  0.00632    CDp =  0.00668

 Side 1  free  transition at x/c =  0.1032   39
 Side 2 forced transition at x/c =  1.0000   68

  75   rms: 0.7276E-02   max: -.1494E+00   C at   39  1
       a =  8.500      CL =  1.0410
      Cm =  0.0004     CD =  0.01300   =>   CDf =  0.00632    CDp =  0.00668

 Side 1  free  transition at x/c =  0.1032   39
 Side 2 forced transition at x/c =  1.0000   68

  76   rms: 0.7276E-02   max: -.1494E+00   C at   39  1
       a =  8.500      CL =  1.0410
      Cm =  0.0004     CD =  0.01300   =>   CDf =  0.00632    CDp =  0.00668

 Side 1  free  transition at x/c =  0.1032   39
 Side 2 forced transition at x/c =  1.0000   68

  77   rms: 0.7276E-02   max: -.1494E+00   C at   39  1
       a =  8.500      CL =  1.0410
      Cm =  0.0004     CD =  0.01300   =>   CDf =  0.00632    CDp =  0.00668

 Side 1  free  transition at x/c =  0.1032   39
 Side 2 forced transition at x/c =  1.0000   68

  78   rms: 0.7276E-02   max: -.1494E+00   C at   39  1
       a =  8.500      CL =  1.0410
      Cm =  0.0004     CD =  0.01300   =>   CDf =  0.00632    CDp =  0.00668

 Side 1  free  transition at x/c =  0.1032   39
 Side 2 forced transition at x/c =  1.0000   68

  79   rms: 0.7276E-02   max: -.1494E+00   C at   39  1
       a =  8.500      CL =  1.0410
      Cm =  0.0004     CD =  0.01300   =>   CDf =  0.00632    CDp =  0.00668

 Side 1  free  transition at x/c =  0.1032   39
 Side 2 forced transition at x/c =  1.0000   68

  80   rms: 0.7276E-02   max: -.1494E+00   C at   39  1
       a =  8.500      CL =  1.0410
      Cm =  0.0004     CD =  0.01300   =>   CDf =  0.00632    CDp =  0.00668

 Side 1  free  transition at x/c =  0.1032   39
 Side 2 forced transition at x/c =  1.0000   68

  81   rms: 0.7276E-02   max: -.1494E+00   C at   39  1
       a =  8.500      CL =  1.0410
      Cm =  0.0004     CD =  0.01300   =>   CDf =  0.00632    CDp =  0.00668

 Side 1  free  transition at x/c =  0.1032   39
 Side 2 forced transition at x/c =  1.0000   68

  82   rms: 0.7276E-02   max: -.1494E+00   C at   39  1
       a =  8.500      CL =  1.0410
      Cm =  0.0004     CD =  0.01300   =>   CDf =  0.00632    CDp =  0.00668

 Side 1  free  transition at x/c =  0.1032   39
 Side 2 forced transition at x/c =  1.0000   68

  83   rms: 0.7276E-02   max: -.1494E+00   C at   39  1
       a =  8.500      CL =  1.0410
      Cm =  0.0004     CD =  0.01300   =>   CDf =  0.00632    CDp =  0.00668

 Side 1  free  transition at x/c =  0.1032   39
 Side 2 forced transition at x/c =  1.0000   68

  84   rms: 0.7276E-02   max: -.1494E+00   C at   39  1
       a =  8.500      CL =  1.0410
      Cm =  0.0004     CD =  0.01300   =>   CDf =  0.00632    CDp =  0.00668

 Side 1  free  transition at x/c =  0.1032   39
 Side 2 forced transition at x/c =  1.0000   68

  85   rms: 0.7276E-02   max: -.1494E+00   C at   39  1
       a =  8.500      CL =  1.0410
      Cm =  0.0004     CD =  0.01300   =>   CDf =  0.00632    CDp =  0.00668

 Side 1  free  transition at x/c =  0.1032   39
 Side 2 forced transition at x/c =  1.0000   68

  86   rms: 0.7276E-02   max: -.1494E+00   C at   39  1
       a =  8.500      CL =  1.0410
      Cm =  0.0004     CD =  0.01300   =>   CDf =  0.00632    CDp =  0.00668

 Side 1  free  transition at x/c =  0.1032   39
 Side 2 forced transition at x/c =  1.0000   68

  87   rms: 0.7276E-02   max: -.1494E+00   C at   39  1
       a =  8.500      CL =  1.0410
      Cm =  0.0004     CD =  0.01300   =>   CDf =  0.00632    CDp =  0.00668

 Side 1  free  transition at x/c =  0.1032   39
 Side 2 forced transition at x/c =  1.0000   68

  88   rms: 0.7276E-02   max: -.1494E+00   C at   39  1
       a =  8.500      CL =  1.0410
      Cm =  0.0004     CD =  0.01300   =>   CDf =  0.00632    CDp =  0.00668

 Side 1  free  transition at x/c =  0.1032   39
 Side 2 forced transition at x/c =  1.0000   68

  89   rms: 0.7276E-02   max: -.1494E+00   C at   39  1
       a =  8.500      CL =  1.0410
      Cm =  0.0004     CD =  0.01300   =>   CDf =  0.00632    CDp =  0.00668

 Side 1  free  transition at x/c =  0.1032   39
 Side 2 forced transition at x/c =  1.0000   68

  90   rms: 0.7276E-02   max: -.1494E+00   C at   39  1
       a =  8.500      CL =  1.0410
      Cm =  0.0004     CD =  0.01300   =>   CDf =  0.00632    CDp =  0.00668

 Side 1  free  transition at x/c =  0.1032   39
 Side 2 forced transition at x/c =  1.0000   68

  91   rms: 0.7276E-02   max: -.1494E+00   C at   39  1
       a =  8.500      CL =  1.0410
      Cm =  0.0004     CD =  0.01300   =>   CDf =  0.00632    CDp =  0.00668

 Side 1  free  transition at x/c =  0.1032   39
 Side 2 forced transition at x/c =  1.0000   68

  92   rms: 0.7276E-02   max: -.1494E+00   C at   39  1
       a =  8.500      CL =  1.0410
      Cm =  0.0004     CD =  0.01300   =>   CDf =  0.00632    CDp =  0.00668

 Side 1  free  transition at x/c =  0.1032   39
 Side 2 forced transition at x/c =  1.0000   68

  93   rms: 0.7276E-02   max: -.1494E+00   C at   39  1
       a =  8.500      CL =  1.0410
      Cm =  0.0004     CD =  0.01300   =>   CDf =  0.00632    CDp =  0.00668

 Side 1  free  transition at x/c =  0.1032   39
 Side 2 forced transition at x/c =  1.0000   68

  94   rms: 0.7276E-02   max: -.1494E+00   C at   39  1
       a =  8.500      CL =  1.0410
      Cm =  0.0004     CD =  0.01300   =>   CDf =  0.00632    CDp =  0.00668

 Side 1  free  transition at x/c =  0.1032   39
 Side 2 forced transition at x/c =  1.0000   68

  95   rms: 0.7276E-02   max: -.1494E+00   C at   39  1
       a =  8.500      CL =  1.0410
      Cm =  0.0004     CD =  0.01300   =>   CDf =  0.00632    CDp =  0.00668

 Side 1  free  transition at x/c =  0.1032   39
 Side 2 forced transition at x/c =  1.0000   68

  96   rms: 0.7276E-02   max: -.1494E+00   C at   39  1
       a =  8.500      CL =  1.0410
      Cm =  0.0004     CD =  0.01300   =>   CDf =  0.00632    CDp =  0.00668

 Side 1  free  transition at x/c =  0.1032   39
 Side 2 forced transition at x/c =  1.0000   68

  97   rms: 0.7276E-02   max: -.1494E+00   C at   39  1
       a =  8.500      CL =  1.0410
      Cm =  0.0004     CD =  0.01300   =>   CDf =  0.00632    CDp =  0.00668

 Side 1  free  transition at x/c =  0.1032   39
 Side 2 forced transition at x/c =  1.0000   68

  98   rms: 0.7276E-02   max: -.1494E+00   C at   39  1
       a =  8.500      CL =  1.0410
      Cm =  0.0004     CD =  0.01300   =>   CDf =  0.00632    CDp =  0.00668

 Side 1  free  transition at x/c =  0.1032   39
 Side 2 forced transition at x/c =  1.0000   68

  99   rms: 0.7276E-02   max: -.1494E+00   C at   39  1
       a =  8.500      CL =  1.0410
      Cm =  0.0004     CD =  0.01300   =>   CDf =  0.00632    CDp =  0.00668

 Side 1  free  transition at x/c =  0.1032   39
 Side 2 forced transition at x/c =  1.0000   68

 100   rms: 0.7276E-02   max: -.1494E+00   C at   39  1
       a =  8.500      CL =  1.0410
      Cm =  0.0004     CD =  0.01300   =>   CDf =  0.00632    CDp =  0.00668

 Side 1  free  transition at x/c =  0.1032   39
 Side 2 forced transition at x/c =  1.0000   68

 101   rms: 0.7276E-02   max: -.1494E+00   C at   39  1
       a =  8.500      CL =  1.0410
      Cm =  0.0004     CD =  0.01300   =>   CDf =  0.00632    CDp =  0.00668

 Side 1  free  transition at x/c =  0.1032   39
 Side 2 forced transition at x/c =  1.0000   68

 102   rms: 0.7276E-02   max: -.1494E+00   C at   39  1
       a =  8.500      CL =  1.0410
      Cm =  0.0004     CD =  0.01300   =>   CDf =  0.00632    CDp =  0.00668

 Side 1  free  transition at x/c =  0.1032   39
 Side 2 forced transition at x/c =  1.0000   68

 103   rms: 0.7276E-02   max: -.1494E+00   C at   39  1
       a =  8.500      CL =  1.0410
      Cm =  0.0004     CD =  0.01300   =>   CDf =  0.00632    CDp =  0.00668

 Side 1  free  transition at x/c =  0.1032   39
 Side 2 forced transition at x/c =  1.0000   68

 104   rms: 0.7276E-02   max: -.1494E+00   C at   39  1
       a =  8.500      CL =  1.0410
      Cm =  0.0004     CD =  0.01300   =>   CDf =  0.00632    CDp =  0.00668

 Side 1  free  transition at x/c =  0.1032   39
 Side 2 forced transition at x/c =  1.0000   68

 105   rms: 0.7276E-02   max: -.1494E+00   C at   39  1
       a =  8.500      CL =  1.0410
      Cm =  0.0004     CD =  0.01300   =>   CDf =  0.00632    CDp =  0.00668

 Side 1  free  transition at x/c =  0.1032   39
 Side 2 forced transition at x/c =  1.0000   68

 106   rms: 0.7276E-02   max: -.1494E+00   C at   39  1
       a =  8.500      CL =  1.0410
      Cm =  0.0004     CD =  0.01300   =>   CDf =  0.00632    CDp =  0.00668

 Side 1  free  transition at x/c =  0.1032   39
 Side 2 forced transition at x/c =  1.0000   68

 107   rms: 0.7276E-02   max: -.1494E+00   C at   39  1
       a =  8.500      CL =  1.0410
      Cm =  0.0004     CD =  0.01300   =>   CDf =  0.00632    CDp =  0.00668

 Side 1  free  transition at x/c =  0.1032   39
 Side 2 forced transition at x/c =  1.0000   68

 108   rms: 0.7276E-02   max: -.1494E+00   C at   39  1
       a =  8.500      CL =  1.0410
      Cm =  0.0004     CD =  0.01300   =>   CDf =  0.00632    CDp =  0.00668

 Side 1  free  transition at x/c =  0.1032   39
 Side 2 forced transition at x/c =  1.0000   68

 109   rms: 0.7276E-02   max: -.1494E+00   C at   39  1
       a =  8.500      CL =  1.0410
      Cm =  0.0004     CD =  0.01300   =>   CDf =  0.00632    CDp =  0.00668

 Side 1  free  transition at x/c =  0.1032   39
 Side 2 forced transition at x/c =  1.0000   68

 110   rms: 0.7276E-02   max: -.1494E+00   C at   39  1
       a =  8.500      CL =  1.0410
      Cm =  0.0004     CD =  0.01300   =>   CDf =  0.00632    CDp =  0.00668

 Side 1  free  transition at x/c =  0.1032   39
 Side 2 forced transition at x/c =  1.0000   68

 111   rms: 0.7276E-02   max: -.1494E+00   C at   39  1
       a =  8.500      CL =  1.0410
      Cm =  0.0004     CD =  0.01300   =>   CDf =  0.00632    CDp =  0.00668

 Side 1  free  transition at x/c =  0.1032   39
 Side 2 forced transition at x/c =  1.0000   68

 112   rms: 0.7276E-02   max: -.1494E+00   C at   39  1
       a =  8.500      CL =  1.0410
      Cm =  0.0004     CD =  0.01300   =>   CDf =  0.00632    CDp =  0.00668

 Side 1  free  transition at x/c =  0.1032   39
 Side 2 forced transition at x/c =  1.0000   68

 113   rms: 0.7276E-02   max: -.1494E+00   C at   39  1
       a =  8.500      CL =  1.0410
      Cm =  0.0004     CD =  0.01300   =>   CDf =  0.00632    CDp =  0.00668

 Side 1  free  transition at x/c =  0.1032   39
 Side 2 forced transition at x/c =  1.0000   68

 114   rms: 0.7276E-02   max: -.1494E+00   C at   39  1
       a =  8.500      CL =  1.0410
[...]
      Cm =  0.0318     CD =  0.02302   =>   CDf =  0.00599    CDp =  0.01702

 Side 1  free  transition at x/c =  0.0523   38
 Side 2 forced transition at x/c =  1.0000   64

   2   rms: 0.1974E-01   max: -.1571E+00   D at   38  1
       a = 12.500      CL =  1.2881
      Cm =  0.0303     CD =  0.02243   =>   CDf =  0.00590    CDp =  0.01654

 Side 1  free  transition at x/c =  0.0525   38
 Side 2 forced transition at x/c =  1.0000   64

   3   rms: 0.1711E-02   max: -.6967E-02   D at   96  1
       a = 12.500      CL =  1.2897
      Cm =  0.0300     CD =  0.02244   =>   CDf =  0.00592    CDp =  0.01652

 Side 1  free  transition at x/c =  0.0525   38
 Side 2 forced transition at x/c =  1.0000   64

   4   rms: 0.2806E-04   max: 0.3303E-03   D at   95  1
       a = 12.500      CL =  1.2897
      Cm =  0.0300     CD =  0.02244   =>   CDf =  0.00591    CDp =  0.01652
 plradd ia,ip,cpol           39           0  3.69490753E-03

 Point added to stored polar  1
 Point written to save file  goe766_Re600k.base.pol                          
 Dump file unspecified or not available
 Calculating wake trajectory ...
 Calculating source influence matrix ...

 Solving BL system ...

 Side 1  free  transition at x/c =  0.0525   38
 Side 2 forced transition at x/c =  1.0000   64

   1   rms: 0.3179E-01   max: 0.9570E-01   T at   38  1
       a = 12.750      CL =  1.3008
      Cm =  0.0322     CD =  0.02308   =>   CDf =  0.00592    CDp =  0.01716

 Side 1  free  transition at x/c =  0.0517   38
 Side 2 forced transition at x/c =  1.0000   64

   2   rms: 0.1921E-02   max: 0.1547E-01   D at   95  1
       a = 12.750      CL =  1.2995
      Cm =  0.0322     CD =  0.02312   =>   CDf =  0.00584    CDp =  0.01729

 Side 1  free  transition at x/c =  0.0517   38
 Side 2 forced transition at x/c =  1.0000   64

   3   rms: 0.3342E-04   max: 0.6594E-03   D at   94  1
       a = 12.750      CL =  1.2995
      Cm =  0.0322     CD =  0.02312   =>   CDf =  0.00584    CDp =  0.01729
 plradd ia,ip,cpol           40           0  2.57492275E-03

 Point added to stored polar  1
 Point written to save file  goe766_Re600k.base.pol                          
 Dump file unspecified or not available
 Calculating wake trajectory ...
 Calculating source influence matrix ...

 Solving BL system ...

 Side 1  free  transition at x/c =  0.0517   38
 Side 2 forced transition at x/c =  1.0000   64

   1   rms: 0.3227E-01   max: 0.8268E-01   T at   38  1
       a = 13.000      CL =  1.3091
      Cm =  0.0343     CD =  0.02393   =>   CDf =  0.00584    CDp =  0.01810

 Side 1  free  transition at x/c =  0.0509   38
 Side 2 forced transition at x/c =  1.0000   64

   2   rms: 0.2315E-02   max: 0.2290E-01   D at   93  1
       a = 13.000      CL =  1.3077
      Cm =  0.0343     CD =  0.02398   =>   CDf =  0.00576    CDp =  0.01821

 Side 1  free  transition at x/c =  0.0509   38
 Side 2 forced transition at x/c =  1.0000   64

   3   rms: 0.6193E-04   max: 0.1116E-02   D at   92  1
       a = 13.000      CL =  1.3077
      Cm =  0.0343     CD =  0.02398   =>   CDf =  0.00576    CDp =  0.01821
 plradd ia,ip,cpol           41           0  2.57492275E-03

 Point added to stored polar  1
 Point written to save file  goe766_Re600k.base.pol                          
 Dump file unspecified or not available
 Calculating wake trajectory ...
 Calculating source influence matrix ...

 Solving BL system ...

 Side 1  free  transition at x/c =  0.0509   38
 Side 2 forced transition at x/c =  1.0000   64

   1   rms: 0.3311E-01   max: 0.8473E-01   T at   38  1
       a = 13.250      CL =  1.3165
      Cm =  0.0361     CD =  0.02493   =>   CDf =  0.00549    CDp =  0.01944

 Side 1  free  transition at x/c =  0.0499   39
 Side 2 forced transition at x/c =  1.0000   63

   2   rms: 0.6058E-02   max: -.9477E-01   D at    2  1
       a = 13.250      CL =  1.3151
      Cm =  0.0361     CD =  0.02497   =>   CDf =  0.00569    CDp =  0.01928

 Side 1  free  transition at x/c =  0.0500   39
 Side 2 forced transition at x/c =  1.0000   63

   3   rms: 0.8757E-03   max: -.1101E-01   D at    4  1
       a = 13.250      CL =  1.3152
      Cm =  0.0361     CD =  0.02497   =>   CDf =  0.00569    CDp =  0.01928

 Side 1  free  transition at x/c =  0.0500   39
 Side 2 forced transition at x/c =  1.0000   63

   4   rms: 0.2700E-05   max: 0.2491E-04   D at    6  1
       a = 13.250      CL =  1.3152
      Cm =  0.0361     CD =  0.02497   =>   CDf =  0.00569    CDp =  0.01928
 plradd ia,ip,cpol           42           0  1.65258138E-03

 Point added to stored polar  1
 Point written to save file  goe766_Re600k.base.pol                          
 Dump file unspecified or not available
 Calculating wake trajectory ...
 Calculating source influence matrix ...

 Solving BL system ...

 Side 1  free  transition at x/c =  0.0500   39
 Side 2 forced transition at x/c =  1.0000   63

   1   rms: 0.3421E-01   max: 0.9579E-01   D at   88  1
       a = 13.500      CL =  1.3226
      Cm =  0.0377     CD =  0.02613   =>   CDf =  0.00569    CDp =  0.02044

 Side 1  free  transition at x/c =  0.0491   39
 Side 2 forced transition at x/c =  1.0000   63

   2   rms: 0.3173E-02   max: 0.2760E-01   D at   90  1
       a = 13.500      CL =  1.3212
      Cm =  0.0376     CD =  0.02617   =>   CDf =  0.00562    CDp =  0.02055

 Side 1  free  transition at x/c =  0.0491   39
 Side 2 forced transition at x/c =  1.0000   63

   3   rms: 0.1021E-03   max: 0.1313E-02   D at   89  1
       a = 13.500      CL =  1.3213
      Cm =  0.0376     CD =  0.02617   =>   CDf =  0.00562    CDp =  0.02055

 Side 1  free  transition at x/c =  0.0491   39
 Side 2 forced transition at x/c =  1.0000   63

   4   rms: 0.6832E-06   max: -.4847E-05   D at   77  2
       a = 13.500      CL =  1.3213
      Cm =  0.0376     CD =  0.02617   =>   CDf =  0.00562    CDp =  0.02055
 plradd ia,ip,cpol           43           0  1.65258138E-03

 Point added to stored polar  1
 Point written to save file  goe766_Re600k.base.pol                          
 Dump file unspecified or not available
 Calculating wake trajectory ...
 Calculating source influence matrix ...

 Solving BL system ...

 Side 1  free  transition at x/c =  0.0491   39
 Side 2 forced transition at x/c =  1.0000   63

   1   rms: 0.3556E-01   max: 0.1007E+00   D at   86  1
       a = 13.750      CL =  1.3287
      Cm =  0.0388     CD =  0.02748   =>   CDf =  0.00562    CDp =  0.02186

 Side 1  free  transition at x/c =  0.0482   39
 Side 2 forced transition at x/c =  1.0000   63

   2   rms: 0.3697E-02   max: 0.3305E-01   D at   88  1
       a = 13.750      CL =  1.3267
      Cm =  0.0387     CD =  0.02757   =>   CDf =  0.00556    CDp =  0.02201

 Side 1  free  transition at x/c =  0.0483   39
 Side 2 forced transition at x/c =  1.0000   63

   3   rms: 0.9452E-04   max: 0.2122E-02   D at   87  1
       a = 13.750      CL =  1.3267
      Cm =  0.0387     CD =  0.02756   =>   CDf =  0.00556    CDp =  0.02201
 plradd ia,ip,cpol           44           0  1.65258138E-03

 Point added to stored polar  1
 Point written to save file  goe766_Re600k.base.pol                          
 Dump file unspecified or not available
 Calculating wake trajectory ...
 Calculating source influence matrix ...

 Solving BL system ...

 Side 1  free  transition at x/c =  0.0483   39
 Side 2 forced transition at x/c =  1.0000   63

   1   rms: 0.3783E-01   max: 0.1173E+00   D at   85  1
       a = 14.000      CL =  1.3322
      Cm =  0.0395     CD =  0.02925   =>   CDf =  0.00556    CDp =  0.02369

 Side 1  free  transition at x/c =  0.0472   39
 Side 2 forced transition at x/c =  1.0000   63

   2   rms: 0.6132E-02   max: 0.4697E-01   D at   86  1
       a = 14.000      CL =  1.3289
      Cm =  0.0394     CD =  0.02943   =>   CDf =  0.00552    CDp =  0.02392

 Side 1  free  transition at x/c =  0.0474   39
 Side 2 forced transition at x/c =  1.0000   63

   3   rms: 0.1939E-03   max: 0.3193E-02   D at   84  1
       a = 14.000      CL =  1.3289
      Cm =  0.0394     CD =  0.02942   =>   CDf =  0.00550    CDp =  0.02391

 Side 1  free  transition at x/c =  0.0474   39
 Side 2 forced transition at x/c =  1.0000   63

   4   rms: 0.3031E-05   max: 0.3789E-04   D at   84  1
       a = 14.000      CL =  1.3289
      Cm =  0.0394     CD =  0.02942   =>   CDf =  0.00550    CDp =  0.02391
 plradd ia,ip,cpol           45           0  1.65258138E-03

 Point added to stored polar  1
 Point written to save file  goe766_Re600k.base.pol                          
 Dump file unspecified or not available
 Calculating wake trajectory ...
 Calculating source influence matrix ...

 Solving BL system ...

 Side 1  free  transition at x/c =  0.0474   39
 Side 2 forced transition at x/c =  1.0000   63

   1   rms: 0.4302E-01   max: 0.1496E+00   D at   83  1
       a = 14.250      CL =  1.3302
      Cm =  0.0396     CD =  0.03178   =>   CDf =  0.00551    CDp =  0.02628

 Side 1  free  transition at x/c =  0.0463   39
 Side 2 forced transition at x/c =  1.0000   63

   2   rms: 0.9086E-02   max: 0.6460E-01   D at   83  1
       a = 14.250      CL =  1.3253
      Cm =  0.0394     CD =  0.03216   =>   CDf =  0.00546    CDp =  0.02670

 Side 1  free  transition at x/c =  0.0464   39
 Side 2 forced transition at x/c =  1.0000   63

   3   rms: 0.4953E-03   max: 0.8880E-02   D at   81  1
       a = 14.250      CL =  1.3251
      Cm =  0.0394     CD =  0.03212   =>   CDf =  0.00544    CDp =  0.02668

 Side 1  free  transition at x/c =  0.0464   39
 Side 2 forced transition at x/c =  1.0000   63

   4   rms: 0.1592E-04   max: 0.7969E-04   D at   71  2
       a = 14.250      CL =  1.3251
      Cm =  0.0394     CD =  0.03212   =>   CDf =  0.00544    CDp =  0.02668
 plradd ia,ip,cpol           46           0  1.65258138E-03

 Point added to stored polar  1
 Point written to save file  goe766_Re600k.base.pol                          
 Dump file unspecified or not available
 Calculating wake trajectory ...
 Calculating source influence matrix ...

 Solving BL system ...

 Side 1  free  transition at x/c =  0.0464   39
 Side 2 forced transition at x/c =  1.0000   63

   1   rms: 0.4943E-01   max: 0.1785E+00   D at   79  1
       a = 14.500      CL =  1.3225
      Cm =  0.0389     CD =  0.03533   =>   CDf =  0.00544    CDp =  0.02989

 Side 1  free  transition at x/c =  0.0458   38
 Side 2 forced transition at x/c =  1.0000   63

   2   rms: 0.5259E-02   max: 0.4988E-01   D at   79  1
       a = 14.500      CL =  1.3204
      Cm =  0.0389     CD =  0.03527   =>   CDf =  0.00536    CDp =  0.02991

 Side 1  free  transition at x/c =  0.0458   38
 Side 2 forced transition at x/c =  1.0000   63

   3   rms: 0.2522E-03   max: 0.3184E-02   D at   77  1
       a = 14.500      CL =  1.3203
      Cm =  0.0389     CD =  0.03524   =>   CDf =  0.00535    CDp =  0.02989

 Side 1  free  transition at x/c =  0.0458   38
 Side 2 forced transition at x/c =  1.0000   63

   4   rms: 0.5705E-05   max: 0.5676E-04   D at   72  2
       a = 14.500      CL =  1.3203
      Cm =  0.0389     CD =  0.03524   =>   CDf =  0.00535    CDp =  0.02989
 plradd ia,ip,cpol           47           0  1.65258138E-03

 Point added to stored polar  1
 Point written to save file  goe766_Re600k.base.pol                          
 Dump file unspecified or not available
 Calculating wake trajectory ...
 Calculating source influence matrix ...

 Solving BL system ...

 Side 1  free  transition at x/c =  0.0458   38
 Side 2 forced transition at x/c =  1.0000   63

   1   rms: 0.3654E-01   max: -.1100E+00   C at   38  1
       a = 14.750      CL =  1.3301
      Cm =  0.0381     CD =  0.03739   =>   CDf =  0.00536    CDp =  0.03203

 Side 1  free  transition at x/c =  0.0454   38
 Side 2 forced transition at x/c =  1.0000   63

   2   rms: 0.6528E-02   max: 0.4003E-01   D at   76  1
       a = 14.750      CL =  1.3264
      Cm =  0.0381     CD =  0.03754   =>   CDf =  0.00525    CDp =  0.03229

 Side 1  free  transition at x/c =  0.0454   38
 Side 2 forced transition at x/c =  1.0000   63

   3   rms: 0.7950E-03   max: 0.5228E-02   D at   75  1
       a = 14.750      CL =  1.3260
      Cm =  0.0381     CD =  0.03754   =>   CDf =  0.00524    CDp =  0.03229

 Side 1  free  transition at x/c =  0.0454   38
 Side 2 forced transition at x/c =  1.0000   63

   4   rms: 0.6474E-04   max: 0.2593E-03   D at   73  2
       a = 14.750      CL =  1.3259
      Cm =  0.0381     CD =  0.03753   =>   CDf =  0.00524    CDp =  0.03229
 plradd ia,ip,cpol           48           0  9.18462349E-04

 Point added to stored polar  1
 Point written to save file  goe766_Re600k.base.pol                          
 Dump file unspecified or not available
 Calculating wake trajectory ...
 Calculating source influence matrix ...

 Solving BL system ...

 Side 1  free  transition at x/c =  0.0454   38
 Side 2 forced transition at x/c =  1.0000   63

   1   rms: 0.3715E-01   max: 0.1211E+00   D at   74  1   RLX: 0.952
       a = 15.000      CL =  1.3330
      Cm =  0.0371     CD =  0.03999   =>   CDf =  0.00493    CDp =  0.03506

 Side 1  free  transition at x/c =  0.0448   39
 Side 2 forced transition at x/c =  1.0000   62

   2   rms: 0.6397E-02   max: 0.4498E-01   D at   75  1
       a = 15.000      CL =  1.3300
      Cm =  0.0371     CD =  0.04018   =>   CDf =  0.00514    CDp =  0.03504

 Side 1  free  transition at x/c =  0.0448   39
 Side 2 forced transition at x/c =  1.0000   62

   3   rms: 0.8141E-03   max: -.6742E-02   D at    4  1
       a = 15.000      CL =  1.3296
      Cm =  0.0371     CD =  0.04015   =>   CDf =  0.00513    CDp =  0.03502

 Side 1  free  transition at x/c =  0.0448   39
 Side 2 forced transition at x/c =  1.0000   62

   4   rms: 0.4210E-04   max: 0.1809E-03   D at   72  2
       a = 15.000      CL =  1.3295
      Cm =  0.0371     CD =  0.04015   =>   CDf =  0.00513    CDp =  0.03502
 plradd ia,ip,cpol           49           0  9.18462349E-04

 Point added to stored polar  1
 Point written to save file  goe766_Re600k.base.pol                          
 Dump file unspecified or not available
 Calculating wake trajectory ...
 Calculating source influence matrix ...

 Solving BL system ...

 Side 1  free  transition at x/c =  0.0448   39
 Side 2 forced transition at x/c =  1.0000   62

   1   rms: 0.3740E-01   max: 0.1263E+00   D at   73  1   RLX: 0.906
       a = 15.250      CL =  1.3354
      Cm =  0.0359     CD =  0.04277   =>   CDf =  0.00513    CDp =  0.03764

 Side 1  free  transition at x/c =  0.0442   39
 Side 2 forced transition at x/c =  1.0000   62

   2   rms: 0.8309E-02   max: 0.5236E-01   D at   73  1
       a = 15.250      CL =  1.3319
      Cm =  0.0359     CD =  0.04311   =>   CDf =  0.00504    CDp =  0.03807

 Side 1  free  transition at x/c =  0.0442   39
 Side 2 forced transition at x/c =  1.0000   62

   3   rms: 0.1121E-02   max: 0.7384E-02   D at   72  1
       a = 15.250      CL =  1.3311
      Cm =  0.0359     CD =  0.04307   =>   CDf =  0.00502    CDp =  0.03805

 Side 1  free  transition at x/c =  0.0442   39
 Side 2 forced transition at x/c =  1.0000   62

   4   rms: 0.8443E-04   max: 0.3647E-03   D at   72  2
       a = 15.250      CL =  1.3311
      Cm =  0.0359     CD =  0.04306   =>   CDf =  0.00502    CDp =  0.03804
 plradd ia,ip,cpol           50           0  9.18462349E-04

 Point added to stored polar  1
 Point written to save file  goe766_Re600k.base.pol                          
 Dump file unspecified or not available
 Calculating wake trajectory ...
 Calculating source influence matrix ...

 Solving BL system ...

 Side 1  free  transition at x/c =  0.0442   39
 Side 2 forced transition at x/c =  1.0000   62

   1   rms: 0.3813E-01   max: 0.1341E+00   D at   71  1   RLX: 0.860
       a = 15.500      CL =  1.3344
      Cm =  0.0347     CD =  0.04589   =>   CDf =  0.00503    CDp =  0.04087

 Side 1  free  transition at x/c =  0.0436   39
 Side 2 forced transition at x/c =  1.0000   62

   2   rms: 0.8711E-02   max: 0.5381E-01   D at   71  1
       a = 15.500      CL =  1.3313
      Cm =  0.0346     CD =  0.04631   =>   CDf =  0.00495    CDp =  0.04136

 Side 1  free  transition at x/c =  0.0436   39
 Side 2 forced transition at x/c =  1.0000   62

   3   rms: 0.1164E-02   max: 0.8934E-02   D at   70  1
       a = 15.500      CL =  1.3305
      Cm =  0.0347     CD =  0.04625   =>   CDf =  0.00493    CDp =  0.04133

 Side 1  free  transition at x/c =  0.0436   39
 Side 2 forced transition at x/c =  1.0000   62

   4   rms: 0.9636E-04   max: 0.4115E-03   D at   73  2
       a = 15.500      CL =  1.3304
      Cm =  0.0347     CD =  0.04625   =>   CDf =  0.00493    CDp =  0.04132
 plradd ia,ip,cpol           51           0  9.18462349E-04

 Point added to stored polar  1
 Point written to save file  goe766_Re600k.base.pol                          
 Dump file unspecified or not available
 Calculating wake trajectory ...
 Calculating source influence matrix ...

 Solving BL system ...

 Side 1  free  transition at x/c =  0.0436   39
 Side 2 forced transition at x/c =  1.0000   62

   1   rms: 0.3748E-01   max: 0.1344E+00   D at   69  1   RLX: 0.816
       a = 15.750      CL =  1.3326
      Cm =  0.0334     CD =  0.04913   =>   CDf =  0.00493    CDp =  0.04420

 Side 1  free  transition at x/c =  0.0432   39
 Side 2 forced transition at x/c =  1.0000   62

   2   rms: 0.9971E-02   max: 0.5467E-01   D at   69  1
       a = 15.750      CL =  1.3293
      Cm =  0.0333     CD =  0.04971   =>   CDf =  0.00486    CDp =  0.04485

 Side 1  free  transition at x/c =  0.0431   39
 Side 2 forced transition at x/c =  1.0000   62

   3   rms: 0.1389E-02   max: 0.9212E-02   D at   73  2
       a = 15.750      CL =  1.3283
      Cm =  0.0334     CD =  0.04962   =>   CDf =  0.00484    CDp =  0.04478

 Side 1  free  transition at x/c =  0.0432   39
 Side 2 forced transition at x/c =  1.0000   62

   4   rms: 0.9219E-04   max: 0.6245E-03   D at   73  2
       a = 15.750      CL =  1.3282
      Cm =  0.0334     CD =  0.04961   =>   CDf =  0.00484    CDp =  0.04477
 plradd ia,ip,cpol           52           0  9.18462349E-04

 Point added to stored polar  1
 Point written to save file  goe766_Re600k.base.pol                          
 Dump file unspecified or not available
 Calculating wake trajectory ...
 Calculating source influence matrix ...

 Solving BL system ...

 Side 1  free  transition at x/c =  0.0432   39
 Side 2 forced transition at x/c =  1.0000   62

   1   rms: 0.3656E-01   max: 0.1338E+00   D at   67  1   RLX: 0.776
       a = 16.000      CL =  1.3295
      Cm =  0.0321     CD =  0.05247   =>   CDf =  0.00484    CDp =  0.04763

 Side 1  free  transition at x/c =  0.0426   39
 Side 2 forced transition at x/c =  1.0000   62

   2   rms: 0.1088E-01   max: 0.5176E-01   D at   68  1
       a = 16.000      CL =  1.3262
      Cm =  0.0319     CD =  0.05322   =>   CDf =  0.00478    CDp =  0.04844

 Side 1  free  transition at x/c =  0.0426   39
 Side 2 forced transition at x/c =  1.0000   62

   3   rms: 0.1801E-02   max: 0.1135E-01   D at   67  1
       a = 16.000      CL =  1.3249
      Cm =  0.0319     CD =  0.05315   =>   CDf =  0.00476    CDp =  0.04840

 Side 1  free  transition at x/c =  0.0426   39
 Side 2 forced transition at x/c =  1.0000   62

   4   rms: 0.1569E-03   max: 0.6688E-03   D at   74  2
       a = 16.000      CL =  1.3248
      Cm =  0.0319     CD =  0.05314   =>   CDf =  0.00475    CDp =  0.04838

 Side 1  free  transition at x/c =  0.0426   39
 Side 2 forced transition at x/c =  1.0000   62

   5   rms: 0.8438E-05   max: -.3970E-04   C at   62  2
       a = 16.000      CL =  1.3248
      Cm =  0.0319     CD =  0.05314   =>   CDf =  0.00475    CDp =  0.04838
 plradd ia,ip,cpol           53           0  9.18462349E-04

 Point added to stored polar  1
 Point written to save file  goe766_Re600k.base.pol                          
 Dump file unspecified or not available

.OPERva   c>  
 Polar accumulation disabled

.OPERv   c>  
 XFOIL   c>  
 XFOIL   c>  