  
       XFOIL         Version 6.99
  
 Calculated polar for: GOE 797 AIRFOIL                                 
  
 1 1 Reynolds number fixed          Mach number fixed         
  
 xtrf =   1.000 (top)        1.000 (bottom)  
 Mach =   0.000     Re =     0.500 e 6     Ncrit =   9.000
  
   alpha    CL        CD       CDp       CM     Top_Xtr  Bot_Xtr
  ------ -------- --------- --------- -------- -------- --------
-4.000   0.0853   0.01153   0.00449  -0.1178   0.7387   0.1043
-3.000   0.2006   0.01136   0.00421  -0.1184   0.7182   0.1282
-2.500   0.2581   0.01121   0.00403  -0.1188   0.7089   0.1405
-2.000   0.3152   0.01101   0.00385  -0.1190   0.6995   0.1516
-1.500   0.3728   0.01093   0.00371  -0.1194   0.6903   0.1629
-1.000   0.4297   0.01074   0.00355  -0.1196   0.6797   0.1758
-0.500   0.4870   0.01060   0.00346  -0.1200   0.6715   0.1947
0.000   0.5439   0.01036   0.00340  -0.1204   0.6630   0.2338
0.500   0.5997   0.00990   0.00342  -0.1208   0.6547   0.3869
1.000   0.6475   0.00881   0.00359  -0.1193   0.6452   0.7754
1.500   0.6998   0.00863   0.00375  -0.1176   0.6358   0.9583
2.000   0.7914   0.00877   0.00381  -0.1253   0.6248   0.9996
2.500   0.8410   0.00887   0.00386  -0.1241   0.6135   1.0000
3.000   0.8905   0.00902   0.00392  -0.1229   0.6014   1.0000
3.500   0.9406   0.00919   0.00401  -0.1218   0.5871   1.0000
4.000   0.9903   0.00938   0.00415  -0.1207   0.5683   1.0000
4.500   1.0387   0.00964   0.00433  -0.1193   0.5438   1.0000
5.000   1.0842   0.01003   0.00459  -0.1174   0.5122   1.0000
5.500   1.1243   0.01064   0.00499  -0.1146   0.4723   1.0000
6.000   1.1608   0.01140   0.00555  -0.1111   0.4322   1.0000
6.500   1.1938   0.01223   0.00621  -0.1071   0.4022   1.0000
7.000   1.2266   0.01303   0.00691  -0.1031   0.3816   1.0000
7.500   1.2621   0.01384   0.00768  -0.0998   0.3667   1.0000
8.000   1.2972   0.01475   0.00853  -0.0967   0.3541   1.0000
8.500   1.3357   0.01556   0.00937  -0.0943   0.3433   1.0000
9.000   1.3725   0.01649   0.01032  -0.0918   0.3338   1.0000
9.500   1.4075   0.01754   0.01138  -0.0891   0.3236   1.0000
10.000   1.4439   0.01855   0.01248  -0.0868   0.3136   1.0000
10.250   1.4596   0.01920   0.01312  -0.0854   0.3077   1.0000
10.500   1.4749   0.01988   0.01382  -0.0840   0.3020   1.0000
10.750   1.4929   0.02043   0.01442  -0.0830   0.2956   1.0000
11.000   1.5057   0.02128   0.01525  -0.0814   0.2885   1.0000
11.250   1.5226   0.02192   0.01596  -0.0803   0.2808   1.0000
11.500   1.5343   0.02289   0.01690  -0.0787   0.2720   1.0000
11.750   1.5492   0.02370   0.01775  -0.0775   0.2616   1.0000
12.000   1.5601   0.02478   0.01882  -0.0760   0.2499   1.0000
12.250   1.5686   0.02606   0.02007  -0.0743   0.2352   1.0000
12.500   1.5739   0.02762   0.02156  -0.0724   0.2168   1.0000
12.750   1.5752   0.02952   0.02336  -0.0703   0.1990   1.0000
13.000   1.5764   0.03151   0.02529  -0.0683   0.1856   1.0000
13.250   1.5797   0.03341   0.02717  -0.0666   0.1762   1.0000
13.500   1.5812   0.03551   0.02923  -0.0649   0.1686   1.0000
13.750   1.5883   0.03717   0.03093  -0.0637   0.1626   1.0000
14.000   1.5908   0.03926   0.03302  -0.0622   0.1569   1.0000
14.250   1.5979   0.04101   0.03482  -0.0612   0.1523   1.0000
14.500   1.6043   0.04284   0.03669  -0.0602   0.1474   1.0000
14.750   1.6065   0.04507   0.03893  -0.0590   0.1427   1.0000
15.000   1.6135   0.04690   0.04082  -0.0581   0.1388   1.0000
15.250   1.6210   0.04869   0.04267  -0.0574   0.1345   1.0000
15.500   1.6236   0.05102   0.04502  -0.0565   0.1300   1.0000
15.750   1.6264   0.05335   0.04739  -0.0556   0.1259   1.0000
16.000   1.6344   0.05517   0.04929  -0.0551   0.1218   1.0000
16.250   1.6373   0.05754   0.05170  -0.0544   0.1174   1.0000
16.500   1.6362   0.06038   0.05455  -0.0537   0.1129   1.0000
16.750   1.6420   0.06253   0.05678  -0.0533   0.1095   1.0000
17.000   1.6455   0.06494   0.05925  -0.0529   0.1053   1.0000
17.250   1.6443   0.06794   0.06227  -0.0525   0.1011   1.0000
17.500   1.6424   0.07103   0.06542  -0.0521   0.0971   1.0000
17.750   1.6451   0.07361   0.06807  -0.0519   0.0932   1.0000
18.000   1.6422   0.07692   0.07141  -0.0517   0.0888   1.0000
18.250   1.6356   0.08074   0.07527  -0.0517   0.0846   1.0000
18.750   1.6288   0.08769   0.08232  -0.0518   0.0761   1.0000
19.250   1.6143   0.09582   0.09056  -0.0525   0.0673   1.0000
19.750   1.5926   0.10518   0.10000  -0.0540   0.0576   1.0000
20.250   1.5651   0.11559   0.11047  -0.0563   0.0469   1.0000
20.750   1.5352   0.12673   0.12165  -0.0596   0.0358   1.0000
21.250   1.5095   0.13749   0.13249  -0.0635   0.0290   1.0000
21.750   1.4896   0.14764   0.14276  -0.0679   0.0256   1.0000
22.250   1.4725   0.15757   0.15282  -0.0728   0.0235   1.0000
