  
       XFOIL         Version 6.99
  
 Calculated polar for: GOE 702 AIRFOIL                                 
  
 1 1 Reynolds number fixed          Mach number fixed         
  
 xtrf =   1.000 (top)        1.000 (bottom)  
 Mach =   0.000     Re =     0.500 e 6     Ncrit =   9.000
  
   alpha    CL        CD       CDp       CM     Top_Xtr  Bot_Xtr
  ------ -------- --------- --------- -------- -------- --------
-4.000  -0.0215   0.01194   0.00474  -0.0679   0.5995   0.1080
-3.500   0.0344   0.01169   0.00441  -0.0673   0.5860   0.1169
-3.000   0.0900   0.01143   0.00410  -0.0667   0.5702   0.1259
-2.500   0.1452   0.01111   0.00377  -0.0661   0.5515   0.1352
-2.000   0.2006   0.01091   0.00350  -0.0655   0.5267   0.1443
-1.000   0.3085   0.01075   0.00317  -0.0640   0.4734   0.1711
-0.500   0.3615   0.01067   0.00317  -0.0632   0.4543   0.2097
0.000   0.4148   0.01070   0.00331  -0.0624   0.4395   0.2685
0.500   0.4686   0.01088   0.00346  -0.0618   0.4274   0.3038
1.000   0.5231   0.01098   0.00362  -0.0612   0.4180   0.3306
1.500   0.5761   0.01121   0.00380  -0.0605   0.4083   0.3558
2.500   0.6829   0.01145   0.00419  -0.0591   0.3932   0.4185
3.000   0.7339   0.01160   0.00447  -0.0581   0.3861   0.4771
5.000   1.0140   0.01190   0.00587  -0.0698   0.3599   1.0000
5.500   1.0599   0.01232   0.00621  -0.0679   0.3540   1.0000
6.000   1.1058   0.01281   0.00668  -0.0662   0.3489   1.0000
6.500   1.1518   0.01317   0.00707  -0.0644   0.3442   1.0000
7.000   1.1967   0.01358   0.00747  -0.0625   0.3390   1.0000
7.500   1.2409   0.01424   0.00804  -0.0607   0.3333   1.0000
8.000   1.2840   0.01465   0.00854  -0.0586   0.3294   1.0000
8.500   1.3256   0.01511   0.00905  -0.0564   0.3246   1.0000
9.000   1.3656   0.01566   0.00960  -0.0540   0.3200   1.0000
9.500   1.4058   0.01639   0.01033  -0.0518   0.3149   1.0000
10.000   1.4330   0.01693   0.01098  -0.0475   0.3102   1.0000
10.250   1.4459   0.01725   0.01133  -0.0454   0.3071   1.0000
10.500   1.4593   0.01764   0.01174  -0.0436   0.3041   1.0000
10.750   1.4748   0.01814   0.01219  -0.0422   0.3007   1.0000
11.000   1.4911   0.01864   0.01273  -0.0410   0.2982   1.0000
11.250   1.5049   0.01916   0.01333  -0.0396   0.2959   1.0000
11.500   1.5190   0.01972   0.01396  -0.0384   0.2932   1.0000
11.750   1.5333   0.02031   0.01459  -0.0372   0.2904   1.0000
12.000   1.5470   0.02097   0.01526  -0.0361   0.2874   1.0000
12.250   1.5619   0.02165   0.01591  -0.0351   0.2843   1.0000
12.500   1.5756   0.02240   0.01673  -0.0341   0.2815   1.0000
12.750   1.5880   0.02323   0.01765  -0.0332   0.2788   1.0000
13.000   1.6000   0.02412   0.01860  -0.0323   0.2754   1.0000
13.250   1.6113   0.02508   0.01959  -0.0315   0.2720   1.0000
13.500   1.6224   0.02609   0.02058  -0.0306   0.2685   1.0000
13.750   1.6339   0.02712   0.02169  -0.0298   0.2656   1.0000
14.000   1.6446   0.02826   0.02292  -0.0292   0.2626   1.0000
14.250   1.6542   0.02949   0.02422  -0.0285   0.2591   1.0000
14.500   1.6625   0.03082   0.02556  -0.0278   0.2555   1.0000
14.750   1.6701   0.03217   0.02691  -0.0270   0.2519   1.0000
15.000   1.6781   0.03364   0.02851  -0.0265   0.2487   1.0000
15.250   1.6849   0.03521   0.03015  -0.0260   0.2447   1.0000
15.500   1.6897   0.03698   0.03196  -0.0255   0.2408   1.0000
15.750   1.6927   0.03892   0.03390  -0.0250   0.2366   1.0000
16.000   1.6972   0.04091   0.03601  -0.0247   0.2316   1.0000
16.250   1.6986   0.04315   0.03829  -0.0244   0.2268   1.0000
16.500   1.6967   0.04572   0.04088  -0.0241   0.2218   1.0000
16.750   1.6966   0.04830   0.04355  -0.0240   0.2154   1.0000
17.000   1.6894   0.05157   0.04683  -0.0238   0.2094   1.0000
17.250   1.6856   0.05460   0.04994  -0.0238   0.2031   1.0000
17.500   1.6728   0.05865   0.05401  -0.0240   0.1958   1.0000
17.750   1.6631   0.06246   0.05788  -0.0242   0.1884   1.0000
18.000   1.6436   0.06746   0.06288  -0.0246   0.1809   1.0000
18.250   1.6280   0.07215   0.06763  -0.0251   0.1725   1.0000
19.250   1.5230   0.09710   0.09264  -0.0297   0.1356   1.0000
19.750   1.4704   0.11033   0.10586  -0.0331   0.1175   1.0000
20.250   1.4320   0.12206   0.11758  -0.0367   0.1033   1.0000
20.750   1.4093   0.13173   0.12724  -0.0401   0.0935   1.0000
21.250   1.3993   0.13961   0.13515  -0.0432   0.0869   1.0000
21.750   1.3939   0.14683   0.14233  -0.0464   0.0810   1.0000
22.250   1.3959   0.15297   0.14857  -0.0493   0.0767   1.0000
