  
       XFOIL         Version 6.99
  
 Calculated polar for: GOE 797 AIRFOIL                                 
  
 1 1 Reynolds number fixed          Mach number fixed         
  
 xtrf =   1.000 (top)        1.000 (bottom)  
 Mach =   0.000     Re =     0.600 e 6     Ncrit =   9.000
  
   alpha    CL        CD       CDp       CM     Top_Xtr  Bot_Xtr
  ------ -------- --------- --------- -------- -------- --------
  -4.000   0.0832   0.01085   0.00396  -0.1171   0.7250   0.0992
  -3.500   0.1411   0.01073   0.00383  -0.1175   0.7152   0.1117
  -3.000   0.1987   0.01059   0.00370  -0.1179   0.7057   0.1246
  -2.500   0.2565   0.01046   0.00354  -0.1183   0.6968   0.1353
  -2.000   0.3147   0.01044   0.00347  -0.1187   0.6881   0.1447
  -1.500   0.3719   0.01024   0.00329  -0.1190   0.6782   0.1568
  -1.000   0.4294   0.01009   0.00316  -0.1194   0.6688   0.1686
  -0.500   0.4870   0.00996   0.00307  -0.1198   0.6607   0.1846
   0.000   0.5445   0.00983   0.00303  -0.1202   0.6528   0.2136
   0.500   0.6008   0.00946   0.00302  -0.1206   0.6437   0.3219
   1.000   0.6535   0.00859   0.00313  -0.1205   0.6346   0.6408
   1.500   0.6975   0.00803   0.00333  -0.1173   0.6252   0.9086
   2.000   0.7706   0.00811   0.00343  -0.1207   0.6147   0.9882
   2.500   0.8424   0.00828   0.00350  -0.1243   0.6031   1.0000
   3.000   0.8915   0.00841   0.00356  -0.1230   0.5900   1.0000
   3.500   0.9415   0.00857   0.00366  -0.1219   0.5741   1.0000
   4.000   0.9908   0.00881   0.00380  -0.1207   0.5532   1.0000
   4.500   1.0392   0.00911   0.00401  -0.1194   0.5253   1.0000
   5.000   1.0835   0.00960   0.00432  -0.1173   0.4889   1.0000
   5.500   1.1234   0.01029   0.00478  -0.1145   0.4447   1.0000
   6.000   1.1607   0.01107   0.00536  -0.1112   0.4088   1.0000
   6.500   1.1962   0.01182   0.00598  -0.1077   0.3830   1.0000
   7.000   1.2313   0.01254   0.00663  -0.1041   0.3659   1.0000
   7.500   1.2677   0.01332   0.00736  -0.1009   0.3532   1.0000
   8.000   1.3060   0.01408   0.00811  -0.0983   0.3418   1.0000
   8.500   1.3449   0.01486   0.00891  -0.0960   0.3321   1.0000
   9.000   1.3806   0.01581   0.00986  -0.0932   0.3228   1.0000
   9.500   1.4198   0.01665   0.01077  -0.0912   0.3135   1.0000
  10.000   1.4524   0.01784   0.01195  -0.0883   0.3029   1.0000
  10.000   1.4524   0.01784   0.01195  -0.0883   0.3029   1.0000
  10.250   1.4726   0.01825   0.01242  -0.0875   0.2974   1.0000
  10.500   1.4887   0.01889   0.01306  -0.0862   0.2910   1.0000
  10.750   1.5046   0.01955   0.01374  -0.0849   0.2844   1.0000
  11.000   1.5214   0.02018   0.01439  -0.0837   0.2761   1.0000
  11.250   1.5356   0.02098   0.01518  -0.0823   0.2677   1.0000
  11.500   1.5491   0.02184   0.01603  -0.0809   0.2569   1.0000
  11.750   1.5621   0.02277   0.01694  -0.0795   0.2440   1.0000
  12.000   1.5709   0.02398   0.01810  -0.0777   0.2281   1.0000
  12.250   1.5751   0.02554   0.01957  -0.0755   0.2088   1.0000
  12.500   1.5772   0.02732   0.02125  -0.0732   0.1907   1.0000
  12.750   1.5800   0.02911   0.02298  -0.0712   0.1788   1.0000
  13.000   1.5831   0.03095   0.02479  -0.0693   0.1698   1.0000
  13.250   1.5905   0.03250   0.02636  -0.0679   0.1632   1.0000
  13.500   1.5949   0.03435   0.02820  -0.0664   0.1571   1.0000
  13.750   1.6033   0.03590   0.02979  -0.0652   0.1524   1.0000
  14.000   1.6109   0.03754   0.03147  -0.0641   0.1477   1.0000
  14.250   1.6148   0.03953   0.03347  -0.0628   0.1427   1.0000
  14.500   1.6237   0.04113   0.03512  -0.0619   0.1387   1.0000
  14.750   1.6317   0.04282   0.03685  -0.0610   0.1343   1.0000
  15.000   1.6360   0.04487   0.03891  -0.0599   0.1296   1.0000
  15.250   1.6411   0.04687   0.04095  -0.0590   0.1257   1.0000
  15.500   1.6499   0.04854   0.04269  -0.0583   0.1218   1.0000
  15.750   1.6541   0.05071   0.04488  -0.0575   0.1172   1.0000
  16.000   1.6547   0.05325   0.04744  -0.0566   0.1125   1.0000
