
 ===================================================
  XFOIL Version 6.99
  Copyright (C) 2000   Mark Drela, Harold Youngren

  This software comes with ABSOLUTELY NO WARRANTY,
    subject to the GNU General Public License.

  Caveat computor
 ===================================================

 File  xfoil.def  not found

   QUIT    Exit program

  .OPER    Direct operating point(s)
  .MDES    Complex mapping design routine
  .QDES    Surface speed design routine
  .GDES    Geometry design routine

   SAVE f  Write airfoil to labeled coordinate file
   PSAV f  Write airfoil to plain coordinate file
   ISAV f  Write airfoil to ISES coordinate file
   MSAV f  Write airfoil to MSES coordinate file
   REVE    Reverse written-airfoil node ordering

   LOAD f  Read buffer airfoil from coordinate file
   NACA i  Set NACA 4,5-digit airfoil and buffer airfoil
   INTE    Set buffer airfoil by interpolating two airfoils
   NORM    Buffer airfoil normalization toggle
   XYCM rr Change CM reference location, currently  0.25000 0.00000

   BEND    Display structural properties of current airfoil

   PCOP    Set current-airfoil panel nodes directly from buffer airfoil points
   PANE    Set current-airfoil panel nodes ( 160 ) based on curvature
  .PPAR    Show/change paneling

  .PLOP    Plotting options

   WDEF f  Write  current-settings file
   RDEF f  Reread current-settings file
   NAME s  Specify new airfoil name
   NINC    Increment name version number

   Z       Zoom    | (available in all menus)
   U       Unzoom  | 

 XFOIL   c>  
 Labeled airfoil file.  Name:  GOE 769 AIRFOIL                                 

 Number of input coordinate points:  33
 Counterclockwise ordering
 Max thickness =     0.138231  at x =   0.200
 Max camber    =     0.045579  at x =   0.300

  LE  x,y  =  -0.00017   0.00334  |   Chord =   1.00018
  TE  x,y  =   1.00000   0.00000  |

 Current airfoil nodes set from buffer airfoil nodes (  33 )

 WARNING: Poor input coordinate distribution
          Excessive panel angle   49.5  at i =  17
          Repaneling with PANE and/or PPAR suggested
           (doing GDES,CADD before repaneling _may_
            improve excessively coarse LE spacing

 XFOIL   c>  
 XFOIL   c>  
 Sharp trailing edge

 Paneling parameters used...
   Number of panel nodes       160
   Panel bunching parameter    1.000
   TE/LE panel density ratio   0.150
   Refined-area/LE panel density ratio    0.200
   Top    side refined area x/c limits  1.000 1.000
   Bottom side refined area x/c limits  1.000 1.000

 XFOIL   c>  
.OPERi   c>  
 Xtr/c     =  1.0000    top    side
 Xtr/c     =  1.0000    bottom side
 Ncrit     =    9.00   ( 0.070 % turb. level )
 Vacc      =  0.0100

 Klag  =  5.6000     Uxwt  =    1.00
 A     =  6.7000     B     =  0.7500       KCt = 0.01485
 CtiniK=  1.8000     CtiniX=  3.3000

..VPAR   c>  
..VPAR   c>  
.OPERi   c>  
 M  =    0.0000
 Re =    300000

.OPERv   c>  
.OPERv   c>  
.OPERv   c>  
 Polar  1 newly created for accumulation
 Airfoil archived with polar: GOE 769 AIRFOIL                                 

Enter  polar save filename  OR  <return> for no file   s>  
 New polar save file available

Enter  polar dump filename  OR  <return> for no file   s>  
 Polar dump file will NOT be written

 Polar accumulation enabled

.OPERva   c>   Calculating unit vorticity distributions ...
 Calculating wake trajectory ...
 Calculating source influence matrix ...

 Solving BL system ...

 Initializing BL ...
    side            1  ...
 MRCHUE: Inverse mode at  54     Hk =   4.480
 MRCHUE: Inverse mode at  55     Hk =   5.308
 MRCHUE: Inverse mode at  56     Hk =   6.145
 MRCHUE: Inverse mode at  57     Hk =   6.998
 MRCHUE: Inverse mode at  58     Hk =   7.872
 MRCHUE: Inverse mode at  59     Hk =   8.773
 MRCHUE: Inverse mode at  60     Hk =   4.992
 MRCHUE: Inverse mode at  61     Hk =   2.500
 MRCHUE: Inverse mode at  89     Hk =   2.500
 MRCHUE: Inverse mode at  90     Hk =   2.500
 MRCHUE: Inverse mode at  91     Hk =   2.500
 MRCHUE: Inverse mode at  92     Hk =   2.500
 MRCHUE: Inverse mode at  93     Hk =   2.500
 MRCHUE: Inverse mode at  94     Hk =   2.500
 MRCHUE: Inverse mode at  95     Hk =   2.500
 MRCHUE: Inverse mode at  96     Hk =   2.500
 MRCHUE: Inverse mode at  97     Hk =   2.500
 MRCHUE: Inverse mode at  98     Hk =   2.500
 MRCHUE: Inverse mode at  99     Hk =   2.500
 MRCHUE: Inverse mode at 100     Hk =   2.500
 MRCHUE: Inverse mode at 101     Hk =   2.500
 MRCHUE: Inverse mode at 102     Hk =   2.500
 MRCHUE: Inverse mode at 103     Hk =   2.500
 MRCHUE: Inverse mode at 104     Hk =   2.500
 MRCHUE: Convergence failed at 105  side 1    Res =  0.4634E+01
 MRCHUE: Inverse mode at 106     Hk =   2.500
 MRCHUE: Inverse mode at 107     Hk =   2.500
 MRCHUE: Convergence failed at 108  side 1    Res =  0.7026E+01
    side            2  ...
 MRCHUE: Inverse mode at  54     Hk =   2.915

 MRCHDU: Convergence failed at 105  side 1    Res =  0.1406E+01
 MRCHDU: Convergence failed at 106  side 1    Res =  0.1454E+01
 MRCHDU: Convergence failed at 107  side 1    Res =  0.1498E+01
 MRCHDU: Convergence failed at 108  side 1    Res =  0.9585E+01
 Side 1  free  transition at x/c =  0.1338   60
 Side 2 forced transition at x/c =  1.0000   54
 idif Ue xi dudx           1  8.11812282E-02  8.90541077E-03   9.1159439    
 Uenew xinew           2  2.62026358E-02  2.87437439E-03

   1   rms: 0.5821E+00   max: 0.2489E+01   D at   57  2   RLX: 0.297
       a = 16.250      CL =  2.3538
      Cm = -0.1114     CD =  0.01637   =>   CDf =  0.00709    CDp =  0.00928

 Side 1  free  transition at x/c =  0.1372   59
 Side 2 forced transition at x/c =  1.0000   55
 idif Ue xi dudx           2  0.12059366      1.16851330E-02   10.320264    
 Uenew xinew           3  6.37846440E-02  6.18052483E-03

   2   rms: 0.4394E+00   max: 0.1449E+01   D at   63  2   RLX: 0.593
       a = 16.250      CL =  2.0410
      Cm = -0.0554     CD =  0.02767   =>   CDf =  0.00728    CDp =  0.02039

 Side 1  free  transition at x/c =  0.1452   58
 Side 2 forced transition at x/c =  1.0000   57
 idif Ue xi dudx           1  6.99379593E-02  5.79237938E-03   12.074133    
 Uenew xinew           2  1.34996520E-02  1.11806393E-03

   3   rms: 0.4065E+00   max: 0.1334E+01   D at   61  2   RLX: 0.395
       a = 16.250      CL =  1.8886
      Cm = -0.0406     CD =  0.03581   =>   CDf =  0.00706    CDp =  0.02875

 Side 1  free  transition at x/c =  0.1497   57
 Side 2 forced transition at x/c =  1.0000   58
 idif Ue xi dudx           1  9.75666195E-02  7.00569153E-03   13.926765    
 Uenew xinew           2  3.71038057E-02  2.66420841E-03

   4   rms: 0.1889E+00   max: 0.6634E+00   D at   65  2
       a = 16.250      CL =  1.6696
      Cm = -0.0068     CD =  0.04955   =>   CDf =  0.00675    CDp =  0.04280

 Side 1  free  transition at x/c =  0.1542   56
 Side 2 forced transition at x/c =  1.0000   59

   5   rms: 0.5711E-01   max: -.2489E+00   D at   56  1
       a = 16.250      CL =  1.6884
      Cm = -0.0068     CD =  0.04780   =>   CDf =  0.00641    CDp =  0.04138

 Side 1  free  transition at x/c =  0.1554   57
 Side 2 forced transition at x/c =  1.0000   59

   6   rms: 0.1530E-01   max: 0.8729E-01   D at   84  1
       a = 16.250      CL =  1.6823
      Cm = -0.0075     CD =  0.04912   =>   CDf =  0.00651    CDp =  0.04262

 Side 1  free  transition at x/c =  0.1555   57
 Side 2 forced transition at x/c =  1.0000   59

   7   rms: 0.2033E-02   max: 0.1957E-01   D at   84  1
       a = 16.250      CL =  1.6808
      Cm = -0.0075     CD =  0.04904   =>   CDf =  0.00647    CDp =  0.04257

 Side 1  free  transition at x/c =  0.1555   57
 Side 2 forced transition at x/c =  1.0000   59

   8   rms: 0.1010E-03   max: 0.5654E-03   D at   72  2
       a = 16.250      CL =  1.6807
      Cm = -0.0075     CD =  0.04902   =>   CDf =  0.00646    CDp =  0.04256

 Side 1  free  transition at x/c =  0.1555   57
 Side 2 forced transition at x/c =  1.0000   59

   9   rms: 0.7263E-05   max: -.3555E-04   C at   59  2
       a = 16.250      CL =  1.6807
      Cm = -0.0075     CD =  0.04902   =>   CDf =  0.00646    CDp =  0.04256
 plradd ia,ip,cpol            1           0  4.71561216E-02

 Point added to stored polar  1
 Point written to save file  goe769_Re300k.ext.pol                           
 Dump file unspecified or not available
 Calculating wake trajectory ...
 Calculating source influence matrix ...

 Solving BL system ...

 Side 1  free  transition at x/c =  0.1555   57
 Side 2 forced transition at x/c =  1.0000   59

   1   rms: 0.4369E-01   max: 0.1384E+00   T at   57  1   RLX: 0.689
       a = 16.500      CL =  1.7015
      Cm = -0.0069     CD =  0.04910   =>   CDf =  0.00647    CDp =  0.04263

 Side 1  free  transition at x/c =  0.1544   56
 Side 2 forced transition at x/c =  1.0000   59

   2   rms: 0.3040E-01   max: 0.1445E+00   D at   85  1
       a = 16.500      CL =  1.6822
      Cm = -0.0074     CD =  0.05172   =>   CDf =  0.00643    CDp =  0.04528

 Side 1  free  transition at x/c =  0.1543   56
 Side 2 forced transition at x/c =  1.0000   59

   3   rms: 0.2872E-02   max: 0.3666E-01   D at   84  1
       a = 16.500      CL =  1.6807
      Cm = -0.0074     CD =  0.05153   =>   CDf =  0.00634    CDp =  0.04519

 Side 1  free  transition at x/c =  0.1543   56
 Side 2 forced transition at x/c =  1.0000   59

   4   rms: 0.1317E-03   max: 0.1225E-02   D at   83  1
       a = 16.500      CL =  1.6806
      Cm = -0.0073     CD =  0.05150   =>   CDf =  0.00633    CDp =  0.04517

 Side 1  free  transition at x/c =  0.1543   56
 Side 2 forced transition at x/c =  1.0000   59

   5   rms: 0.3135E-05   max: -.4535E-04   C at   59  2
       a = 16.500      CL =  1.6806
      Cm = -0.0073     CD =  0.05150   =>   CDf =  0.00633    CDp =  0.04517
 plradd ia,ip,cpol            2           0  4.71561216E-02

 Point added to stored polar  1
 Point written to save file  goe769_Re300k.ext.pol                           
 Dump file unspecified or not available
 Calculating wake trajectory ...
 Calculating source influence matrix ...

 Solving BL system ...

 Side 1  free  transition at x/c =  0.1543   56
 Side 2 forced transition at x/c =  1.0000   59

   1   rms: 0.3381E-01   max: 0.1305E+00   D at   80  1   RLX: 0.632
       a = 16.750      CL =  1.6761
      Cm = -0.0076     CD =  0.05369   =>   CDf =  0.00634    CDp =  0.04735

 Side 1  free  transition at x/c =  0.1536   56
 Side 2 forced transition at x/c =  1.0000   59

   2   rms: 0.1422E-01   max: 0.6596E-01   D at   82  1
       a = 16.750      CL =  1.6709
      Cm = -0.0078     CD =  0.05503   =>   CDf =  0.00622    CDp =  0.04882

 Side 1  free  transition at x/c =  0.1532   56
 Side 2 forced transition at x/c =  1.0000   59

   3   rms: 0.1226E-02   max: 0.1020E-01   D at   72  2
       a = 16.750      CL =  1.6700
      Cm = -0.0077     CD =  0.05491   =>   CDf =  0.00614    CDp =  0.04877

 Side 1  free  transition at x/c =  0.1532   56
 Side 2 forced transition at x/c =  1.0000   59

   4   rms: 0.2395E-04   max: 0.3001E-03   D at   72  2
       a = 16.750      CL =  1.6700
      Cm = -0.0077     CD =  0.05490   =>   CDf =  0.00614    CDp =  0.04876
 plradd ia,ip,cpol            3           0  4.71561216E-02

 Point added to stored polar  1
 Point written to save file  goe769_Re300k.ext.pol                           
 Dump file unspecified or not available
 Calculating wake trajectory ...
 Calculating source influence matrix ...

 Solving BL system ...

 Side 1  free  transition at x/c =  0.1532   56
 Side 2 forced transition at x/c =  1.0000   59

   1   rms: 0.3438E-01   max: 0.1368E+00   D at   79  1   RLX: 0.601
       a = 17.000      CL =  1.6650
      Cm = -0.0081     CD =  0.05721   =>   CDf =  0.00615    CDp =  0.05106

 Side 1  free  transition at x/c =  0.1523   56
 Side 2 forced transition at x/c =  1.0000   59

   2   rms: 0.1510E-01   max: 0.7162E-01   D at   81  1
       a = 17.000      CL =  1.6592
      Cm = -0.0084     CD =  0.05878   =>   CDf =  0.00603    CDp =  0.05274

 Side 1  free  transition at x/c =  0.1518   56
 Side 2 forced transition at x/c =  1.0000   59

   3   rms: 0.8154E-03   max: 0.6609E-02   D at   73  2
       a = 17.000      CL =  1.6585
      Cm = -0.0084     CD =  0.05857   =>   CDf =  0.00596    CDp =  0.05261

 Side 1  free  transition at x/c =  0.1518   56
 Side 2 forced transition at x/c =  1.0000   59

   4   rms: 0.4249E-04   max: -.1416E-03   D at   77  1
       a = 17.000      CL =  1.6586
      Cm = -0.0084     CD =  0.05857   =>   CDf =  0.00596    CDp =  0.05260
 plradd ia,ip,cpol            4           0  4.71561216E-02

 Point added to stored polar  1
 Point written to save file  goe769_Re300k.ext.pol                           
 Dump file unspecified or not available
 Calculating wake trajectory ...
 Calculating source influence matrix ...

 Solving BL system ...

 Side 1  free  transition at x/c =  0.1518   56
 Side 2 forced transition at x/c =  1.0000   59

   1   rms: 0.3298E-01   max: 0.1323E+00   D at   78  1   RLX: 0.574
       a = 17.250      CL =  1.6545
      Cm = -0.0089     CD =  0.06086   =>   CDf =  0.00597    CDp =  0.05489

 Side 1  free  transition at x/c =  0.1510   56
 Side 2 forced transition at x/c =  1.0000   59

   2   rms: 0.1420E-01   max: 0.5865E-01   D at   79  1
       a = 17.250      CL =  1.6507
      Cm = -0.0092     CD =  0.06234   =>   CDf =  0.00588    CDp =  0.05646

 Side 1  free  transition at x/c =  0.1504   56
 Side 2 forced transition at x/c =  1.0000   59

   3   rms: 0.1112E-02   max: 0.7625E-02   D at   73  2
       a = 17.250      CL =  1.6498
      Cm = -0.0092     CD =  0.06218   =>   CDf =  0.00582    CDp =  0.05636

 Side 1  free  transition at x/c =  0.1504   56
 Side 2 forced transition at x/c =  1.0000   59

   4   rms: 0.3186E-04   max: 0.4832E-03   D at   73  2
       a = 17.250      CL =  1.6498
      Cm = -0.0091     CD =  0.06217   =>   CDf =  0.00581    CDp =  0.05635
 plradd ia,ip,cpol            5           0  4.71561216E-02

 Point added to stored polar  1
 Point written to save file  goe769_Re300k.ext.pol                           
 Dump file unspecified or not available
 Calculating wake trajectory ...
 Calculating source influence matrix ...

 Solving BL system ...

 Side 1  free  transition at x/c =  0.1504   56
 Side 2 forced transition at x/c =  1.0000   59

   1   rms: 0.3136E-01   max: 0.1285E+00   D at   77  1   RLX: 0.551
       a = 17.500      CL =  1.6462
      Cm = -0.0097     CD =  0.06441   =>   CDf =  0.00546    CDp =  0.05894

 Side 1  free  transition at x/c =  0.1495   57
 Side 2 forced transition at x/c =  1.0000   58

   2   rms: 0.1555E-01   max: 0.1305E+00   D at    2  1
       a = 17.500      CL =  1.6438
      Cm = -0.0101     CD =  0.06583   =>   CDf =  0.00574    CDp =  0.06008

 Side 1  free  transition at x/c =  0.1488   57
 Side 2 forced transition at x/c =  1.0000   58

   3   rms: 0.7906E-03   max: 0.6213E-02   D at   72  2
       a = 17.500      CL =  1.6433
      Cm = -0.0100     CD =  0.06560   =>   CDf =  0.00570    CDp =  0.05991

 Side 1  free  transition at x/c =  0.1488   57
 Side 2 forced transition at x/c =  1.0000   58

   4   rms: 0.7067E-04   max: -.2278E-03   D at   77  1
       a = 17.500      CL =  1.6434
      Cm = -0.0100     CD =  0.06560   =>   CDf =  0.00570    CDp =  0.05990
 plradd ia,ip,cpol            6           0  4.71561216E-02

 Point added to stored polar  1
 Point written to save file  goe769_Re300k.ext.pol                           
 Dump file unspecified or not available
 Calculating wake trajectory ...
 Calculating source influence matrix ...

 Solving BL system ...

 Side 1  free  transition at x/c =  0.1488   57
 Side 2 forced transition at x/c =  1.0000   58

   1   rms: 0.2812E-01   max: 0.1060E+00   D at   77  1   RLX: 0.533
       a = 17.750      CL =  1.6424
      Cm = -0.0105     CD =  0.06750   =>   CDf =  0.00570    CDp =  0.06179

 Side 1  free  transition at x/c =  0.1480   57
 Side 2 forced transition at x/c =  1.0000   58

   2   rms: 0.1255E-01   max: 0.4345E-01   D at   78  1
       a = 17.750      CL =  1.6422
      Cm = -0.0109     CD =  0.06877   =>   CDf =  0.00565    CDp =  0.06312

 Side 1  free  transition at x/c =  0.1474   57
 Side 2 forced transition at x/c =  1.0000   58

   3   rms: 0.5158E-03   max: 0.4314E-02   D at   73  2
       a = 17.750      CL =  1.6420
      Cm = -0.0108     CD =  0.06854   =>   CDf =  0.00562    CDp =  0.06292

 Side 1  free  transition at x/c =  0.1474   57
 Side 2 forced transition at x/c =  1.0000   58

   4   rms: 0.5816E-04   max: -.2123E-03   D at   74  2
       a = 17.750      CL =  1.6420
      Cm = -0.0108     CD =  0.06854   =>   CDf =  0.00562    CDp =  0.06292
 plradd ia,ip,cpol            7           0  4.71561216E-02

 Point added to stored polar  1
 Point written to save file  goe769_Re300k.ext.pol                           
 Dump file unspecified or not available
 Calculating wake trajectory ...
 Calculating source influence matrix ...

 Solving BL system ...

 Side 1  free  transition at x/c =  0.1474   57
 Side 2 forced transition at x/c =  1.0000   58

   1   rms: 0.2591E-01   max: 0.9242E-01   T at   57  1   RLX: 0.520
       a = 18.000      CL =  1.6442
      Cm = -0.0111     CD =  0.06996   =>   CDf =  0.00563    CDp =  0.06433

 Side 1  free  transition at x/c =  0.1466   57
 Side 2 forced transition at x/c =  1.0000   58

   2   rms: 0.1231E-01   max: 0.4432E-01   T at   57  1
       a = 18.000      CL =  1.6478
      Cm = -0.0113     CD =  0.07079   =>   CDf =  0.00560    CDp =  0.06519

 Side 1  free  transition at x/c =  0.1459   57
 Side 2 forced transition at x/c =  1.0000   58

   3   rms: 0.1263E-02   max: -.6448E-02   D at   57  1
       a = 18.000      CL =  1.6482
      Cm = -0.0112     CD =  0.07054   =>   CDf =  0.00560    CDp =  0.06494

 Side 1  free  transition at x/c =  0.1460   57
 Side 2 forced transition at x/c =  1.0000   58

   4   rms: 0.3096E-03   max: -.1011E-02   D at   73  2
       a = 18.000      CL =  1.6484
      Cm = -0.0112     CD =  0.07054   =>   CDf =  0.00560    CDp =  0.06494

 Side 1  free  transition at x/c =  0.1459   57
 Side 2 forced transition at x/c =  1.0000   58

   5   rms: 0.3327E-04   max: -.1533E-03   D at   73  2
       a = 18.000      CL =  1.6485
      Cm = -0.0112     CD =  0.07054   =>   CDf =  0.00560    CDp =  0.06494
 plradd ia,ip,cpol            8           0  4.71561216E-02

 Point added to stored polar  1
 Point written to save file  goe769_Re300k.ext.pol                           
 Dump file unspecified or not available

.OPERva   c>   Calculating wake trajectory ...
 Calculating source influence matrix ...

 Solving BL system ...

 Side 1  free  transition at x/c =  0.1459   57
 Side 2 forced transition at x/c =  1.0000   58

   1   rms: 0.2787E-01   max: 0.1099E+00   T at   57  1   RLX: 0.512
       a = 18.250      CL =  1.6545
      Cm = -0.0113     CD =  0.07134   =>   CDf =  0.00561    CDp =  0.06574

 Side 1  free  transition at x/c =  0.1451   57
 Side 2 forced transition at x/c =  1.0000   58

   2   rms: 0.1628E-01   max: 0.5849E-01   T at   57  1
       a = 18.250      CL =  1.6642
      Cm = -0.0110     CD =  0.07133   =>   CDf =  0.00562    CDp =  0.06572

 Side 1  free  transition at x/c =  0.1443   57
 Side 2 forced transition at x/c =  1.0000   58

   3   rms: 0.2491E-02   max: -.1104E-01   D at   78  1
       a = 18.250      CL =  1.6655
      Cm = -0.0109     CD =  0.07113   =>   CDf =  0.00565    CDp =  0.06548

 Side 1  free  transition at x/c =  0.1443   57
 Side 2 forced transition at x/c =  1.0000   58

   4   rms: 0.4304E-03   max: -.1827E-02   D at   73  2
       a = 18.250      CL =  1.6658
      Cm = -0.0109     CD =  0.07116   =>   CDf =  0.00566    CDp =  0.06550

 Side 1  free  transition at x/c =  0.1443   57
 Side 2 forced transition at x/c =  1.0000   58

   5   rms: 0.3882E-04   max: -.1960E-03   D at   73  2
       a = 18.250      CL =  1.6658
      Cm = -0.0109     CD =  0.07116   =>   CDf =  0.00566    CDp =  0.06550
 plradd ia,ip,cpol            9           0  4.23376970E-02

 Point added to stored polar  1
 Point written to save file  goe769_Re300k.ext.pol                           
 Dump file unspecified or not available
 Calculating wake trajectory ...
 Calculating source influence matrix ...

 Solving BL system ...

 Side 1  free  transition at x/c =  0.1443   57
 Side 2 forced transition at x/c =  1.0000   58

   1   rms: 0.6855E-01   max: 0.2769E+00   T at   57  1   RLX: 0.508
       a = 18.750      CL =  1.6872
      Cm = -0.0102     CD =  0.07136   =>   CDf =  0.00530    CDp =  0.06606

 Side 1  free  transition at x/c =  0.1427   57
 Side 2 forced transition at x/c =  1.0000   57

   2   rms: 0.6731E-01   max: 0.3052E+00   D at   79  1
       a = 18.750      CL =  1.6451
      Cm = -0.0142     CD =  0.08156   =>   CDf =  0.00565    CDp =  0.07591

 Side 1  free  transition at x/c =  0.1418   57
 Side 2 forced transition at x/c =  1.0000   57
 idif Ue xi dudx           1  5.96972853E-02  4.87232208E-03   12.252327    
 Uenew xinew           2  2.42604199E-03  1.98006630E-04

   3   rms: 0.1618E-01   max: 0.1314E+00   D at   78  1
       a = 18.750      CL =  1.6347
      Cm = -0.0146     CD =  0.08163   =>   CDf =  0.00570    CDp =  0.07593

 Side 1  free  transition at x/c =  0.1417   56
 Side 2 forced transition at x/c =  1.0000   58

   4   rms: 0.3047E-02   max: -.3648E-01   T at    2  2
       a = 18.750      CL =  1.6332
      Cm = -0.0146     CD =  0.08148   =>   CDf =  0.00533    CDp =  0.07615

 Side 1  free  transition at x/c =  0.1417   56
 Side 2 forced transition at x/c =  1.0000   58

   5   rms: 0.3819E-03   max: 0.4196E-02   D at    4  2
       a = 18.750      CL =  1.6331
      Cm = -0.0146     CD =  0.08145   =>   CDf =  0.00533    CDp =  0.07613

 Side 1  free  transition at x/c =  0.1417   56
 Side 2 forced transition at x/c =  1.0000   58

   6   rms: 0.8130E-05   max: -.9748E-04   C at   58  2
       a = 18.750      CL =  1.6331
      Cm = -0.0146     CD =  0.08145   =>   CDf =  0.00533    CDp =  0.07612
 plradd ia,ip,cpol           10           0  2.23263516E-03

 Point added to stored polar  1
 Point written to save file  goe769_Re300k.ext.pol                           
 Dump file unspecified or not available
 Calculating wake trajectory ...
 Calculating source influence matrix ...

 Solving BL system ...

 Side 1  free  transition at x/c =  0.1417   56
 Side 2 forced transition at x/c =  1.0000   58

   1   rms: 0.1115E+00   max: 0.5106E+00   D at   73  1   RLX: 0.424
       a = 19.250      CL =  1.6055
      Cm = -0.0180     CD =  0.08956   =>   CDf =  0.00534    CDp =  0.08422

 Side 1  free  transition at x/c =  0.1406   56
 Side 2 forced transition at x/c =  1.0000   58

   2   rms: 0.9283E-01   max: 0.4316E+00   D at   74  1
       a = 19.250      CL =  1.5465
      Cm = -0.0247     CD =  0.10436   =>   CDf =  0.00511    CDp =  0.09924

 Side 1  free  transition at x/c =  0.1387   56
 Side 2 forced transition at x/c =  1.0000   58
 idif Ue xi dudx           1  5.98520041E-02  4.35400009E-03   13.746441    
 Uenew xinew           2  1.72063868E-04  1.25169754E-05

   3   rms: 0.1099E+00   max: 0.5231E+00   D at   73  1
       a = 19.250      CL =  1.4708
      Cm = -0.0316     CD =  0.11773   =>   CDf =  0.00509    CDp =  0.11264

 Side 1  free  transition at x/c =  0.1383   55
 Side 2 forced transition at x/c =  1.0000   59

   4   rms: 0.6033E+00   max: 0.1061E+02   T at    2  2   RLX: 0.112
       a = 19.250      CL =  1.4853
      Cm = -0.0333     CD =  0.11082   =>   CDf =  0.00419    CDp =  0.10663

 Side 1  free  transition at x/c =  0.1384   56
 Side 2 forced transition at x/c =  1.0000   58

   5   rms: 0.1427E+00   max: 0.1873E+01   T at    2  1   RLX: 0.547
       a = 19.250      CL =  1.5153
      Cm = -0.0277     CD =  0.10403   =>   CDf =  0.00454    CDp =  0.09949

 Side 1  free  transition at x/c =  0.1388   56
 Side 2 forced transition at x/c =  1.0000   58

   6   rms: 0.4619E+01   max: -.1826E+02   D at   70  1   RLX: 0.027
       a = 19.250      CL =  1.6079
      Cm = -0.0193     CD =  0.08797   =>   CDf =  0.00433    CDp =  0.08364

 Side 1  free  transition at x/c =  0.1400   57
 Side 2 forced transition at x/c =  1.0000   57
 idif Ue xi dudx           1  8.11439678E-02  6.49178028E-03   12.499494    
 Uenew xinew           2  2.27173902E-02  1.81746483E-03

   7   rms: 0.9263E-01   max: 0.4075E+00   D at   73  1
       a = 19.250      CL =  1.5397
      Cm = -0.0253     CD =  0.10491   =>   CDf =  0.00533    CDp =  0.09958

 Side 1  free  transition at x/c =  0.1388   56
 Side 2 forced transition at x/c =  1.0000   58
 idif Ue xi dudx           1  6.16079420E-02  4.46665287E-03   13.792866    
 Uenew xinew           2  1.72644958E-03  1.25169754E-04

   8   rms: 0.1068E+00   max: 0.4985E+00   D at   72  1
       a = 19.250      CL =  1.4673
      Cm = -0.0319     CD =  0.11824   =>   CDf =  0.00506    CDp =  0.11318

 Side 1  free  transition at x/c =  0.1382   55
 Side 2 forced transition at x/c =  1.0000   59

   9   rms: 0.1100E+00   max: 0.1328E+01   T at    2  2   RLX: 0.790
       a = 19.250      CL =  1.5118
      Cm = -0.0271     CD =  0.10414   =>   CDf =  0.00418    CDp =  0.09995

 Side 1  free  transition at x/c =  0.1389   56
 Side 2 forced transition at x/c =  1.0000   58

  10   rms: 0.2693E+00   max: -.1068E+01   D at   68  1   RLX: 0.468
       a = 19.250      CL =  1.6031
      Cm = -0.0189     CD =  0.08837   =>   CDf =  0.00432    CDp =  0.08405

 Side 1  free  transition at x/c =  0.1398   57
 Side 2 forced transition at x/c =  1.0000   57
 idif Ue xi dudx           1  8.29219893E-02  6.61516190E-03   12.535141    
 Uenew xinew           2  2.43287832E-02  1.94084644E-03

  11   rms: 0.9519E-01   max: 0.4320E+00   D at   74  1
       a = 19.250      CL =  1.5358
      Cm = -0.0257     CD =  0.10564   =>   CDf =  0.00531    CDp =  0.10033

 Side 1  free  transition at x/c =  0.1388   56
 Side 2 forced transition at x/c =  1.0000   58
 idif Ue xi dudx           1  7.37363100E-02  5.25355339E-03   14.035512    
 Uenew xinew           2  1.28013734E-02  9.12070274E-04

  12   rms: 0.1377E+00   max: 0.6152E+00   D at   72  1
       a = 19.250      CL =  1.4431
      Cm = -0.0345     CD =  0.12391   =>   CDf =  0.00505    CDp =  0.11886

 Side 1  free  transition at x/c =  0.1380   55
 Side 2 forced transition at x/c =  1.0000   59

  13   rms: 0.7934E-01   max: -.3896E+00   D at   65  1
       a = 19.250      CL =  1.4970
      Cm = -0.0272     CD =  0.10581   =>   CDf =  0.00412    CDp =  0.10169

 Side 1  free  transition at x/c =  0.1390   56
 Side 2 forced transition at x/c =  1.0000   58

  14   rms: 0.1416E+00   max: -.6125E+00   D at   67  1   RLX: 0.816
       a = 19.250      CL =  1.5787
      Cm = -0.0202     CD =  0.09185   =>   CDf =  0.00462    CDp =  0.08723

 Side 1  free  transition at x/c =  0.1396   56
 Side 2 forced transition at x/c =  1.0000   58

  15   rms: 0.8929E-01   max: 0.4195E+00   D at   72  1
       a = 19.250      CL =  1.5154
      Cm = -0.0274     CD =  0.10901   =>   CDf =  0.00490    CDp =  0.10411

 Side 1  free  transition at x/c =  0.1387   56
 Side 2 forced transition at x/c =  1.0000   58

  16   rms: 0.8591E+00   max: -.3337E+01   D at   68  1   RLX: 0.150
       a = 19.250      CL =  1.6102
      Cm = -0.0190     CD =  0.08595   =>   CDf =  0.00432    CDp =  0.08163

 Side 1  free  transition at x/c =  0.1398   57
 Side 2 forced transition at x/c =  1.0000   57
 idif Ue xi dudx           1  7.99006969E-02  6.38985634E-03   12.504303    
 Uenew xinew           2  2.14516427E-02  1.71554089E-03

  17   rms: 0.9562E-01   max: 0.4180E+00   D at   73  1
       a = 19.250      CL =  1.5426
      Cm = -0.0251     CD =  0.10457   =>   CDf =  0.00533    CDp =  0.09924

 Side 1  free  transition at x/c =  0.1388   56
 Side 2 forced transition at x/c =  1.0000   58

  18   rms: 0.9845E-01   max: 0.4632E+00   D at   72  1
       a = 19.250      CL =  1.4760
      Cm = -0.0310     CD =  0.11640   =>   CDf =  0.00476    CDp =  0.11164

 Side 1  free  transition at x/c =  0.1383   56
 Side 2 forced transition at x/c =  1.0000   58

  19   rms: 0.8609E-01   max: -.3948E+00   D at   67  1
       a = 19.250      CL =  1.5351
      Cm = -0.0237     CD =  0.09929   =>   CDf =  0.00454    CDp =  0.09475

 Side 1  free  transition at x/c =  0.1392   56
 Side 2 forced transition at x/c =  1.0000   58
 idif Ue xi dudx           1  7.04647899E-02  5.03814220E-03   13.986264    
 Uenew xinew           2  9.74365789E-03  6.96659088E-04

  20   rms: 0.1257E+00   max: 0.5419E+00   D at   71  1
       a = 19.250      CL =  1.4497
      Cm = -0.0339     CD =  0.12212   =>   CDf =  0.00507    CDp =  0.11706

 Side 1  free  transition at x/c =  0.1381   55
 Side 2 forced transition at x/c =  1.0000   59

  21   rms: 0.7541E-01   max: -.3767E+00   D at   64  1
       a = 19.250      CL =  1.4996
      Cm = -0.0270     CD =  0.10558   =>   CDf =  0.00413    CDp =  0.10145

 Side 1  free  transition at x/c =  0.1390   56
 Side 2 forced transition at x/c =  1.0000   58

  22   rms: 0.1576E+00   max: -.6688E+00   D at   67  1   RLX: 0.748
       a = 19.250      CL =  1.5839
      Cm = -0.0199     CD =  0.09115   =>   CDf =  0.00463    CDp =  0.08652

 Side 1  free  transition at x/c =  0.1397   56
 Side 2 forced transition at x/c =  1.0000   58

  23   rms: 0.8440E-01   max: 0.3980E+00   D at   72  1
       a = 19.250      CL =  1.5235
      Cm = -0.0267     CD =  0.10739   =>   CDf =  0.00492    CDp =  0.10247

 Side 1  free  transition at x/c =  0.1387   56
 Side 2 forced transition at x/c =  1.0000   58
 idif Ue xi dudx           2  0.15233135      1.06687546E-02   14.278270    
 Uenew xinew           3  9.03424919E-02  6.32727146E-03

  24   rms: 0.3500E+00   max: 0.1354E+01   D at   72  1
       a = 19.250      CL =  1.2927
      Cm = -0.0511     CD =  0.16298   =>   CDf =  0.00528    CDp =  0.15770

 MRCHDU: Convergence failed at  61  side 1    Res =  0.8937E+00
 MRCHDU: Convergence failed at  62  side 1    Res =  0.1426E+01
 MRCHDU: Convergence failed at  63  side 1    Res =  0.2857E+01
 MRCHDU: Convergence failed at  64  side 1    Res =  0.2352E+02
 MRCHDU: Convergence failed at  65  side 1    Res =  0.3550E+01
 MRCHDU: Convergence failed at  66  side 1    Res =  0.2769E+01
 MRCHDU: Convergence failed at  67  side 1    Res =  0.8571E+01
 MRCHDU: Convergence failed at  68  side 1    Res =  0.1421E+01
 Side 1  free  transition at x/c =  0.1358   54
 Side 2 forced transition at x/c =  1.0000   60

  25   rms: 0.2249E+00   max: 0.1227E+01   D at   68  1
       a = 19.250      CL =  1.4404
      Cm = -0.0338     CD =  0.11564   =>   CDf =  0.00406    CDp =  0.11158

 Side 1  free  transition at x/c =  0.1371   55
 Side 2 forced transition at x/c =  1.0000   59

  26   rms: 0.5992E-01   max: -.3496E+00   D at   61  1
       a = 19.250      CL =  1.4654
      Cm = -0.0303     CD =  0.11154   =>   CDf =  0.00437    CDp =  0.10717

 Side 1  free  transition at x/c =  0.1385   55
 Side 2 forced transition at x/c =  1.0000   59

  27   rms: 0.8047E-01   max: -.3819E+00   D at   66  1
       a = 19.250      CL =  1.5204
      Cm = -0.0250     CD =  0.10162   =>   CDf =  0.00419    CDp =  0.09743

 Side 1  free  transition at x/c =  0.1391   56
 Side 2 forced transition at x/c =  1.0000   58
 idif Ue xi dudx           2  0.16110729      1.13472939E-02   14.197860    
 Uenew xinew           3  9.94675159E-02  7.00581074E-03

  28   rms: 0.3794E+00   max: 0.1533E+01   D at   70  1   RLX: 0.979
       a = 19.250      CL =  1.2776
      Cm = -0.0532     CD =  0.16790   =>   CDf =  0.00530    CDp =  0.16261

 MRCHDU: Convergence failed at  60  side 1    Res =  0.7785E+00
 MRCHDU: Convergence failed at  61  side 1    Res =  0.1181E+01
 MRCHDU: Convergence failed at  62  side 1    Res =  0.1939E+01
 MRCHDU: Convergence failed at  63  side 1    Res =  0.3920E+01
 MRCHDU: Convergence failed at  64  side 1    Res =  0.4736E+02
 MRCHDU: Convergence failed at  65  side 1    Res =  0.2362E+01
 MRCHDU: Convergence failed at  66  side 1    Res =  0.4811E+01
 MRCHDU: Convergence failed at  67  side 1    Res =  0.4603E+01
 MRCHDU: Convergence failed at  68  side 1    Res =  0.1887E+01
 Side 1  free  transition at x/c =  0.1356   54
 Side 2 forced transition at x/c =  1.0000   60

  29   rms: 0.2654E+00   max: 0.1406E+01   D at   68  1
       a = 19.250      CL =  1.4535
      Cm = -0.0333     CD =  0.11359   =>   CDf =  0.00408    CDp =  0.10951

 Side 1  free  transition at x/c =  0.1367   55
 Side 2 forced transition at x/c =  1.0000   59

  30   rms: 0.4708E-01   max: 0.3646E+00   D at   65  1
       a = 19.250      CL =  1.4262
      Cm = -0.0350     CD =  0.12184   =>   CDf =  0.00441    CDp =  0.11744

 Side 1  free  transition at x/c =  0.1369   55
 Side 2 forced transition at x/c =  1.0000   59

  31   rms: 0.1161E+00   max: -.5203E+00   D at   64  1   RLX: 0.961
       a = 19.250      CL =  1.4995
      Cm = -0.0269     CD =  0.10437   =>   CDf =  0.00407    CDp =  0.10031

 Side 1  free  transition at x/c =  0.1395   56
 Side 2 forced transition at x/c =  1.0000   58

  32   rms: 0.1134E+00   max: -.5325E+00   D at   66  1   RLX: 0.939
       a = 19.250      CL =  1.5710
      Cm = -0.0204     CD =  0.09277   =>   CDf =  0.00462    CDp =  0.08815

 Side 1  free  transition at x/c =  0.1395   56
 Side 2 forced transition at x/c =  1.0000   58

  33   rms: 0.8852E-01   max: 0.4130E+00   D at   72  1
       a = 19.250      CL =  1.5092
      Cm = -0.0280     CD =  0.11007   =>   CDf =  0.00488    CDp =  0.10519

 Side 1  free  transition at x/c =  0.1386   56
 Side 2 forced transition at x/c =  1.0000   58

  34   rms: 0.2512E+00   max: -.1006E+01   D at   68  1   RLX: 0.497
       a = 19.250      CL =  1.5998
      Cm = -0.0191     CD =  0.08788   =>   CDf =  0.00430    CDp =  0.08358

 Side 1  free  transition at x/c =  0.1397   57
 Side 2 forced transition at x/c =  1.0000   57
 idif Ue xi dudx           1  6.43901378E-02  5.22589684E-03   12.321357    
 Uenew xinew           2  6.79623103E-03  5.51581383E-04

  35   rms: 0.1205E+00   max: -.1472E+01   T at    2  1   RLX: 0.340
       a = 19.250      CL =  1.5901
      Cm = -0.0252     CD =  0.09762   =>   CDf =  0.00529    CDp =  0.09233

 Side 1  free  transition at x/c =  0.1393   56
 Side 2 forced transition at x/c =  1.0000   58

  36   rms: 0.9382E-01   max: -.4009E+00   D at    2  2
       a = 19.250      CL =  1.5140
      Cm = -0.0276     CD =  0.10948   =>   CDf =  0.00489    CDp =  0.10459

 Side 1  free  transition at x/c =  0.1386   56
 Side 2 forced transition at x/c =  1.0000   58

  37   rms: 0.5011E+00   max: -.1970E+01   D at   68  1   RLX: 0.254
       a = 19.250      CL =  1.6072
      Cm = -0.0190     CD =  0.08660   =>   CDf =  0.00432    CDp =  0.08228

 Side 1  free  transition at x/c =  0.1398   57
 Side 2 forced transition at x/c =  1.0000   57
 idif Ue xi dudx           1  8.04664046E-02  6.43014908E-03   12.513926    
 Uenew xinew           2  2.19723713E-02  1.75583363E-03

  38   rms: 0.9415E-01   max: -.4309E+00   T at    2  1
       a = 19.250      CL =  1.5413
      Cm = -0.0252     CD =  0.10473   =>   CDf =  0.00532    CDp =  0.09941

 Side 1  free  transition at x/c =  0.1388   56
 Side 2 forced transition at x/c =  1.0000   58

  39   rms: 0.1011E+00   max: 0.4742E+00   D at   72  1
       a = 19.250      CL =  1.4728
      Cm = -0.0313     CD =  0.11706   =>   CDf =  0.00475    CDp =  0.11231

 Side 1  free  transition at x/c =  0.1383   56
 Side 2 forced transition at x/c =  1.0000   58

  40   rms: 0.8294E-01   max: -.3830E+00   D at   67  1
       a = 19.250      CL =  1.5295
      Cm = -0.0242     CD =  0.10033   =>   CDf =  0.00453    CDp =  0.09580

 Side 1  free  transition at x/c =  0.1392   56
 Side 2 forced transition at x/c =  1.0000   58
 idif Ue xi dudx           1  7.61153027E-02  5.40959835E-03   14.070416    
 Uenew xinew           2  1.50288260E-02  1.06811523E-03

  41   rms: 0.1341E+00   max: 0.5626E+00   D at   71  1
       a = 19.250      CL =  1.4385
      Cm = -0.0350     CD =  0.12449   =>   CDf =  0.00505    CDp =  0.11944

 Side 1  free  transition at x/c =  0.1379   55
 Side 2 forced transition at x/c =  1.0000   59

  42   rms: 0.7845E-01   max: -.4051E+00   D at   64  1
       a = 19.250      CL =  1.4905
      Cm = -0.0278     CD =  0.10698   =>   CDf =  0.00410    CDp =  0.10288

 Side 1  free  transition at x/c =  0.1390   56
 Side 2 forced transition at x/c =  1.0000   58

  43   rms: 0.1177E+00   max: -.5239E+00   D at   66  1   RLX: 0.954
       a = 19.250      CL =  1.5674
      Cm = -0.0207     CD =  0.09324   =>   CDf =  0.00459    CDp =  0.08864

 Side 1  free  transition at x/c =  0.1395   56
 Side 2 forced transition at x/c =  1.0000   58

  44   rms: 0.8487E-01   max: 0.3923E+00   D at   72  1
       a = 19.250      CL =  1.5087
      Cm = -0.0280     CD =  0.11002   =>   CDf =  0.00486    CDp =  0.10515

 Side 1  free  transition at x/c =  0.1386   56
 Side 2 forced transition at x/c =  1.0000   58

  45   rms: 0.2379E+00   max: -.9557E+00   D at   68  1   RLX: 0.523
       a = 19.250      CL =  1.5988
      Cm = -0.0192     CD =  0.08806   =>   CDf =  0.00430    CDp =  0.08377

 Side 1  free  transition at x/c =  0.1397   57
 Side 2 forced transition at x/c =  1.0000   57
 idif Ue xi dudx           1  6.22904599E-02  5.07450104E-03   12.275189    
 Uenew xinew           2  4.91235405E-03  4.00185585E-04

  46   rms: 0.1454E+00   max: -.2043E+01   T at    2  1   RLX: 0.245
       a = 19.250      CL =  1.5965
      Cm = -0.0252     CD =  0.09676   =>   CDf =  0.00529    CDp =  0.09147

 Side 1  free  transition at x/c =  0.1394   56
 Side 2 forced transition at x/c =  1.0000   58

  47   rms: 0.9859E-01   max: -.5739E+00   D at    2  2   RLX: 0.871
       a = 19.250      CL =  1.5277
      Cm = -0.0271     CD =  0.10721   =>   CDf =  0.00490    CDp =  0.10231

 Side 1  free  transition at x/c =  0.1388   56
 Side 2 forced transition at x/c =  1.0000   58
 idif Ue xi dudx           2  0.12147674      8.51166248E-03   14.271799    
 Uenew xinew           3  5.95159605E-02  4.17017937E-03

  48   rms: 0.2614E+00   max: 0.1011E+01   D at   72  1
       a = 19.250      CL =  1.3506
      Cm = -0.0446     CD =  0.14699   =>   CDf =  0.00529    CDp =  0.14169

 MRCHDU: Convergence failed at  62  side 1    Res =  0.8439E+00
 MRCHDU: Convergence failed at  63  side 1    Res =  0.1819E+01
 MRCHDU: Convergence failed at  64  side 1    Res =  0.7042E+01
 MRCHDU: Convergence failed at  65  side 1    Res =  0.3519E+01
 MRCHDU: Convergence failed at  66  side 1    Res =  0.1643E+01
 MRCHDU: Convergence failed at  67  side 1    Res =  0.8271E+01
 MRCHDU: Convergence failed at  68  side 1    Res =  0.1700E+01
 Side 1  free  transition at x/c =  0.1367   54
 Side 2 forced transition at x/c =  1.0000   60

  49   rms: 0.2228E+00   max: 0.2339E+01   T at    2  2   RLX: 0.418
       a = 19.250      CL =  1.5107
      Cm = -0.0810     CD =  0.12133   =>   CDf =  0.00406    CDp =  0.11727

 Side 1  free  transition at x/c =  0.1372   55
 Side 2 forced transition at x/c =  1.0000   59

  50   rms: 0.3054E+00   max: -.1049E+01   D at   62  1   RLX: 0.477
       a = 19.250      CL =  1.5524
      Cm = -0.0413     CD =  0.09751   =>   CDf =  0.00434    CDp =  0.09317

 Side 1  free  transition at x/c =  0.1396   56
 Side 2 forced transition at x/c =  1.0000   58

  51   rms: 0.1625E+00   max: -.6215E+00   D at   63  1   RLX: 0.805
       a = 19.250      CL =  1.6249
      Cm = -0.0207     CD =  0.08641   =>   CDf =  0.00448    CDp =  0.08193

 Side 1  free  transition at x/c =  0.1394   57
 Side 2 forced transition at x/c =  1.0000   57
 idif Ue xi dudx           1  7.25952461E-02  5.85854053E-03   12.391354    
 Uenew xinew           2  1.46741513E-02  1.18422508E-03

  52   rms: 0.8666E-01   max: 0.4506E+00   D at   72  1
       a = 19.250      CL =  1.5588
      Cm = -0.0235     CD =  0.10166   =>   CDf =  0.00536    CDp =  0.09630

 Side 1  free  transition at x/c =  0.1388   56
 Side 2 forced transition at x/c =  1.0000   58

  53   rms: 0.8090E-01   max: 0.3561E+00   D at   73  1
       a = 19.250      CL =  1.5036
      Cm = -0.0284     CD =  0.11098   =>   CDf =  0.00482    CDp =  0.10616

 Side 1  free  transition at x/c =  0.1385   56
 Side 2 forced transition at x/c =  1.0000   58

  54   rms: 0.1612E+00   max: -.6665E+00   D at   68  1   RLX: 0.750
       a = 19.250      CL =  1.5892
      Cm = -0.0194     CD =  0.08964   =>   CDf =  0.00462    CDp =  0.08502

 Side 1  free  transition at x/c =  0.1396   56
 Side 2 forced transition at x/c =  1.0000   58

  55   rms: 0.8130E-01   max: 0.3836E+00   D at   72  1
       a = 19.250      CL =  1.5320
      Cm = -0.0259     CD =  0.10595   =>   CDf =  0.00494    CDp =  0.10101

 Side 1  free  transition at x/c =  0.1387   56
 Side 2 forced transition at x/c =  1.0000   58
 idif Ue xi dudx           1  9.40503106E-02  6.60908222E-03   14.230465    
 Uenew xinew           2  3.22689898E-02  2.26759911E-03

  56   rms: 0.1907E+00   max: 0.7953E+00   D at   72  1
       a = 19.250      CL =  1.4032
      Cm = -0.0388     CD =  0.13357   =>   CDf =  0.00503    CDp =  0.12854

 Side 1  free  transition at x/c =  0.1376   55
 Side 2 forced transition at x/c =  1.0000   59

  57   rms: 0.1158E+00   max: -.5533E+00   D at   63  1   RLX: 0.904
       a = 19.250      CL =  1.4773
      Cm = -0.0300     CD =  0.10809   =>   CDf =  0.00404    CDp =  0.10404

 Side 1  free  transition at x/c =  0.1394   56
 Side 2 forced transition at x/c =  1.0000   58

  58   rms: 0.7378E-01   max: 0.6626E+00   T at    2  1
       a = 19.250      CL =  1.5150
      Cm = -0.0257     CD =  0.10309   =>   CDf =  0.00455    CDp =  0.09854

 Side 1  free  transition at x/c =  0.1388   56
 Side 2 forced transition at x/c =  1.0000   58

  59   rms: 0.6518E+00   max: -.2562E+01   D at   69  1   RLX: 0.195
       a = 19.250      CL =  1.6117
      Cm = -0.0190     CD =  0.08791   =>   CDf =  0.00434    CDp =  0.08357

 Side 1  free  transition at x/c =  0.1399   57
 Side 2 forced transition at x/c =  1.0000   57
 idif Ue xi dudx           1  8.07947963E-02  6.44898415E-03   12.528298    
 Uenew xinew           2  2.22335793E-02  1.77466869E-03

  60   rms: 0.9827E-01   max: 0.4678E+00   D at   74  1
       a = 19.250      CL =  1.5407
      Cm = -0.0252     CD =  0.10481   =>   CDf =  0.00534    CDp =  0.09947

 Side 1  free  transition at x/c =  0.1388   56
 Side 2 forced transition at x/c =  1.0000   58
 idif Ue xi dudx           1  6.57824427E-02  4.73618507E-03   13.889331    
 Uenew xinew           2  5.48214605E-03  3.94701958E-04

  61   rms: 0.1215E+00   max: 0.5497E+00   D at   72  1
       a = 19.250      CL =  1.4589
      Cm = -0.0328     CD =  0.12034   =>   CDf =  0.00507    CDp =  0.11527

 Side 1  free  transition at x/c =  0.1382   55
 Side 2 forced transition at x/c =  1.0000   59

  62   rms: 0.8002E-01   max: -.3789E+00   D at   65  1
       a = 19.250      CL =  1.5117
      Cm = -0.0259     CD =  0.10351   =>   CDf =  0.00416    CDp =  0.09934

 Side 1  free  transition at x/c =  0.1390   56
 Side 2 forced transition at x/c =  1.0000   58

  63   rms: 0.2719E+00   max: -.1094E+01   D at   68  1   RLX: 0.457
       a = 19.250      CL =  1.6043
      Cm = -0.0190     CD =  0.08860   =>   CDf =  0.00433    CDp =  0.08427

 Side 1  free  transition at x/c =  0.1399   57
 Side 2 forced transition at x/c =  1.0000   57
 idif Ue xi dudx           1  7.42371753E-02  5.91111183E-03   12.558919    
 Uenew xinew           2  1.55328251E-02  1.23679638E-03

  64   rms: 0.1038E+00   max: -.7413E+00   D at    2  1   RLX: 0.674
       a = 19.250      CL =  1.5626
      Cm = -0.0255     CD =  0.10217   =>   CDf =  0.00531    CDp =  0.09686

 Side 1  free  transition at x/c =  0.1391   56
 Side 2 forced transition at x/c =  1.0000   58

  65   rms: 0.8747E-01   max: 0.3926E+00   D at   73  1
       a = 19.250      CL =  1.4957
      Cm = -0.0292     CD =  0.11253   =>   CDf =  0.00481    CDp =  0.10772

 Side 1  free  transition at x/c =  0.1385   56
 Side 2 forced transition at x/c =  1.0000   58

  66   rms: 0.1254E+00   max: -.5350E+00   D at   67  1   RLX: 0.935
       a = 19.250      CL =  1.5775
      Cm = -0.0199     CD =  0.09163   =>   CDf =  0.00460    CDp =  0.08704

 Side 1  free  transition at x/c =  0.1396   56
 Side 2 forced transition at x/c =  1.0000   58

  67   rms: 0.9228E-01   max: 0.4296E+00   D at   72  1
       a = 19.250      CL =  1.5133
      Cm = -0.0277     CD =  0.10952   =>   CDf =  0.00490    CDp =  0.10462

 Side 1  free  transition at x/c =  0.1387   56
 Side 2 forced transition at x/c =  1.0000   58

  68   rms: 0.4424E+00   max: -.1742E+01   D at   68  1   RLX: 0.287
       a = 19.250      CL =  1.6062
      Cm = -0.0190     CD =  0.08665   =>   CDf =  0.00431    CDp =  0.08234

 Side 1  free  transition at x/c =  0.1398   57
 Side 2 forced transition at x/c =  1.0000   57
 idif Ue xi dudx           1  7.83607662E-02  6.26432896E-03   12.509044    
 Uenew xinew           2  1.98895484E-02  1.59001350E-03

  69   rms: 0.9496E-01   max: -.5417E+00   T at    2  1   RLX: 0.923
       a = 19.250      CL =  1.5476
      Cm = -0.0251     CD =  0.10372   =>   CDf =  0.00531    CDp =  0.09841

 Side 1  free  transition at x/c =  0.1389   56
 Side 2 forced transition at x/c =  1.0000   58

  70   rms: 0.9089E-01   max: 0.4208E+00   D at   72  1
       a = 19.250      CL =  1.4843
      Cm = -0.0302     CD =  0.11466   =>   CDf =  0.00477    CDp =  0.10989

 Side 1  free  transition at x/c =  0.1383   56
 Side 2 forced transition at x/c =  1.0000   58

  71   rms: 0.9873E-01   max: -.4409E+00   D at   67  1
       a = 19.250      CL =  1.5523
      Cm = -0.0220     CD =  0.09614   =>   CDf =  0.00456    CDp =  0.09158

 Side 1  free  transition at x/c =  0.1394   56
 Side 2 forced transition at x/c =  1.0000   58

  72   rms: 0.8597E-01   max: 0.3836E+00   D at   71  1
       a = 19.250      CL =  1.4934
      Cm = -0.0294     CD =  0.11274   =>   CDf =  0.00481    CDp =  0.10793

 Side 1  free  transition at x/c =  0.1384   56
 Side 2 forced transition at x/c =  1.0000   58

  73   rms: 0.1082E+00   max: -.4637E+00   D at   67  1
       a = 19.250      CL =  1.5683
      Cm = -0.0206     CD =  0.09339   =>   CDf =  0.00459    CDp =  0.08881

 Side 1  free  transition at x/c =  0.1395   56
 Side 2 forced transition at x/c =  1.0000   58

  74   rms: 0.8514E-01   max: 0.3889E+00   D at   72  1
       a = 19.250      CL =  1.5097
      Cm = -0.0279     CD =  0.10988   =>   CDf =  0.00487    CDp =  0.10502

 Side 1  free  transition at x/c =  0.1386   56
 Side 2 forced transition at x/c =  1.0000   58

  75   rms: 0.2584E+00   max: -.1036E+01   D at   68  1   RLX: 0.483
       a = 19.250      CL =  1.6001
      Cm = -0.0192     CD =  0.08782   =>   CDf =  0.00430    CDp =  0.08352

 Side 1  free  transition at x/c =  0.1397   57
 Side 2 forced transition at x/c =  1.0000   57
 idif Ue xi dudx           1  6.47708699E-02  5.25426865E-03   12.327286    
 Uenew xinew           2  7.14924885E-03  5.79953194E-04

  76   rms: 0.1188E+00   max: -.1413E+01   D at    2  1   RLX: 0.354
       a = 19.250      CL =  1.5889
      Cm = -0.0253     CD =  0.09781   =>   CDf =  0.00529    CDp =  0.09252

 Side 1  free  transition at x/c =  0.1393   56
 Side 2 forced transition at x/c =  1.0000   58

  77   rms: 0.9296E-01   max: 0.3822E+00   D at   72  1
       a = 19.250      CL =  1.5135
      Cm = -0.0277     CD =  0.10955   =>   CDf =  0.00488    CDp =  0.10467

 Side 1  free  transition at x/c =  0.1386   56
 Side 2 forced transition at x/c =  1.0000   58

  78   rms: 0.4404E+00   max: -.1737E+01   D at   68  1   RLX: 0.288
       a = 19.250      CL =  1.6062
      Cm = -0.0191     CD =  0.08677   =>   CDf =  0.00431    CDp =  0.08245

 Side 1  free  transition at x/c =  0.1398   57
 Side 2 forced transition at x/c =  1.0000   57
 idif Ue xi dudx           1  8.06738734E-02  6.44135475E-03   12.524364    
 Uenew xinew           2  2.21310444E-02  1.76703930E-03

  79   rms: 0.9438E-01   max: -.4827E+00   T at    2  1
       a = 19.250      CL =  1.5409
      Cm = -0.0252     CD =  0.10477   =>   CDf =  0.00531    CDp =  0.09946

 Side 1  free  transition at x/c =  0.1388   56
 Side 2 forced transition at x/c =  1.0000   58
 idif Ue xi dudx           1  5.97067326E-02  4.34482098E-03   13.742046    
 Uenew xinew           2  4.58690265E-05  3.33786011E-06

  80   rms: 0.1030E+00   max: 0.4817E+00   D at   72  1
       a = 19.250      CL =  1.4711
      Cm = -0.0315     CD =  0.11745   =>   CDf =  0.00507    CDp =  0.11238

 Side 1  free  transition at x/c =  0.1383   55
 Side 2 forced transition at x/c =  1.0000   59

  81   rms: 0.1367E+01   max: 0.2444E+02   D at    2  2   RLX: 0.052
       a = 19.250      CL =  1.4829
      Cm = -0.0339     CD =  0.11146   =>   CDf =  0.00419    CDp =  0.10727

 Side 1  free  transition at x/c =  0.1383   56
 Side 2 forced transition at x/c =  1.0000   58

  82   rms: 0.4385E+00   max: 0.7524E+01   T at    2  1   RLX: 0.148
       a = 19.250      CL =  1.4902
      Cm = -0.0324     CD =  0.10986   =>   CDf =  0.00453    CDp =  0.10533

 Side 1  free  transition at x/c =  0.1384   56
 Side 2 forced transition at x/c =  1.0000   58

  83   rms: 0.1090E+00   max: -.4713E+00   D at   67  1
       a = 19.250      CL =  1.5589
      Cm = -0.0214     CD =  0.09476   =>   CDf =  0.00456    CDp =  0.09020

 Side 1  free  transition at x/c =  0.1395   56
 Side 2 forced transition at x/c =  1.0000   58

  84   rms: 0.7672E-01   max: 0.3394E+00   D at   72  1
       a = 19.250      CL =  1.5063
      Cm = -0.0282     CD =  0.11016   =>   CDf =  0.00483    CDp =  0.10533

 Side 1  free  transition at x/c =  0.1385   56
 Side 2 forced transition at x/c =  1.0000   58

  85   rms: 0.1946E+00   max: -.7889E+00   D at   68  1   RLX: 0.634
       a = 19.250      CL =  1.5945
      Cm = -0.0193     CD =  0.08872   =>   CDf =  0.00463    CDp =  0.08409

 Side 1  free  transition at x/c =  0.1397   56
 Side 2 forced transition at x/c =  1.0000   58

  86   rms: 0.8310E-01   max: 0.3831E+00   D at   72  1
       a = 19.250      CL =  1.5358
      Cm = -0.0256     CD =  0.10538   =>   CDf =  0.00495    CDp =  0.10043

 Side 1  free  transition at x/c =  0.1387   56
 Side 2 forced transition at x/c =  1.0000   58
 idif Ue xi dudx           1  7.72969499E-02  5.48601151E-03   14.089827    
 Uenew xinew           2  1.61262061E-02  1.14452839E-03

  87   rms: 0.1468E+00   max: 0.6387E+00   D at   72  1
       a = 19.250      CL =  1.4361
      Cm = -0.0353     CD =  0.12560   =>   CDf =  0.00505    CDp =  0.12056

 Side 1  free  transition at x/c =  0.1380   55
 Side 2 forced transition at x/c =  1.0000   59

  88   rms: 0.8170E-01   max: -.4076E+00   D at   64  1
       a = 19.250      CL =  1.4919
      Cm = -0.0277     CD =  0.10653   =>   CDf =  0.00410    CDp =  0.10243

 Side 1  free  transition at x/c =  0.1390   56
 Side 2 forced transition at x/c =  1.0000   58

  89   rms: 0.1195E+00   max: -.5336E+00   D at   66  1   RLX: 0.937
       a = 19.250      CL =  1.5688
      Cm = -0.0206     CD =  0.09309   =>   CDf =  0.00460    CDp =  0.08849

 Side 1  free  transition at x/c =  0.1395   56
 Side 2 forced transition at x/c =  1.0000   58

  90   rms: 0.8637E-01   max: 0.4000E+00   D at   72  1
       a = 19.250      CL =  1.5089
      Cm = -0.0280     CD =  0.11005   =>   CDf =  0.00487    CDp =  0.10518

 Side 1  free  transition at x/c =  0.1386   56
 Side 2 forced transition at x/c =  1.0000   58

  91   rms: 0.2428E+00   max: -.9744E+00   D at   68  1   RLX: 0.513
       a = 19.250      CL =  1.5991
      Cm = -0.0192     CD =  0.08800   =>   CDf =  0.00430    CDp =  0.08370

 Side 1  free  transition at x/c =  0.1397   57
 Side 2 forced transition at x/c =  1.0000   57
 idif Ue xi dudx           1  6.29758611E-02  5.12385368E-03   12.290722    
 Uenew xinew           2  5.52514941E-03  4.49538231E-04

  92   rms: 0.1350E+00   max: -.1812E+01   D at    2  1   RLX: 0.276
       a = 19.250      CL =  1.5944
      Cm = -0.0252     CD =  0.09704   =>   CDf =  0.00529    CDp =  0.09175

 Side 1  free  transition at x/c =  0.1394   56
 Side 2 forced transition at x/c =  1.0000   58

  93   rms: 0.9684E-01   max: -.5054E+00   T at    2  2   RLX: 0.989
       a = 19.250      CL =  1.5171
      Cm = -0.0274     CD =  0.10898   =>   CDf =  0.00490    CDp =  0.10408

 Side 1  free  transition at x/c =  0.1387   56
 Side 2 forced transition at x/c =  1.0000   58

  94   rms: 0.1603E+01   max: -.6191E+01   D at   68  1   RLX: 0.081
       a = 19.250      CL =  1.6126
      Cm = -0.0190     CD =  0.08566   =>   CDf =  0.00433    CDp =  0.08134

 Side 1  free  transition at x/c =  0.1398   57
 Side 2 forced transition at x/c =  1.0000   57
 idif Ue xi dudx           1  7.93662071E-02  6.36267662E-03   12.473714    
 Uenew xinew           2  2.10601334E-02  1.68836117E-03

  95   rms: 0.9547E-01   max: 0.4194E+00   D at   73  1
       a = 19.250      CL =  1.5436
      Cm = -0.0250     CD =  0.10449   =>   CDf =  0.00533    CDp =  0.09916

 Side 1  free  transition at x/c =  0.1388   56
 Side 2 forced transition at x/c =  1.0000   58

  96   rms: 0.9483E-01   max: 0.4476E+00   D at   72  1
       a = 19.250      CL =  1.4795
      Cm = -0.0307     CD =  0.11567   =>   CDf =  0.00476    CDp =  0.11091

 Side 1  free  transition at x/c =  0.1383   56
 Side 2 forced transition at x/c =  1.0000   58

  97   rms: 0.8988E-01   max: -.4086E+00   D at   67  1
       a = 19.250      CL =  1.5414
      Cm = -0.0231     CD =  0.09821   =>   CDf =  0.00455    CDp =  0.09366

 Side 1  free  transition at x/c =  0.1393   56
 Side 2 forced transition at x/c =  1.0000   58
 idif Ue xi dudx           1  6.66396096E-02  4.78899479E-03   13.915156    
 Uenew xinew           2  6.22719480E-03  4.47511673E-04

  98   rms: 0.1231E+00   max: 0.5370E+00   D at   71  1
       a = 19.250      CL =  1.4573
      Cm = -0.0331     CD =  0.12059   =>   CDf =  0.00509    CDp =  0.11550

 Side 1  free  transition at x/c =  0.1382   55
 Side 2 forced transition at x/c =  1.0000   59

  99   rms: 0.7621E-01   max: -.3716E+00   D at   65  1
       a = 19.250      CL =  1.5074
      Cm = -0.0264     CD =  0.10438   =>   CDf =  0.00415    CDp =  0.10023

 Side 1  free  transition at x/c =  0.1390   56
 Side 2 forced transition at x/c =  1.0000   58

 100   rms: 0.2040E+00   max: -.8361E+00   D at   67  1   RLX: 0.598
       a = 19.250      CL =  1.5967
      Cm = -0.0192     CD =  0.08942   =>   CDf =  0.00431    CDp =  0.08511

 Side 1  free  transition at x/c =  0.1398   57
 Side 2 forced transition at x/c =  1.0000   57
 idif Ue xi dudx           1  5.80978766E-02  4.72402573E-03   12.298383    
 Uenew xinew           2  6.11355994E-04  4.97102737E-05

 101   rms: 0.1439E+01   max: -.2546E+02   D at    2  1   RLX: 0.020
       a = 19.250      CL =  1.6116
      Cm = -0.0251     CD =  0.09580   =>   CDf =  0.00529    CDp =  0.09052

 Side 1  free  transition at x/c =  0.1397   56
 Side 2 forced transition at x/c =  1.0000   58

 102   rms: 0.2462E+00   max: -.4035E+01   T at    2  2   RLX: 0.124
       a = 19.250      CL =  1.6019
      Cm = -0.0252     CD =  0.09695   =>   CDf =  0.00496    CDp =  0.09199

 Side 1  free  transition at x/c =  0.1396   56
 Side 2 forced transition at x/c =  1.0000   58

 103   rms: 0.8297E-01   max: 0.3754E+00   D at   73  1
       a = 19.250      CL =  1.5274
      Cm = -0.0264     CD =  0.10676   =>   CDf =  0.00493    CDp =  0.10183

 Side 1  free  transition at x/c =  0.1387   56
 Side 2 forced transition at x/c =  1.0000   58
 idif Ue xi dudx           1  0.11071884      7.75969028E-03   14.268461    
 Uenew xinew           2  4.87725548E-02  3.41820717E-03

 104   rms: 0.2329E+00   max: 0.9190E+00   D at   72  1
       a = 19.250      CL =  1.3711
      Cm = -0.0423     CD =  0.14163   =>   CDf =  0.00501    CDp =  0.13662

 MRCHDU: Convergence failed at  64  side 1    Res =  0.2066E+01
 MRCHDU: Convergence failed at  65  side 1    Res =  0.3613E+01
 MRCHDU: Convergence failed at  66  side 1    Res =  0.4712E+01
 MRCHDU: Convergence failed at  67  side 1    Res =  0.1257E+01
 MRCHDU: Convergence failed at  68  side 1    Res =  0.3103E+01
 MRCHDU: Convergence failed at  69  side 1    Res =  0.1785E+01
 Side 1  free  transition at x/c =  0.1371   55
 Side 2 forced transition at x/c =  1.0000   59

 105   rms: 0.1505E+00   max: 0.8284E+00   D at   69  1
       a = 19.250      CL =  1.4575
      Cm = -0.0317     CD =  0.11337   =>   CDf =  0.00436    CDp =  0.10901

 Side 1  free  transition at x/c =  0.1382   55
 Side 2 forced transition at x/c =  1.0000   59

 106   rms: 0.6479E-01   max: -.3926E+00   D at   63  1
       a = 19.250      CL =  1.4935
      Cm = -0.0276     CD =  0.10653   =>   CDf =  0.00412    CDp =  0.10241

 Side 1  free  transition at x/c =  0.1389   56
 Side 2 forced transition at x/c =  1.0000   58

 107   rms: 0.1468E+00   max: -.6008E+00   D at   67  1   RLX: 0.832
       a = 19.250      CL =  1.5798
      Cm = -0.0200     CD =  0.09146   =>   CDf =  0.00461    CDp =  0.08685

 Side 1  free  transition at x/c =  0.1397   56
 Side 2 forced transition at x/c =  1.0000   58

 108   rms: 0.8930E-01   max: 0.4190E+00   D at   72  1
       a = 19.250      CL =  1.5169
      Cm = -0.0273     CD =  0.10876   =>   CDf =  0.00491    CDp =  0.10385

 Side 1  free  transition at x/c =  0.1387   56
 Side 2 forced transition at x/c =  1.0000   58

 109   rms: 0.1742E+01   max: -.6748E+01   D at   68  1   RLX: 0.074
       a = 19.250      CL =  1.6123
      Cm = -0.0190     CD =  0.08562   =>   CDf =  0.00432    CDp =  0.08129

 Side 1  free  transition at x/c =  0.1398   57
 Side 2 forced transition at x/c =  1.0000   57
 idif Ue xi dudx           1  7.96307102E-02  6.37364388E-03   12.493750    
 Uenew xinew           2  2.12309845E-02  1.69932842E-03

 110   rms: 0.9668E-01   max: 0.4284E+00   D at   74  1
       a = 19.250      CL =  1.5432
      Cm = -0.0250     CD =  0.10455   =>   CDf =  0.00533    CDp =  0.09921

 Side 1  free  transition at x/c =  0.1388   56
 Side 2 forced transition at x/c =  1.0000   58

 111   rms: 0.9856E-01   max: 0.4631E+00   D at   72  1
       a = 19.250      CL =  1.4766
      Cm = -0.0309     CD =  0.11630   =>   CDf =  0.00476    CDp =  0.11154

 Side 1  free  transition at x/c =  0.1383   56
 Side 2 forced transition at x/c =  1.0000   58

 112   rms: 0.8695E-01   max: -.3986E+00   D at   67  1
       a = 19.250      CL =  1.5364
      Cm = -0.0236     CD =  0.09906   =>   CDf =  0.00454    CDp =  0.09452

 Side 1  free  transition at x/c =  0.1392   56
 Side 2 forced transition at x/c =  1.0000   58
 idif Ue xi dudx           1  7.04852715E-02  5.03945351E-03   13.986690    
 Uenew xinew           2  9.76229552E-03  6.97970390E-04

 113   rms: 0.1272E+00   max: 0.5498E+00   D at   71  1
       a = 19.250      CL =  1.4496
      Cm = -0.0338     CD =  0.12210   =>   CDf =  0.00507    CDp =  0.11703

 Side 1  free  transition at x/c =  0.1381   55
 Side 2 forced transition at x/c =  1.0000   59

 114   rms: 0.7532E-01   max: -.3756E+00   D at   64  1
       a = 19.250      CL =  1.4997
      Cm = -0.0270     CD =  0.10552   =>   CDf =  0.00413    CDp =  0.10140

 Side 1  free  transition at x/c =  0.1389   56
 Side 2 forced transition at x/c =  1.0000   58

 115   rms: 0.1576E+00   max: -.6682E+00   D at   67  1   RLX: 0.748
       a = 19.250      CL =  1.5841
      Cm = -0.0199     CD =  0.09112   =>   CDf =  0.00463    CDp =  0.08649

 Side 1  free  transition at x/c =  0.1397   56
 Side 2 forced transition at x/c =  1.0000   58

 116   rms: 0.8411E-01   max: 0.3964E+00   D at   72  1
       a = 19.250      CL =  1.5239
      Cm = -0.0266     CD =  0.10731   =>   CDf =  0.00492    CDp =  0.10239

 Side 1  free  transition at x/c =  0.1387   56
 Side 2 forced transition at x/c =  1.0000   58
 idif Ue xi dudx           2  0.14589342      1.02049112E-02   14.296393    
 Uenew xinew           3  8.38258713E-02  5.86342812E-03

 117   rms: 0.3319E+00   max: 0.1290E+01   D at   72  1
       a = 19.250      CL =  1.3047
      Cm = -0.0498     CD =  0.15965   =>   CDf =  0.00528    CDp =  0.15437

 MRCHDU: Convergence failed at  61  side 1    Res =  0.8377E+00
 MRCHDU: Convergence failed at  62  side 1    Res =  0.1342E+01
 MRCHDU: Convergence failed at  63  side 1    Res =  0.2713E+01
 MRCHDU: Convergence failed at  64  side 1    Res =  0.2104E+02
 MRCHDU: Convergence failed at  65  side 1    Res =  0.3536E+01
 MRCHDU: Convergence failed at  66  side 1    Res =  0.2567E+01
 MRCHDU: Convergence failed at  67  side 1    Res =  0.1276E+02
 MRCHDU: Convergence failed at  68  side 1    Res =  0.1354E+01
 Side 1  free  transition at x/c =  0.1359   54
 Side 2 forced transition at x/c =  1.0000   60

 118   rms: 0.2056E+00   max: 0.1396E+01   D at   68  1
       a = 19.250      CL =  1.4190
      Cm = -0.0358     CD =  0.12079   =>   CDf =  0.00406    CDp =  0.11672

 Side 1  free  transition at x/c =  0.1366   55
 Side 2 forced transition at x/c =  1.0000   59

 119   rms: 0.1037E+00   max: -.4841E+00   D at   61  1
       a = 19.250      CL =  1.4805
      Cm = -0.0282     CD =  0.10738   =>   CDf =  0.00403    CDp =  0.10335

 Side 1  free  transition at x/c =  0.1394   56
 Side 2 forced transition at x/c =  1.0000   58

 120   rms: 0.7118E-01   max: -.3672E+00   D at   67  1
       a = 19.250      CL =  1.5248
      Cm = -0.0246     CD =  0.10094   =>   CDf =  0.00456    CDp =  0.09637

 Side 1  free  transition at x/c =  0.1389   56
 Side 2 forced transition at x/c =  1.0000   58
 idif Ue xi dudx           1  8.24316740E-02  5.82897663E-03   14.141706    
 Uenew xinew           2  2.10356973E-02  1.48749352E-03

 121   rms: 0.1464E+00   max: 0.5974E+00   D at   70  1
       a = 19.250      CL =  1.4261
      Cm = -0.0364     CD =  0.12739   =>   CDf =  0.00503    CDp =  0.12236

 Side 1  free  transition at x/c =  0.1377   55
 Side 2 forced transition at x/c =  1.0000   59

 122   rms: 0.8533E-01   max: -.4443E+00   D at   64  1
       a = 19.250      CL =  1.4828
      Cm = -0.0285     CD =  0.10799   =>   CDf =  0.00407    CDp =  0.10392

 Side 1  free  transition at x/c =  0.1390   56
 Side 2 forced transition at x/c =  1.0000   58

 123   rms: 0.8503E-01   max: -.4086E+00   D at   66  1
       a = 19.250      CL =  1.5377
      Cm = -0.0234     CD =  0.09863   =>   CDf =  0.00457    CDp =  0.09406

 Side 1  free  transition at x/c =  0.1391   56
 Side 2 forced transition at x/c =  1.0000   58
 idif Ue xi dudx           1  6.79127350E-02  4.87184525E-03   13.939838    
 Uenew xinew           2  7.39316223E-03  5.30362129E-04

 124   rms: 0.1218E+00   max: 0.5238E+00   D at   71  1
       a = 19.250      CL =  1.4547
      Cm = -0.0333     CD =  0.12102   =>   CDf =  0.00508    CDp =  0.11594

 Side 1  free  transition at x/c =  0.1382   55
 Side 2 forced transition at x/c =  1.0000   59

 125   rms: 0.7543E-01   max: -.3655E+00   D at   65  1
       a = 19.250      CL =  1.5047
      Cm = -0.0266     CD =  0.10486   =>   CDf =  0.00414    CDp =  0.10071

 Side 1  free  transition at x/c =  0.1390   56
 Side 2 forced transition at x/c =  1.0000   58

 126   rms: 0.1882E+00   max: -.7801E+00   D at   67  1   RLX: 0.641
       a = 19.250      CL =  1.5924
      Cm = -0.0195     CD =  0.09000   =>   CDf =  0.00464    CDp =  0.08536

 Side 1  free  transition at x/c =  0.1398   56
 Side 2 forced transition at x/c =  1.0000   58

 127   rms: 0.8195E-01   max: 0.3870E+00   D at   73  1
       a = 19.250      CL =  1.5331
      Cm = -0.0258     CD =  0.10569   =>   CDf =  0.00495    CDp =  0.10075

 Side 1  free  transition at x/c =  0.1387   56
 Side 2 forced transition at x/c =  1.0000   58
 idif Ue xi dudx           1  9.07711387E-02  6.38675690E-03   14.212399    
 Uenew xinew           2  2.90682483E-02  2.04527378E-03

 128   rms: 0.1829E+00   max: 0.7666E+00   D at   72  1
       a = 19.250      CL =  1.4097
      Cm = -0.0382     CD =  0.13203   =>   CDf =  0.00504    CDp =  0.12699

 Side 1  free  transition at x/c =  0.1377   55
 Side 2 forced transition at x/c =  1.0000   59

 129   rms: 0.9567E-01   max: -.4671E+00   D at   63  1
       a = 19.250      CL =  1.4760
      Cm = -0.0290     CD =  0.10860   =>   CDf =  0.00406    CDp =  0.10455

 Side 1  free  transition at x/c =  0.1391   56
 Side 2 forced transition at x/c =  1.0000   58

 130   rms: 0.8371E-01   max: 0.7302E+00   D at    2  1
       a = 19.250      CL =  1.5227
      Cm = -0.0248     CD =  0.10144   =>   CDf =  0.00454    CDp =  0.09690

 Side 1  free  transition at x/c =  0.1390   56
 Side 2 forced transition at x/c =  1.0000   58
 idif Ue xi dudx           1  9.39618424E-02  6.61027431E-03   14.214515    
 Uenew xinew           2  3.22497673E-02  2.26879120E-03

 131   rms: 0.1770E+00   max: 0.7252E+00   D at   70  1
       a = 19.250      CL =  1.4036
      Cm = -0.0388     CD =  0.13281   =>   CDf =  0.00502    CDp =  0.12779

 Side 1  free  transition at x/c =  0.1375   55
 Side 2 forced transition at x/c =  1.0000   59

 132   rms: 0.9710E-01   max: -.4913E+00   D at   63  1
       a = 19.250      CL =  1.4689
      Cm = -0.0296     CD =  0.10970   =>   CDf =  0.00435    CDp =  0.10536

 Side 1  free  transition at x/c =  0.1391   55
 Side 2 forced transition at x/c =  1.0000   59

 133   rms: 0.6905E-01   max: -.3741E+00   D at   64  1
       a = 19.250      CL =  1.5130
      Cm = -0.0258     CD =  0.10311   =>   CDf =  0.00419    CDp =  0.09892

 Side 1  free  transition at x/c =  0.1389   56
 Side 2 forced transition at x/c =  1.0000   58

 134   rms: 0.3541E+00   max: -.1404E+01   D at   68  1   RLX: 0.356
       a = 19.250      CL =  1.6076
      Cm = -0.0188     CD =  0.08832   =>   CDf =  0.00433    CDp =  0.08399

 Side 1  free  transition at x/c =  0.1399   57
 Side 2 forced transition at x/c =  1.0000   57
 idif Ue xi dudx           1  7.63317794E-02  6.08336926E-03   12.547616    
 Uenew xinew           2  1.76802669E-02  1.40905380E-03

 135   rms: 0.1034E+00   max: -.6420E+00   D at    2  1   RLX: 0.779
       a = 19.250      CL =  1.5556
      Cm = -0.0255     CD =  0.10313   =>   CDf =  0.00533    CDp =  0.09780

 Side 1  free  transition at x/c =  0.1390   56
 Side 2 forced transition at x/c =  1.0000   58

 136   rms: 0.9497E-01   max: 0.4311E+00   D at   73  1
       a = 19.250      CL =  1.4861
      Cm = -0.0301     CD =  0.11448   =>   CDf =  0.00479    CDp =  0.10969

 Side 1  free  transition at x/c =  0.1384   56
 Side 2 forced transition at x/c =  1.0000   58

 137   rms: 0.1022E+00   max: -.4563E+00   D at   67  1
       a = 19.250      CL =  1.5565
      Cm = -0.0216     CD =  0.09539   =>   CDf =  0.00456    CDp =  0.09082

 Side 1  free  transition at x/c =  0.1394   56
 Side 2 forced transition at x/c =  1.0000   58

 138   rms: 0.7381E-01   max: 0.3276E+00   D at   72  1
       a = 19.250      CL =  1.5060
      Cm = -0.0281     CD =  0.11009   =>   CDf =  0.00483    CDp =  0.10526

 Side 1  free  transition at x/c =  0.1385   56
 Side 2 forced transition at x/c =  1.0000   58

 139   rms: 0.1790E+00   max: -.7269E+00   D at   68  1   RLX: 0.688
       a = 19.250      CL =  1.5938
      Cm = -0.0192     CD =  0.08890   =>   CDf =  0.00463    CDp =  0.08427

 Side 1  free  transition at x/c =  0.1396   56
 Side 2 forced transition at x/c =  1.0000   58

 140   rms: 0.8289E-01   max: 0.3798E+00   D at   72  1
       a = 19.250      CL =  1.5353
      Cm = -0.0257     CD =  0.10547   =>   CDf =  0.00495    CDp =  0.10052

 Side 1  free  transition at x/c =  0.1387   56
 Side 2 forced transition at x/c =  1.0000   58
 idif Ue xi dudx           1  8.21892992E-02  5.81061840E-03   14.144673    
 Uenew xinew           2  2.07804386E-02  1.46913528E-03

 141   rms: 0.1605E+00   max: 0.6875E+00   D at   72  1
       a = 19.250      CL =  1.4265
      Cm = -0.0363     CD =  0.12795   =>   CDf =  0.00504    CDp =  0.12290

 Side 1  free  transition at x/c =  0.1379   55
 Side 2 forced transition at x/c =  1.0000   59

 142   rms: 0.8585E-01   max: -.4296E+00   D at   64  1
       a = 19.250      CL =  1.4855
      Cm = -0.0282     CD =  0.10752   =>   CDf =  0.00409    CDp =  0.10344

 Side 1  free  transition at x/c =  0.1390   56
 Side 2 forced transition at x/c =  1.0000   58

 143   rms: 0.9446E-01   max: -.4468E+00   D at   66  1
       a = 19.250      CL =  1.5479
      Cm = -0.0224     CD =  0.09677   =>   CDf =  0.00458    CDp =  0.09219

 Side 1  free  transition at x/c =  0.1392   56
 Side 2 forced transition at x/c =  1.0000   58

 144   rms: 0.9980E-01   max: 0.4423E+00   D at   71  1
       a = 19.250      CL =  1.4796
      Cm = -0.0308     CD =  0.11573   =>   CDf =  0.00480    CDp =  0.11093

 Side 1  free  transition at x/c =  0.1384   56
 Side 2 forced transition at x/c =  1.0000   58

 145   rms: 0.8503E-01   max: -.3863E+00   D at   67  1
       a = 19.250      CL =  1.5376
      Cm = -0.0235     CD =  0.09896   =>   CDf =  0.00454    CDp =  0.09442

 Side 1  free  transition at x/c =  0.1392   56
 Side 2 forced transition at x/c =  1.0000   58
 idif Ue xi dudx           1  6.82378933E-02  4.89282608E-03   13.946519    
 Uenew xinew           2  7.68931489E-03  5.51342964E-04

 146   rms: 0.1223E+00   max: 0.5324E+00   D at   71  1
       a = 19.250      CL =  1.4541
      Cm = -0.0334     CD =  0.12110   =>   CDf =  0.00508    CDp =  0.11603

 Side 1  free  transition at x/c =  0.1382   55
 Side 2 forced transition at x/c =  1.0000   59

 147   rms: 0.7509E-01   max: -.3712E+00   D at   65  1
       a = 19.250      CL =  1.5039
      Cm = -0.0267     CD =  0.10500   =>   CDf =  0.00414    CDp =  0.10086

 Side 1  free  transition at x/c =  0.1390   56
 Side 2 forced transition at x/c =  1.0000   58

 148   rms: 0.1818E+00   max: -.7568E+00   D at   67  1   RLX: 0.661
       a = 19.250      CL =  1.5909
      Cm = -0.0196     CD =  0.09019   =>   CDf =  0.00464    CDp =  0.08555

 Side 1  free  transition at x/c =  0.1397   56
 Side 2 forced transition at x/c =  1.0000   58

 149   rms: 0.8056E-01   max: 0.3787E+00   D at   73  1
       a = 19.250      CL =  1.5327
      Cm = -0.0258     CD =  0.10571   =>   CDf =  0.00494    CDp =  0.10076

 Side 1  free  transition at x/c =  0.1387   56
 Side 2 forced transition at x/c =  1.0000   58
 idif Ue xi dudx           1  9.20312330E-02  6.47211075E-03   14.219663    
 Uenew xinew           2  3.02968062E-02  2.13062763E-03

 150   rms: 0.1860E+00   max: 0.7744E+00   D at   72  1
       a = 19.250      CL =  1.4072
      Cm = -0.0384     CD =  0.13263   =>   CDf =  0.00503    CDp =  0.12759

 Side 1  free  transition at x/c =  0.1376   55
 Side 2 forced transition at x/c =  1.0000   59

 151   rms: 0.9751E-01   max: -.4757E+00   D at   63  1
       a = 19.250      CL =  1.4749
      Cm = -0.0291     CD =  0.10868   =>   CDf =  0.00405    CDp =  0.10463

 Side 1  free  transition at x/c =  0.1391   56
 Side 2 forced transition at x/c =  1.0000   58

 152   rms: 0.8718E-01   max: 0.8868E+00   D at    2  1
       a = 19.250      CL =  1.5203
      Cm = -0.0251     CD =  0.10193   =>   CDf =  0.00454    CDp =  0.09740

 Side 1  free  transition at x/c =  0.1389   56
 Side 2 forced transition at x/c =  1.0000   58
 idif Ue xi dudx           2  0.15087837      1.05717182E-02   14.271887    
 Uenew xinew           3  8.89172107E-02  6.23023510E-03

 153   rms: 0.3407E+00   max: 0.1373E+01   D at   70  1
       a = 19.250      CL =  1.2956
      Cm = -0.0510     CD =  0.16230   =>   CDf =  0.00529    CDp =  0.15701

 MRCHDU: Convergence failed at  61  side 1    Res =  0.8931E+00
 MRCHDU: Convergence failed at  62  side 1    Res =  0.1450E+01
 MRCHDU: Convergence failed at  63  side 1    Res =  0.3263E+01
 MRCHDU: Convergence failed at  64  side 1    Res =  0.2094E+02
 MRCHDU: Convergence failed at  65  side 1    Res =  0.2629E+01
 MRCHDU: Convergence failed at  66  side 1    Res =  0.2986E+01
 MRCHDU: Convergence failed at  67  side 1    Res =  0.8578E+01
 MRCHDU: Convergence failed at  68  side 1    Res =  0.1449E+01
 Side 1  free  transition at x/c =  0.1358   54
 Side 2 forced transition at x/c =  1.0000   60

 154   rms: 0.2266E+00   max: 0.1198E+01   D at   68  1
       a = 19.250      CL =  1.4447
      Cm = -0.0335     CD =  0.11492   =>   CDf =  0.00406    CDp =  0.11087

 Side 1  free  transition at x/c =  0.1372   55
 Side 2 forced transition at x/c =  1.0000   59

 155   rms: 0.5334E-01   max: -.3288E+00   D at   61  1
       a = 19.250      CL =  1.4627
      Cm = -0.0307     CD =  0.11242   =>   CDf =  0.00438    CDp =  0.10805
 VISCAL:  Convergence failed
 Calculating wake trajectory ...
 Calculating source influence matrix ...

 Solving BL system ...

 Side 1  free  transition at x/c =  0.1383   55
 Side 2 forced transition at x/c =  1.0000   59

   1   rms: 0.2740E+00   max: -.9589E+00   D at   66  1   RLX: 0.436
       a = 19.750      CL =  1.5551
      Cm = -0.0265     CD =  0.10031   =>   CDf =  0.00420    CDp =  0.09612

 Side 1  free  transition at x/c =  0.1381   56
 Side 2 forced transition at x/c =  1.0000   58
 idif Ue xi dudx           2  0.11805150      8.43989849E-03   13.987312    
 Uenew xinew           3  5.73258176E-02  4.09841537E-03

   2   rms: 0.4848E+00   max: 0.2083E+01   D at   71  1   RLX: 0.720
       a = 19.750      CL =  1.3264
      Cm = -0.0539     CD =  0.16590   =>   CDf =  0.00533    CDp =  0.16057

 MRCHDU: Convergence failed at  61  side 1    Res =  0.8655E+00
 MRCHDU: Convergence failed at  62  side 1    Res =  0.1387E+01
 MRCHDU: Convergence failed at  63  side 1    Res =  0.2671E+01
 MRCHDU: Convergence failed at  64  side 1    Res =  0.1884E+02
 MRCHDU: Convergence failed at  65  side 1    Res =  0.1864E+01
 MRCHDU: Convergence failed at  66  side 1    Res =  0.3448E+01
 MRCHDU: Convergence failed at  67  side 1    Res =  0.8937E+01
 MRCHDU: Convergence failed at  68  side 1    Res =  0.1560E+01
 MRCHDU: Convergence failed at  69  side 1    Res =  0.3308E+02
 Side 1  free  transition at x/c =  0.1353   54
 Side 2 forced transition at x/c =  1.0000   60

   3   rms: 0.8206E+00   max: 0.1344E+02   D at    2  2   RLX: 0.081
       a = 19.750      CL =  1.5829
      Cm = -0.1311     CD =  0.13076   =>   CDf =  0.00404    CDp =  0.12671

 Side 1  free  transition at x/c =  0.1354   55
 Side 2 forced transition at x/c =  1.0000   59

   4   rms: 0.4510E+00   max: 0.2382E+01   D at    2  1   RLX: 0.380
       a = 19.750      CL =  1.6032
      Cm = -0.0772     CD =  0.10285   =>   CDf =  0.00462    CDp =  0.09824

 Side 1  free  transition at x/c =  0.1366   56
 Side 2 forced transition at x/c =  1.0000   58

   5   rms: 0.2739E+00   max: -.8518E+00   D at   62  1   RLX: 0.587
       a = 19.750      CL =  1.6620
      Cm = -0.0395     CD =  0.09105   =>   CDf =  0.00460    CDp =  0.08645

 Side 1  free  transition at x/c =  0.1372   57
 Side 2 forced transition at x/c =  1.0000   57

   6   rms: 0.9178E-01   max: -.3103E+00   D at   73  1
       a = 19.750      CL =  1.6767
      Cm = -0.0158     CD =  0.08595   =>   CDf =  0.00502    CDp =  0.08093

 Side 1  free  transition at x/c =  0.1350   57
 Side 2 forced transition at x/c =  1.0000   57

   7   rms: 0.1837E+00   max: 0.7552E+00   D at   76  1
       a = 19.750      CL =  1.5436
      Cm = -0.0287     CD =  0.11396   =>   CDf =  0.00504    CDp =  0.10892

 Side 1  free  transition at x/c =  0.1355   57
 Side 2 forced transition at x/c =  1.0000   57
 idif Ue xi dudx           2  0.16225910      1.26385689E-02   12.838408    
 Uenew xinew           3  0.10224833      7.96425343E-03

   8   rms: 0.3357E+00   max: 0.1520E+01   D at   73  1   RLX: 0.987
       a = 19.750      CL =  1.3296
      Cm = -0.0514     CD =  0.16430   =>   CDf =  0.00525    CDp =  0.15905

 MRCHDU: Convergence failed at  62  side 1    Res =  0.8969E+00
 MRCHDU: Convergence failed at  63  side 1    Res =  0.1709E+01
 MRCHDU: Convergence failed at  64  side 1    Res =  0.4302E+01
 MRCHDU: Convergence failed at  65  side 1    Res =  0.6508E+01
 MRCHDU: Convergence failed at  66  side 1    Res =  0.1896E+01
 MRCHDU: Convergence failed at  67  side 1    Res =  0.1522E+02
 MRCHDU: Convergence failed at  68  side 1    Res =  0.2055E+01
 MRCHDU: Convergence failed at  69  side 1    Res =  0.1841E+01
 Side 1  free  transition at x/c =  0.1347   55
 Side 2 forced transition at x/c =  1.0000   59

   9   rms: 0.2015E+00   max: 0.1935E+01   D at   69  1   RLX: 0.775
       a = 19.750      CL =  1.4201
      Cm = -0.0582     CD =  0.13624   =>   CDf =  0.00432    CDp =  0.13192

 Side 1  free  transition at x/c =  0.1335   55
 Side 2 forced transition at x/c =  1.0000   59

  10   rms: 0.4995E+00   max: -.1969E+01   D at   64  1   RLX: 0.254
       a = 19.750      CL =  1.4727
      Cm = -0.0351     CD =  0.11274   =>   CDf =  0.00397    CDp =  0.10877

 Side 1  free  transition at x/c =  0.1364   56
 Side 2 forced transition at x/c =  1.0000   58

  11   rms: 0.3678E+00   max: -.1407E+01   D at   65  1   RLX: 0.355
       a = 19.750      CL =  1.5816
      Cm = -0.0324     CD =  0.10159   =>   CDf =  0.00410    CDp =  0.09749

 Side 1  free  transition at x/c =  0.1381   57
 Side 2 forced transition at x/c =  1.0000   57
 idif Ue xi dudx           1  0.10640206      8.53312016E-03   12.469303    
 Uenew xinew           2  4.81166057E-02  3.85880470E-03

  12   rms: 0.1724E+00   max: 0.1067E+01   D at   71  1
       a = 19.750      CL =  1.4423
      Cm = -0.0374     CD =  0.13101   =>   CDf =  0.00502    CDp =  0.12599

 Side 1  free  transition at x/c =  0.1352   56
 Side 2 forced transition at x/c =  1.0000   58

  13   rms: 0.1583E+00   max: -.7211E+00   D at   65  1   RLX: 0.693
       a = 19.750      CL =  1.5274
      Cm = -0.0303     CD =  0.10660   =>   CDf =  0.00436    CDp =  0.10225

 Side 1  free  transition at x/c =  0.1366   56
 Side 2 forced transition at x/c =  1.0000   58

  14   rms: 0.7845E+00   max: -.3145E+01   D at   68  1   RLX: 0.159
       a = 19.750      CL =  1.6325
      Cm = -0.0267     CD =  0.09398   =>   CDf =  0.00421    CDp =  0.08977

 Side 1  free  transition at x/c =  0.1380   57
 Side 2 forced transition at x/c =  1.0000   57
 idif Ue xi dudx           1  8.89474228E-02  7.13837147E-03   12.460464    
 Uenew xinew           2  3.07032820E-02  2.46405602E-03

  15   rms: 0.1923E+00   max: 0.9075E+00   D at   73  1
       a = 19.750      CL =  1.4785
      Cm = -0.0347     CD =  0.12598   =>   CDf =  0.00518    CDp =  0.12080

 Side 1  free  transition at x/c =  0.1361   56
 Side 2 forced transition at x/c =  1.0000   58

  16   rms: 0.1980E+00   max: -.8309E+00   D at   66  1   RLX: 0.602
       a = 19.750      CL =  1.5709
      Cm = -0.0250     CD =  0.09838   =>   CDf =  0.00412    CDp =  0.09426

 Side 1  free  transition at x/c =  0.1371   57
 Side 2 forced transition at x/c =  1.0000   57
 idif Ue xi dudx           1  9.37575996E-02  7.54868984E-03   12.420381    
 Uenew xinew           2  3.57008241E-02  2.87437439E-03

  17   rms: 0.1485E+00   max: 0.8290E+00   D at   72  1
       a = 19.750      CL =  1.4687
      Cm = -0.0353     CD =  0.12642   =>   CDf =  0.00503    CDp =  0.12138

 Side 1  free  transition at x/c =  0.1353   56
 Side 2 forced transition at x/c =  1.0000   58

  18   rms: 0.1883E+00   max: -.8210E+00   D at   65  1   RLX: 0.609
       a = 19.750      CL =  1.5555
      Cm = -0.0274     CD =  0.10148   =>   CDf =  0.00408    CDp =  0.09740

 Side 1  free  transition at x/c =  0.1368   57
 Side 2 forced transition at x/c =  1.0000   57
 idif Ue xi dudx           2  0.12456667      9.94014740E-03   12.531672    
[...]

 Side 1  free  transition at x/c =  0.1234   52
 Side 2 forced transition at x/c =  1.0000   61

  94   rms: 0.4891E+00   max: 0.4718E+01   C at   61  2   RLX: 0.318
       a = 21.750      CL =  1.5441
      Cm = -0.2412     CD =  0.18404   =>   CDf =  0.00400    CDp =  0.18005

 Side 1  free  transition at x/c =  0.1213   51
 Side 2 forced transition at x/c =  1.0000   61

  95   rms: 0.4373E+00   max: 0.2961E+01   C at   61  2   RLX: 0.318
       a = 21.750      CL =  1.4205
      Cm = -0.1921     CD =  0.18216   =>   CDf =  0.00416    CDp =  0.17799

 Side 1  free  transition at x/c =  0.1174   51
 Side 2 forced transition at x/c =  1.0000   61
 idif Ue xi dudx           1  7.80100897E-02  3.70717049E-03   21.043028    
 Uenew xinew           2  2.95253331E-03  1.40309334E-04

  96   rms: 0.4167E+00   max: -.2773E+01   T at   51  1   RLX: 0.180
       a = 21.750      CL =  1.3484
      Cm = -0.1718     CD =  0.26203   =>   CDf =  0.00446    CDp =  0.25757

 Side 1  free  transition at x/c =  0.1160   50
 Side 2 forced transition at x/c =  1.0000   62

  97   rms: 0.3430E+00   max: 0.3109E+01   T at    2  2   RLX: 0.355
       a = 21.750      CL =  1.2570
      Cm = -0.1574     CD =  0.23257   =>   CDf =  0.00420    CDp =  0.22836

 Side 1  free  transition at x/c =  0.1150   50
 Side 2 forced transition at x/c =  1.0000   62
 idif Ue xi dudx           1  6.76527098E-02  3.73566151E-03   18.109968    
 Uenew xinew           2  6.77023642E-03  3.73840332E-04

  98   rms: 0.1865E+00   max: 0.7952E+00   T at   50  1   RLX: 0.879
       a = 21.750      CL =  1.0616
      Cm = -0.1128     CD =  0.18918   =>   CDf =  0.00432    CDp =  0.18486

 Side 1  free  transition at x/c =  0.1096   48
 Side 2 forced transition at x/c =  1.0000   63

  99   rms: 0.6929E-01   max: -.4210E+00   D at   49  1
       a = 21.750      CL =  1.0446
      Cm = -0.1096     CD =  0.23911   =>   CDf =  0.00373    CDp =  0.23538

 Side 1  free  transition at x/c =  0.1098   49
 Side 2 forced transition at x/c =  1.0000   62

 100   rms: 0.2082E+00   max: 0.2803E+01   T at    2  1   RLX: 0.353
       a = 21.750      CL =  1.0475
      Cm = -0.1035     CD =  0.24914   =>   CDf =  0.00380    CDp =  0.24534

 Side 1  free  transition at x/c =  0.1080   49
 Side 2 forced transition at x/c =  1.0000   62

 101   rms: 0.6725E-01   max: -.4661E+00   D at   49  1
       a = 21.750      CL =  1.0550
      Cm = -0.1133     CD =  0.26758   =>   CDf =  0.00380    CDp =  0.26379

 Side 1  free  transition at x/c =  0.1067   49
 Side 2 forced transition at x/c =  1.0000   62

 102   rms: 0.2240E-01   max: -.3020E+00   D at   49  1
       a = 21.750      CL =  1.0546
      Cm = -0.1121     CD =  0.25642   =>   CDf =  0.00377    CDp =  0.25265

 Side 1  free  transition at x/c =  0.1084   49
 Side 2 forced transition at x/c =  1.0000   62

 103   rms: 0.9574E-02   max: -.1459E+00   T at   49  1
       a = 21.750      CL =  1.0560
      Cm = -0.1113     CD =  0.24968   =>   CDf =  0.00378    CDp =  0.24590

 Side 1  free  transition at x/c =  0.1095   49
 Side 2 forced transition at x/c =  1.0000   62
 idif Ue xi dudx           1  6.83329552E-02  3.75699997E-03   18.188169    
 Uenew xinew           2  7.18757883E-03  3.95178795E-04

 104   rms: 0.8119E-01   max: 0.1124E+01   T at   49  1
       a = 21.750      CL =  1.0425
      Cm = -0.1153     CD =  0.25700   =>   CDf =  0.00396    CDp =  0.25304

 Side 1  free  transition at x/c =  0.1042   48
 Side 2 forced transition at x/c =  1.0000   63

 105   rms: 0.8016E-01   max: -.4775E+00   D at   49  1
       a = 21.750      CL =  1.0286
      Cm = -0.1131     CD =  0.22571   =>   CDf =  0.00380    CDp =  0.22191

 Side 1  free  transition at x/c =  0.1060   48
 Side 2 forced transition at x/c =  1.0000   63

 106   rms: 0.5032E-01   max: -.3066E+00   T at   48  1
       a = 21.750      CL =  1.0484
      Cm = -0.1117     CD =  0.24054   =>   CDf =  0.00363    CDp =  0.23691

 Side 1  free  transition at x/c =  0.1083   49
 Side 2 forced transition at x/c =  1.0000   62

 107   rms: 0.5529E-01   max: 0.8953E+00   D at    2  1
       a = 21.750      CL =  1.0546
      Cm = -0.1113     CD =  0.24710   =>   CDf =  0.00380    CDp =  0.24330

 Side 1  free  transition at x/c =  0.1094   49
 Side 2 forced transition at x/c =  1.0000   62

 108   rms: 0.1602E+00   max: -.2231E+01   T at   49  1   RLX: 0.224
       a = 21.750      CL =  1.0609
      Cm = -0.1094     CD =  0.24878   =>   CDf =  0.00379    CDp =  0.24499

 Side 1  free  transition at x/c =  0.1081   49
 Side 2 forced transition at x/c =  1.0000   62

 109   rms: 0.3815E-01   max: -.4419E+00   D at   49  1
       a = 21.750      CL =  1.0568
      Cm = -0.1121     CD =  0.25829   =>   CDf =  0.00379    CDp =  0.25449

 Side 1  free  transition at x/c =  0.1081   49
 Side 2 forced transition at x/c =  1.0000   62

 110   rms: 0.1254E-01   max: -.1946E+00   D at   49  1
       a = 21.750      CL =  1.0566
      Cm = -0.1116     CD =  0.25398   =>   CDf =  0.00378    CDp =  0.25020

 Side 1  free  transition at x/c =  0.1091   49
 Side 2 forced transition at x/c =  1.0000   62

 111   rms: 0.1556E-01   max: -.2375E+00   T at   49  1
       a = 21.750      CL =  1.0590
      Cm = -0.1106     CD =  0.24935   =>   CDf =  0.00378    CDp =  0.24556

 Side 1  free  transition at x/c =  0.1103   49
 Side 2 forced transition at x/c =  1.0000   62

 112   rms: 0.3274E-01   max: 0.2865E+00   T at   49  1
       a = 21.750      CL =  1.0526
      Cm = -0.1122     CD =  0.25082   =>   CDf =  0.00379    CDp =  0.24703

 Side 1  free  transition at x/c =  0.1080   49
 Side 2 forced transition at x/c =  1.0000   62

 113   rms: 0.1834E-01   max: -.1309E+00   T at   49  1
       a = 21.750      CL =  1.0530
      Cm = -0.1114     CD =  0.24587   =>   CDf =  0.00379    CDp =  0.24208

 Side 1  free  transition at x/c =  0.1092   49
 Side 2 forced transition at x/c =  1.0000   62

 114   rms: 0.2213E-01   max: -.2842E+00   T at   49  1
       a = 21.750      CL =  1.0592
      Cm = -0.1104     CD =  0.24748   =>   CDf =  0.00380    CDp =  0.24369

 Side 1  free  transition at x/c =  0.1102   49
 Side 2 forced transition at x/c =  1.0000   62

 115   rms: 0.4668E+00   max: -.3868E+01   T at   49  1   RLX: 0.129
       a = 21.750      CL =  1.0797
      Cm = -0.1093     CD =  0.24523   =>   CDf =  0.00379    CDp =  0.24143

 Side 1  free  transition at x/c =  0.1077   49
 Side 2 forced transition at x/c =  1.0000   62
 idif Ue xi dudx           1  5.89404069E-02  3.39078903E-03   17.382505    
 Uenew xinew           2  5.03533927E-04  2.89678574E-05

 116   rms: 0.1134E+00   max: 0.5628E+00   D at   50  1
       a = 21.750      CL =  1.0505
      Cm = -0.1152     CD =  0.27918   =>   CDf =  0.00397    CDp =  0.27521

 Side 1  free  transition at x/c =  0.1049   48
 Side 2 forced transition at x/c =  1.0000   63

 117   rms: 0.6914E-01   max: 0.1012E+01   T at    2  2
       a = 21.750      CL =  1.0498
      Cm = -0.1127     CD =  0.25735   =>   CDf =  0.00357    CDp =  0.25378

 Side 1  free  transition at x/c =  0.1072   49
 Side 2 forced transition at x/c =  1.0000   62

 118   rms: 0.2799E-01   max: 0.3561E+00   T at    2  1
       a = 21.750      CL =  1.0526
      Cm = -0.1116     CD =  0.24690   =>   CDf =  0.00378    CDp =  0.24312

 Side 1  free  transition at x/c =  0.1088   49
 Side 2 forced transition at x/c =  1.0000   62

 119   rms: 0.1427E-01   max: -.1697E+00   T at   49  1
       a = 21.750      CL =  1.0569
      Cm = -0.1110     CD =  0.24818   =>   CDf =  0.00379    CDp =  0.24438

 Side 1  free  transition at x/c =  0.1100   49
 Side 2 forced transition at x/c =  1.0000   62

 120   rms: 0.1573E-01   max: 0.1804E+00   T at   49  1
       a = 21.750      CL =  1.0549
      Cm = -0.1117     CD =  0.25006   =>   CDf =  0.00379    CDp =  0.24627

 Side 1  free  transition at x/c =  0.1089   49
 Side 2 forced transition at x/c =  1.0000   62

 121   rms: 0.1368E-01   max: -.1801E+00   T at   49  1
       a = 21.750      CL =  1.0570
      Cm = -0.1109     CD =  0.24810   =>   CDf =  0.00379    CDp =  0.24431

 Side 1  free  transition at x/c =  0.1101   49
 Side 2 forced transition at x/c =  1.0000   62

 122   rms: 0.1623E-01   max: 0.1717E+00   T at   49  1
       a = 21.750      CL =  1.0552
      Cm = -0.1116     CD =  0.24968   =>   CDf =  0.00379    CDp =  0.24589

 Side 1  free  transition at x/c =  0.1091   49
 Side 2 forced transition at x/c =  1.0000   62

 123   rms: 0.1614E-01   max: -.2150E+00   T at   49  1
       a = 21.750      CL =  1.0579
      Cm = -0.1107     CD =  0.24790   =>   CDf =  0.00379    CDp =  0.24411

 Side 1  free  transition at x/c =  0.1103   49
 Side 2 forced transition at x/c =  1.0000   62

 124   rms: 0.2277E-01   max: 0.2087E+00   T at   49  1
       a = 21.750      CL =  1.0545
      Cm = -0.1117     CD =  0.24962   =>   CDf =  0.00379    CDp =  0.24583

 Side 1  free  transition at x/c =  0.1089   49
 Side 2 forced transition at x/c =  1.0000   62

 125   rms: 0.1345E-01   max: -.1440E+00   T at   49  1
       a = 21.750      CL =  1.0561
      Cm = -0.1110     CD =  0.24766   =>   CDf =  0.00379    CDp =  0.24387

 Side 1  free  transition at x/c =  0.1099   49
 Side 2 forced transition at x/c =  1.0000   62

 126   rms: 0.1578E-01   max: 0.1876E+00   T at   49  1
       a = 21.750      CL =  1.0548
      Cm = -0.1117     CD =  0.25014   =>   CDf =  0.00379    CDp =  0.24635

 Side 1  free  transition at x/c =  0.1089   49
 Side 2 forced transition at x/c =  1.0000   62

 127   rms: 0.1297E-01   max: -.1691E+00   T at   49  1
       a = 21.750      CL =  1.0566
      Cm = -0.1110     CD =  0.24822   =>   CDf =  0.00379    CDp =  0.24443

 Side 1  free  transition at x/c =  0.1100   49
 Side 2 forced transition at x/c =  1.0000   62

 128   rms: 0.1575E-01   max: 0.1795E+00   T at   49  1
       a = 21.750      CL =  1.0550
      Cm = -0.1117     CD =  0.24995   =>   CDf =  0.00379    CDp =  0.24616

 Side 1  free  transition at x/c =  0.1090   49
 Side 2 forced transition at x/c =  1.0000   62

 129   rms: 0.1382E-01   max: -.1821E+00   T at   49  1
       a = 21.750      CL =  1.0571
      Cm = -0.1109     CD =  0.24812   =>   CDf =  0.00379    CDp =  0.24433

 Side 1  free  transition at x/c =  0.1101   49
 Side 2 forced transition at x/c =  1.0000   62

 130   rms: 0.1649E-01   max: 0.1710E+00   T at   49  1
       a = 21.750      CL =  1.0552
      Cm = -0.1116     CD =  0.24962   =>   CDf =  0.00379    CDp =  0.24583

 Side 1  free  transition at x/c =  0.1091   49
 Side 2 forced transition at x/c =  1.0000   62

 131   rms: 0.1672E-01   max: -.2218E+00   T at   49  1
       a = 21.750      CL =  1.0580
      Cm = -0.1107     CD =  0.24782   =>   CDf =  0.00379    CDp =  0.24403

 Side 1  free  transition at x/c =  0.1103   49
 Side 2 forced transition at x/c =  1.0000   62

 132   rms: 0.2519E-01   max: 0.2276E+00   T at   49  1
       a = 21.750      CL =  1.0541
      Cm = -0.1118     CD =  0.24981   =>   CDf =  0.00379    CDp =  0.24602

 Side 1  free  transition at x/c =  0.1087   49
 Side 2 forced transition at x/c =  1.0000   62

 133   rms: 0.1378E-01   max: -.1301E+00   T at   49  1
       a = 21.750      CL =  1.0553
      Cm = -0.1111     CD =  0.24728   =>   CDf =  0.00379    CDp =  0.24349

 Side 1  free  transition at x/c =  0.1097   49
 Side 2 forced transition at x/c =  1.0000   62

 134   rms: 0.2347E-01   max: 0.3122E+00   T at   49  1
       a = 21.750      CL =  1.0529
      Cm = -0.1123     CD =  0.25124   =>   CDf =  0.00379    CDp =  0.24744

 Side 1  free  transition at x/c =  0.1080   49
 Side 2 forced transition at x/c =  1.0000   62

 135   rms: 0.1615E-01   max: -.1658E+00   T at   49  1
       a = 21.750      CL =  1.0536
      Cm = -0.1114     CD =  0.24678   =>   CDf =  0.00379    CDp =  0.24299

 Side 1  free  transition at x/c =  0.1092   49
 Side 2 forced transition at x/c =  1.0000   62

 136   rms: 0.2599E-01   max: -.3406E+00   T at   49  1
       a = 21.750      CL =  1.0604
      Cm = -0.1102     CD =  0.24678   =>   CDf =  0.00379    CDp =  0.24298

 Side 1  free  transition at x/c =  0.1098   49
 Side 2 forced transition at x/c =  1.0000   62

 137   rms: 0.1775E-01   max: -.2088E+00   D at   49  1
       a = 21.750      CL =  1.0634
      Cm = -0.1097     CD =  0.24904   =>   CDf =  0.00379    CDp =  0.24525

 Side 1  free  transition at x/c =  0.1112   49
 Side 2 forced transition at x/c =  1.0000   62

 138   rms: 0.4300E-01   max: -.2464E+00   T at   50  1
       a = 21.750      CL =  1.0550
      Cm = -0.1109     CD =  0.24445   =>   CDf =  0.00379    CDp =  0.24066

 Side 1  free  transition at x/c =  0.1099   49
 Side 2 forced transition at x/c =  1.0000   62

 139   rms: 0.1921E+01   max: -.1985E+02   T at   49  1   RLX: 0.025
       a = 21.750      CL =  1.0711
      Cm = -0.1103     CD =  0.24935   =>   CDf =  0.00380    CDp =  0.24555

 Side 1  free  transition at x/c =  0.1075   49
 Side 2 forced transition at x/c =  1.0000   62

 140   rms: 0.6993E-01   max: -.5148E+00   D at   49  1   RLX: 0.971
       a = 21.750      CL =  1.0558
      Cm = -0.1134     CD =  0.26615   =>   CDf =  0.00380    CDp =  0.26235

 Side 1  free  transition at x/c =  0.1068   49
 Side 2 forced transition at x/c =  1.0000   62

 141   rms: 0.2161E-01   max: -.3056E+00   D at   49  1
       a = 21.750      CL =  1.0547
      Cm = -0.1120     CD =  0.25612   =>   CDf =  0.00377    CDp =  0.25234

 Side 1  free  transition at x/c =  0.1084   49
 Side 2 forced transition at x/c =  1.0000   62

 142   rms: 0.9477E-02   max: -.1459E+00   T at   49  1
       a = 21.750      CL =  1.0561
      Cm = -0.1113     CD =  0.24974   =>   CDf =  0.00378    CDp =  0.24596

 Side 1  free  transition at x/c =  0.1095   49
 Side 2 forced transition at x/c =  1.0000   62
 idif Ue xi dudx           1  6.47338405E-02  3.61716747E-03   17.896280    
 Uenew xinew           2  4.56974888E-03  2.55346298E-04

 143   rms: 0.6759E-01   max: 0.9333E+00   T at   49  1
       a = 21.750      CL =  1.0449
      Cm = -0.1146     CD =  0.25570   =>   CDf =  0.00396    CDp =  0.25174

 Side 1  free  transition at x/c =  0.1050   48
 Side 2 forced transition at x/c =  1.0000   63

 144   rms: 0.6124E-01   max: -.3807E+00   D at   49  1
       a = 21.750      CL =  1.0367
      Cm = -0.1126     CD =  0.23286   =>   CDf =  0.00380    CDp =  0.22906

 Side 1  free  transition at x/c =  0.1069   48
 Side 2 forced transition at x/c =  1.0000   63

 145   rms: 0.3650E-01   max: -.2349E+00   T at   48  1
       a = 21.750      CL =  1.0514
      Cm = -0.1115     CD =  0.24316   =>   CDf =  0.00362    CDp =  0.23955

 Side 1  free  transition at x/c =  0.1088   49
 Side 2 forced transition at x/c =  1.0000   62

 146   rms: 0.1859E-01   max: -.1624E+00   T at   49  1
       a = 21.750      CL =  1.0563
      Cm = -0.1110     CD =  0.24790   =>   CDf =  0.00380    CDp =  0.24410

 Side 1  free  transition at x/c =  0.1099   49
 Side 2 forced transition at x/c =  1.0000   62

 147   rms: 0.1620E-01   max: 0.1927E+00   T at   49  1
       a = 21.750      CL =  1.0546
      Cm = -0.1117     CD =  0.25011   =>   CDf =  0.00379    CDp =  0.24632

 Side 1  free  transition at x/c =  0.1088   49
 Side 2 forced transition at x/c =  1.0000   62

 148   rms: 0.1285E-01   max: -.1648E+00   T at   49  1
       a = 21.750      CL =  1.0564
      Cm = -0.1110     CD =  0.24821   =>   CDf =  0.00379    CDp =  0.24442

 Side 1  free  transition at x/c =  0.1099   49
 Side 2 forced transition at x/c =  1.0000   62

 149   rms: 0.1599E-01   max: 0.1884E+00   T at   49  1
       a = 21.750      CL =  1.0548
      Cm = -0.1117     CD =  0.25004   =>   CDf =  0.00379    CDp =  0.24625

 Side 1  free  transition at x/c =  0.1089   49
 Side 2 forced transition at x/c =  1.0000   62

 150   rms: 0.1304E-01   max: -.1688E+00   T at   49  1
       a = 21.750      CL =  1.0566
      Cm = -0.1110     CD =  0.24818   =>   CDf =  0.00379    CDp =  0.24439

 Side 1  free  transition at x/c =  0.1100   49
 Side 2 forced transition at x/c =  1.0000   62

 151   rms: 0.1576E-01   max: 0.1797E+00   T at   49  1
       a = 21.750      CL =  1.0550
      Cm = -0.1117     CD =  0.24994   =>   CDf =  0.00379    CDp =  0.24615

 Side 1  free  transition at x/c =  0.1090   49
 Side 2 forced transition at x/c =  1.0000   62

 152   rms: 0.1383E-01   max: -.1821E+00   T at   49  1
       a = 21.750      CL =  1.0571
      Cm = -0.1109     CD =  0.24812   =>   CDf =  0.00379    CDp =  0.24433

 Side 1  free  transition at x/c =  0.1101   49
 Side 2 forced transition at x/c =  1.0000   62

 153   rms: 0.1657E-01   max: 0.1723E+00   T at   49  1
       a = 21.750      CL =  1.0552
      Cm = -0.1116     CD =  0.24961   =>   CDf =  0.00379    CDp =  0.24581

 Side 1  free  transition at x/c =  0.1091   49
 Side 2 forced transition at x/c =  1.0000   62

 154   rms: 0.1646E-01   max: -.2178E+00   T at   49  1
       a = 21.750      CL =  1.0579
      Cm = -0.1107     CD =  0.24780   =>   CDf =  0.00379    CDp =  0.24401

 Side 1  free  transition at x/c =  0.1103   49
 Side 2 forced transition at x/c =  1.0000   62

 155   rms: 0.2382E-01   max: 0.2167E+00   T at   49  1
       a = 21.750      CL =  1.0543
      Cm = -0.1117     CD =  0.24968   =>   CDf =  0.00379    CDp =  0.24589
 VISCAL:  Convergence failed
 Calculating wake trajectory ...
 Calculating source influence matrix ...

 Solving BL system ...

 Side 1  free  transition at x/c =  0.1088   49
 Side 2 forced transition at x/c =  1.0000   62

   1   rms: 0.1014E+00   max: 0.1976E+01   T at   49  1   RLX: 0.247
       a = 22.250      CL =  1.0594
      Cm = -0.1156     CD =  0.25545   =>   CDf =  0.00379    CDp =  0.25166

 Side 1  free  transition at x/c =  0.1058   49
 Side 2 forced transition at x/c =  1.0000   62

   2   rms: 0.4606E-01   max: 0.3681E+00   T at   49  1
       a = 22.250      CL =  1.0708
      Cm = -0.1142     CD =  0.24891   =>   CDf =  0.00378    CDp =  0.24513

 MRCHDU: Convergence failed at  49  side 1    Res =  0.6655E-05
 Side 1  free  transition at x/c =  0.1029   49
 Side 2 forced transition at x/c =  1.0000   62

   3   rms: 0.5235E-01   max: -.3056E+00   T at   49  1
       a = 22.250      CL =  1.0672
      Cm = -0.1137     CD =  0.23972   =>   CDf =  0.00375    CDp =  0.23597

 Side 1  free  transition at x/c =  0.1036   49
 Side 2 forced transition at x/c =  1.0000   62

   4   rms: 0.2632E-01   max: -.1385E+00   D at   49  1
       a = 22.250      CL =  1.0736
      Cm = -0.1134     CD =  0.24637   =>   CDf =  0.00376    CDp =  0.24261

 Side 1  free  transition at x/c =  0.1040   49
 Side 2 forced transition at x/c =  1.0000   62

   5   rms: 0.8521E-02   max: -.4381E-01   D at   83  2
       a = 22.250      CL =  1.0773
      Cm = -0.1134     CD =  0.25200   =>   CDf =  0.00375    CDp =  0.24825

 Side 1  free  transition at x/c =  0.1040   49
 Side 2 forced transition at x/c =  1.0000   62

   6   rms: 0.1570E-02   max: -.1072E-01   D at   83  2
       a = 22.250      CL =  1.0780
      Cm = -0.1135     CD =  0.25363   =>   CDf =  0.00374    CDp =  0.24989

 Side 1  free  transition at x/c =  0.1040   49
 Side 2 forced transition at x/c =  1.0000   62

   7   rms: 0.1777E-03   max: -.1388E-02   D at   83  2
       a = 22.250      CL =  1.0780
      Cm = -0.1135     CD =  0.25389   =>   CDf =  0.00374    CDp =  0.25015

 Side 1  free  transition at x/c =  0.1040   49
 Side 2 forced transition at x/c =  1.0000   62

   8   rms: 0.1428E-04   max: -.1133E-03   D at   83  2
       a = 22.250      CL =  1.0780
      Cm = -0.1135     CD =  0.25392   =>   CDf =  0.00374    CDp =  0.25018
 plradd ia,ip,cpol           13           0  3.21632554E-03

 Point added to stored polar  1
 Point written to save file  goe769_Re300k.ext.pol                           
 Dump file unspecified or not available

.OPERva   c>  
 Polar accumulation disabled

.OPERv   c>  
 XFOIL   c>  
 XFOIL   c>  