
 ===================================================
  XFOIL Version 6.99
  Copyright (C) 2000   Mark Drela, Harold Youngren

  This software comes with ABSOLUTELY NO WARRANTY,
    subject to the GNU General Public License.

  Caveat computor
 ===================================================

 File  xfoil.def  not found

   QUIT    Exit program

  .OPER    Direct operating point(s)
  .MDES    Complex mapping design routine
  .QDES    Surface speed design routine
  .GDES    Geometry design routine

   SAVE f  Write airfoil to labeled coordinate file
   PSAV f  Write airfoil to plain coordinate file
   ISAV f  Write airfoil to ISES coordinate file
   MSAV f  Write airfoil to MSES coordinate file
   REVE    Reverse written-airfoil node ordering

   LOAD f  Read buffer airfoil from coordinate file
   NACA i  Set NACA 4,5-digit airfoil and buffer airfoil
   INTE    Set buffer airfoil by interpolating two airfoils
   NORM    Buffer airfoil normalization toggle
   XYCM rr Change CM reference location, currently  0.25000 0.00000

   BEND    Display structural properties of current airfoil

   PCOP    Set current-airfoil panel nodes directly from buffer airfoil points
   PANE    Set current-airfoil panel nodes ( 160 ) based on curvature
  .PPAR    Show/change paneling

  .PLOP    Plotting options

   WDEF f  Write  current-settings file
   RDEF f  Reread current-settings file
   NAME s  Specify new airfoil name
   NINC    Increment name version number

   Z       Zoom    | (available in all menus)
   U       Unzoom  | 

 XFOIL   c>  
 Labeled airfoil file.  Name:  GOE 798 AIRFOIL                                 

 Number of input coordinate points:  31
 Counterclockwise ordering
 Max thickness =     0.199975  at x =   0.300
 Max camber    =     0.059306  at x =   0.400

  LE  x,y  =  -0.00004   0.00159  |   Chord =   1.00004
  TE  x,y  =   1.00000   0.00375  |

 Current airfoil nodes set from buffer airfoil nodes (  31 )

 WARNING: Poor input coordinate distribution
          Excessive panel angle   44.9  at i =  16
          Repaneling with PANE and/or PPAR suggested
           (doing GDES,CADD before repaneling _may_
            improve excessively coarse LE spacing

 XFOIL   c>  
 XFOIL   c>  
 Blunt trailing edge.  Gap =  0.00750

 Paneling parameters used...
   Number of panel nodes       160
   Panel bunching parameter    1.000
   TE/LE panel density ratio   0.150
   Refined-area/LE panel density ratio    0.200
   Top    side refined area x/c limits  1.000 1.000
   Bottom side refined area x/c limits  1.000 1.000

 XFOIL   c>  
.OPERi   c>  
 Xtr/c     =  1.0000    top    side
 Xtr/c     =  1.0000    bottom side
 Ncrit     =    9.00   ( 0.070 % turb. level )
 Vacc      =  0.0100

 Klag  =  5.6000     Uxwt  =    1.00
 A     =  6.7000     B     =  0.7500       KCt = 0.01485
 CtiniK=  1.8000     CtiniX=  3.3000

..VPAR   c>  
..VPAR   c>  
.OPERi   c>  
 M  =    0.0000
 Re =    600000

.OPERv   c>  
.OPERv   c>  
.OPERv   c>  
 Polar  1 newly created for accumulation
 Airfoil archived with polar: GOE 798 AIRFOIL                                 

Enter  polar save filename  OR  <return> for no file   s>  
 New polar save file available

Enter  polar dump filename  OR  <return> for no file   s>  
 Polar dump file will NOT be written

 Polar accumulation enabled

.OPERva   c>   Calculating unit vorticity distributions ...
 Calculating wake trajectory ...
 Calculating source influence matrix ...

 Solving BL system ...

 Initializing BL ...
    side            1  ...
 MRCHUE: Inverse mode at  54     Hk =   4.575
 MRCHUE: Inverse mode at  55     Hk =   5.583
 MRCHUE: Inverse mode at  56     Hk =   6.585
 MRCHUE: Inverse mode at  57     Hk =   7.592
 MRCHUE: Inverse mode at  58     Hk =   8.610
 MRCHUE: Inverse mode at  59     Hk =   6.954
 MRCHUE: Inverse mode at  60     Hk =   3.171
 MRCHUE: Inverse mode at  78     Hk =   2.500
    side            2  ...
 MRCHUE: Inverse mode at  36     Hk =   3.800
 MRCHUE: Inverse mode at  37     Hk =   4.763
 MRCHUE: Convergence failed at  38  side 2    Res =  0.4591E+01
 MRCHUE: Inverse mode at  39     Hk =   5.856
 MRCHUE: Inverse mode at  40     Hk =   7.011
 MRCHUE: Inverse mode at  41     Hk =   6.656
 MRCHUE: Inverse mode at  42     Hk =   2.500
 MRCHUE: Inverse mode at  83     Hk =   2.500
 MRCHUE: Inverse mode at  84     Hk =   2.500

 Side 1  free  transition at x/c =  0.6605   59
 Side 2  free  transition at x/c =  0.1263   41

   1   rms: 0.2061E+00   max: 0.1112E+01   T at   41  2   RLX: 0.517
       a = -4.000      CL =  0.1778
      Cm = -0.1369     CD =  0.01001   =>   CDf =  0.00722    CDp =  0.00279

 Side 1  free  transition at x/c =  0.6671   59
 Side 2  free  transition at x/c =  0.1179   41

   2   rms: 0.9694E-01   max: 0.5323E+00   T at   41  2
       a = -4.000      CL =  0.1993
      Cm = -0.1364     CD =  0.01318   =>   CDf =  0.00732    CDp =  0.00586

 MRCHDU: Convergence failed at  41  side 2    Res =  0.4788E+01
 MRCHDU: Convergence failed at  42  side 2    Res =  0.4828E+01
 MRCHDU: Convergence failed at  43  side 2    Res =  0.3488E+01
 MRCHDU: Convergence failed at  44  side 2    Res =  0.2926E+01
 MRCHDU: Convergence failed at  45  side 2    Res =  0.5317E+01
 MRCHDU: Convergence failed at  46  side 2    Res =  0.1046E+02
 MRCHDU: Convergence failed at  47  side 2    Res =  0.4328E+02
 MRCHDU: Convergence failed at  48  side 2    Res =  0.3881E+02
 MRCHDU: Convergence failed at  49  side 2    Res =  0.2151E+02
 MRCHDU: Convergence failed at  50  side 2    Res =  0.2192E+02
 MRCHDU: Convergence failed at  51  side 2    Res =  0.2922E+02
 MRCHDU: Convergence failed at  52  side 2    Res =  0.1182E+03
 MRCHDU: Convergence failed at  53  side 2    Res =  0.4875E+02
 MRCHDU: Convergence failed at  54  side 2    Res =  0.4002E+02
 MRCHDU: Convergence failed at  55  side 2    Res =  0.3318E+02
 MRCHDU: Convergence failed at  56  side 2    Res =  0.2983E+02
 MRCHDU: Convergence failed at  57  side 2    Res =  0.3460E+02
 MRCHDU: Convergence failed at  58  side 2    Res =  0.3224E+02
 MRCHDU: Convergence failed at  59  side 2    Res =  0.3022E+02
 MRCHDU: Convergence failed at  60  side 2    Res =  0.3362E+02
 MRCHDU: Convergence failed at  61  side 2    Res =  0.3191E+02
 MRCHDU: Convergence failed at  62  side 2    Res =  0.3050E+02
 MRCHDU: Convergence failed at  63  side 2    Res =  0.2919E+02
 MRCHDU: Convergence failed at  64  side 2    Res =  0.2805E+02
 MRCHDU: Convergence failed at  65  side 2    Res =  0.2787E+02
 MRCHDU: Convergence failed at  66  side 2    Res =  0.2744E+02
 MRCHDU: Convergence failed at  67  side 2    Res =  0.4389E+02
 MRCHDU: Convergence failed at  68  side 2    Res =  0.4032E+02
 MRCHDU: Convergence failed at  69  side 2    Res =  0.2444E+02
 MRCHDU: Convergence failed at  70  side 2    Res =  0.2304E+02
 MRCHDU: Convergence failed at  71  side 2    Res =  0.2184E+02
 MRCHDU: Convergence failed at  72  side 2    Res =  0.2740E+02
 MRCHDU: Convergence failed at  73  side 2    Res =  0.2584E+02
 MRCHDU: Convergence failed at  74  side 2    Res =  0.2482E+02
 MRCHDU: Convergence failed at  75  side 2    Res =  0.4658E+02
 MRCHDU: Convergence failed at  76  side 2    Res =  0.7061E+03
 MRCHDU: Convergence failed at  77  side 2    Res =  0.2908E+03
 MRCHDU: Convergence failed at  78  side 2    Res =  0.1356E+03
 MRCHDU: Convergence failed at  79  side 2    Res =  0.4936E+02
 MRCHDU: Convergence failed at  80  side 2    Res =  0.3493E+02
 MRCHDU: Convergence failed at  81  side 2    Res =  0.6536E+02
 MRCHDU: Convergence failed at  82  side 2    Res =  0.1014E+03
 MRCHDU: Convergence failed at  83  side 2    Res =  0.4070E+02
 MRCHDU: Convergence failed at  84  side 2    Res =  0.1578E+03
 Side 1  free  transition at x/c =  0.6767   60
 Side 2  free  transition at x/c =  0.1142   40

   3   rms: 0.1080E+01   max: 0.4303E+01   D at   76  2   RLX: 0.349
       a = -4.000      CL = -0.2831
      Cm =  0.0627     CD =  0.00759   =>   CDf =  0.00370    CDp =  0.00388

 MRCHDU: Convergence failed at  70  side 2    Res =  0.3705E+00
 MRCHDU: Convergence failed at  71  side 2    Res =  0.3271E+00
 MRCHDU: Convergence failed at  72  side 2    Res =  0.2810E+00
 MRCHDU: Convergence failed at  73  side 2    Res =  0.2377E+00
 MRCHDU: Convergence failed at  74  side 2    Res =  0.1983E+00
 MRCHDU: Convergence failed at  75  side 2    Res =  0.1607E+00
 MRCHDU: Convergence failed at  76  side 2    Res =  0.1213E+00
 MRCHDU: Convergence failed at  77  side 2    Res =  0.7913E-01
 MRCHDU: Convergence failed at  78  side 2    Res =  0.4892E-02
 Side 1  free  transition at x/c =  0.6765   60
 Side 2  free  transition at x/c =  0.1102   40

   4   rms: 0.3101E+00   max: -.6774E+00   D at   85  2   RLX: 0.394
       a = -4.000      CL =  0.2188
      Cm = -0.1043     CD =  0.02681   =>   CDf =  0.00422    CDp =  0.02259

 MRCHDU: Convergence failed at  77  side 2    Res =  0.2623E+00
 MRCHDU: Convergence failed at  78  side 2    Res =  0.6546E+00
 MRCHDU: Convergence failed at  79  side 2    Res =  0.3036E+00
 MRCHDU: Convergence failed at  80  side 2    Res =  0.2923E+00
 MRCHDU: Convergence failed at  81  side 2    Res =  0.2813E+00
 MRCHDU: Convergence failed at  82  side 2    Res =  0.2712E+00
 MRCHDU: Convergence failed at  83  side 2    Res =  0.2622E+00
 MRCHDU: Convergence failed at  84  side 2    Res =  0.2597E+00
 Side 1  free  transition at x/c =  0.6777   60
 Side 2  free  transition at x/c =  0.1151   40

   5   rms: 0.3106E+00   max: -.1600E+01   T at   41  2   RLX: 0.313
       a = -4.000      CL =  0.3135
      Cm = -0.1537     CD =  0.03867   =>   CDf =  0.00408    CDp =  0.03459

 Side 1  free  transition at x/c =  0.6767   61
 Side 2  free  transition at x/c =  0.1121   39
 idif Ue xi dudx           1  8.01384524E-02  2.98023224E-03   26.890003    
 Uenew xinew           2  2.45223660E-03  9.11951065E-05

   6   rms: 0.7301E+01   max: 0.1288E+03   D at    2  1   RLX: 0.009
       a = -4.000      CL =  0.2949
      Cm = -0.1507     CD =  0.04439   =>   CDf =  0.00399    CDp =  0.04039

 Side 1  free  transition at x/c =  0.6767   60
 Side 2  free  transition at x/c =  0.1125   40

   7   rms: 0.1398E+01   max: 0.1402E+02   D at    2  2   RLX: 0.072
       a = -4.000      CL =  0.2751
      Cm = -0.1587     CD =  0.03825   =>   CDf =  0.00402    CDp =  0.03424

 Side 1  free  transition at x/c =  0.6767   60
 Side 2  free  transition at x/c =  0.1158   40

   8   rms: 0.5480E+00   max: -.1887E+01   T at   41  2   RLX: 0.265
       a = -4.000      CL =  0.2522
      Cm = -0.1691     CD =  0.03023   =>   CDf =  0.00402    CDp =  0.02622

 Side 1  free  transition at x/c =  0.6760   60
 Side 2  free  transition at x/c =  0.1143   40

   9   rms: 0.1247E+01   max: 0.7010E+01   T at   40  2   RLX: 0.165
       a = -4.000      CL =  0.2876
      Cm = -0.1516     CD =  0.04520   =>   CDf =  0.00404    CDp =  0.04116

 Side 1  free  transition at x/c =  0.6756   61
 Side 2  free  transition at x/c =  0.1055   38
 idif Ue xi dudx           1  0.11499626      4.49502468E-03   25.583010    
 Uenew xinew           2  4.10859957E-02  1.60598755E-03

  10   rms: 0.4274E+00   max: -.1492E+01   T at   39  2   RLX: 0.335
       a = -4.000      CL =  0.2366
      Cm = -0.1472     CD =  0.03901   =>   CDf =  0.00395    CDp =  0.03507

 Side 1  free  transition at x/c =  0.6752   60
 Side 2  free  transition at x/c =  0.1039   39

  11   rms: 0.8707E+00   max: 0.1046E+02   T at   39  2   RLX: 0.088
       a = -4.000      CL =  0.2460
      Cm = -0.1415     CD =  0.04133   =>   CDf =  0.00396    CDp =  0.03738

 Side 1  free  transition at x/c =  0.6750   60
 Side 2  free  transition at x/c =  0.0967   39

  12   rms: 0.3661E+00   max: -.1335E+01   D at   69  2   RLX: 0.374
       a = -4.000      CL =  0.2526
      Cm = -0.1503     CD =  0.03610   =>   CDf =  0.00391    CDp =  0.03219

 Side 1  free  transition at x/c =  0.6745   60
 Side 2  free  transition at x/c =  0.0980   39

  13   rms: 0.4360E+00   max: -.1557E+01   D at   58  2   RLX: 0.321
       a = -4.000      CL =  0.2301
      Cm = -0.1507     CD =  0.02984   =>   CDf =  0.00417    CDp =  0.02567

 Side 1  free  transition at x/c =  0.6746   60
 Side 2  free  transition at x/c =  0.1004   39

  14   rms: 0.4329E+00   max: -.1525E+01   D at   52  2   RLX: 0.328
       a = -4.000      CL =  0.2059
      Cm = -0.1456     CD =  0.02470   =>   CDf =  0.00462    CDp =  0.02008

 Side 1  free  transition at x/c =  0.6748   60
 Side 2  free  transition at x/c =  0.1049   39
 idif Ue xi dudx           1  7.65164942E-02  3.09109688E-03   24.753832    
 Uenew xinew           2  1.40167121E-03  5.66244125E-05

  15   rms: 0.3828E+00   max: -.1820E+01   T at   40  2   RLX: 0.275
       a = -4.000      CL =  0.1931
      Cm = -0.1419     CD =  0.02342   =>   CDf =  0.00510    CDp =  0.01833

 Side 1  free  transition at x/c =  0.6750   59
 Side 2  free  transition at x/c =  0.1035   40

  16   rms: 0.4445E+00   max: -.2304E+01   T at   40  2   RLX: 0.217
       a = -4.000      CL =  0.1776
      Cm = -0.1387     CD =  0.02402   =>   CDf =  0.00512    CDp =  0.01890

 Side 1  free  transition at x/c =  0.6752   59
 Side 2  free  transition at x/c =  0.1078   41

  17   rms: 0.2610E+00   max: -.1065E+01   D at   47  2   RLX: 0.470
       a = -4.000      CL =  0.1821
      Cm = -0.1364     CD =  0.01766   =>   CDf =  0.00595    CDp =  0.01171

 Side 1  free  transition at x/c =  0.6754   59
 Side 2  free  transition at x/c =  0.1101   41

  18   rms: 0.1940E+00   max: -.9844E+00   D at   45  2   RLX: 0.508
       a = -4.000      CL =  0.1929
      Cm = -0.1365     CD =  0.01570   =>   CDf =  0.00657    CDp =  0.00913

 Side 1  free  transition at x/c =  0.6756   60
 Side 2  free  transition at x/c =  0.1124   40

  19   rms: 0.1432E+00   max: -.9282E+00   D at   43  2   RLX: 0.539
       a = -4.000      CL =  0.1997
      Cm = -0.1370     CD =  0.01436   =>   CDf =  0.00699    CDp =  0.00737

 Side 1  free  transition at x/c =  0.6757   60
 Side 2  free  transition at x/c =  0.1139   40

  20   rms: 0.8490E-01   max: -.5808E+00   D at   42  2   RLX: 0.861
       a = -4.000      CL =  0.2037
      Cm = -0.1374     CD =  0.01306   =>   CDf =  0.00715    CDp =  0.00590

 Side 1  free  transition at x/c =  0.6758   60
 Side 2  free  transition at x/c =  0.1135   40

  21   rms: 0.1125E-01   max: -.1404E+00   D at   42  2
       a = -4.000      CL =  0.2028
      Cm = -0.1372     CD =  0.01305   =>   CDf =  0.00716    CDp =  0.00588

 Side 1  free  transition at x/c =  0.6758   60
 Side 2  free  transition at x/c =  0.1124   40

  22   rms: 0.7413E-03   max: -.1058E-01   D at   42  2
       a = -4.000      CL =  0.2029
      Cm = -0.1372     CD =  0.01307   =>   CDf =  0.00717    CDp =  0.00590

 Side 1  free  transition at x/c =  0.6758   60
 Side 2  free  transition at x/c =  0.1123   40

  23   rms: 0.3023E-05   max: -.4823E-04   D at   42  2
       a = -4.000      CL =  0.2029
      Cm = -0.1372     CD =  0.01307   =>   CDf =  0.00717    CDp =  0.00590
 plradd ia,ip,cpol            1           0  2.58622002E-02

 Point added to stored polar  1
 Point written to save file  goe798_Re600k.base.pol                          
 Dump file unspecified or not available
 Calculating wake trajectory ...
 Calculating source influence matrix ...

 Solving BL system ...

 Side 1  free  transition at x/c =  0.6758   60
 Side 2  free  transition at x/c =  0.1123   40

   1   rms: 0.7012E-01   max: -.3158E+00   T at   40  2
       a = -3.500      CL =  0.2594
      Cm = -0.1373     CD =  0.01295   =>   CDf =  0.00721    CDp =  0.00574

 Side 1  free  transition at x/c =  0.6690   61
 Side 2  free  transition at x/c =  0.1155   39

   2   rms: 0.1569E-01   max: -.1044E+00   D at   39  2
       a = -3.500      CL =  0.2607
      Cm = -0.1376     CD =  0.01307   =>   CDf =  0.00730    CDp =  0.00577

 Side 1  free  transition at x/c =  0.6685   61
 Side 2  free  transition at x/c =  0.1156   39

   3   rms: 0.3032E-03   max: 0.2144E-02   D at    4  1
       a = -3.500      CL =  0.2606
      Cm = -0.1376     CD =  0.01307   =>   CDf =  0.00730    CDp =  0.00577

 Side 1  free  transition at x/c =  0.6684   61
 Side 2  free  transition at x/c =  0.1156   39

   4   rms: 0.2411E-05   max: -.2168E-04   D at    4  1
       a = -3.500      CL =  0.2606
      Cm = -0.1376     CD =  0.01307   =>   CDf =  0.00731    CDp =  0.00577
 plradd ia,ip,cpol            2           0  2.58622002E-02

 Point added to stored polar  1
 Point written to save file  goe798_Re600k.base.pol                          
 Dump file unspecified or not available
 Calculating wake trajectory ...
 Calculating source influence matrix ...

 Solving BL system ...

 Side 1  free  transition at x/c =  0.6684   61
 Side 2  free  transition at x/c =  0.1156   39

   1   rms: 0.7254E-01   max: -.3243E+00   T at   39  2
       a = -3.000      CL =  0.3209
      Cm = -0.1385     CD =  0.01331   =>   CDf =  0.00731    CDp =  0.00601

 Side 1  free  transition at x/c =  0.6614   60
 Side 2  free  transition at x/c =  0.1193   40

   2   rms: 0.2474E-01   max: 0.2796E+00   D at   40  2
       a = -3.000      CL =  0.3145
      Cm = -0.1374     CD =  0.01253   =>   CDf =  0.00727    CDp =  0.00526

 Side 1  free  transition at x/c =  0.6633   60
 Side 2  free  transition at x/c =  0.1196   40

   3   rms: 0.4618E-02   max: 0.5275E-01   D at   40  2
       a = -3.000      CL =  0.3146
      Cm = -0.1374     CD =  0.01256   =>   CDf =  0.00723    CDp =  0.00533

 Side 1  free  transition at x/c =  0.6629   60
 Side 2  free  transition at x/c =  0.1195   40

   4   rms: 0.2064E-04   max: 0.2204E-03   D at   40  2
       a = -3.000      CL =  0.3146
      Cm = -0.1374     CD =  0.01256   =>   CDf =  0.00723    CDp =  0.00533
 plradd ia,ip,cpol            3           0  2.58622002E-02

 Point added to stored polar  1
 Point written to save file  goe798_Re600k.base.pol                          
 Dump file unspecified or not available
 Calculating wake trajectory ...
 Calculating source influence matrix ...

 Solving BL system ...

 Side 1  free  transition at x/c =  0.6629   60
 Side 2  free  transition at x/c =  0.1195   40

   1   rms: 0.7044E-01   max: -.2979E+00   T at   40  2
       a = -2.500      CL =  0.3697
      Cm = -0.1373     CD =  0.01228   =>   CDf =  0.00726    CDp =  0.00502

 Side 1  free  transition at x/c =  0.6547   61
 Side 2  free  transition at x/c =  0.1228   39

   2   rms: 0.1978E-01   max: -.1707E+00   D at   39  2
       a = -2.500      CL =  0.3699
      Cm = -0.1373     CD =  0.01232   =>   CDf =  0.00725    CDp =  0.00507

 Side 1  free  transition at x/c =  0.6560   61
 Side 2  free  transition at x/c =  0.1230   39

   3   rms: 0.4857E-03   max: 0.4593E-02   D at   39  2
       a = -2.500      CL =  0.3699
      Cm = -0.1373     CD =  0.01233   =>   CDf =  0.00723    CDp =  0.00510

 Side 1  free  transition at x/c =  0.6559   61
 Side 2  free  transition at x/c =  0.1230   39

   4   rms: 0.2972E-05   max: 0.9964E-05   D at   49  2
       a = -2.500      CL =  0.3699
      Cm = -0.1373     CD =  0.01233   =>   CDf =  0.00723    CDp =  0.00510
 plradd ia,ip,cpol            4           0  2.93290056E-02

 Point added to stored polar  1
 Point written to save file  goe798_Re600k.base.pol                          
 Dump file unspecified or not available
 Calculating wake trajectory ...
 Calculating source influence matrix ...

 Solving BL system ...

 Side 1  free  transition at x/c =  0.6559   61
 Side 2  free  transition at x/c =  0.1230   39

   1   rms: 0.6943E-01   max: -.2099E+00   T at   39  2
       a = -2.000      CL =  0.4255
      Cm = -0.1373     CD =  0.01212   =>   CDf =  0.00724    CDp =  0.00488

 Side 1  free  transition at x/c =  0.6499   62
 Side 2  free  transition at x/c =  0.1261   38

   2   rms: 0.3681E-02   max: 0.3772E-01   D at    3  1
       a = -2.000      CL =  0.4268
      Cm = -0.1376     CD =  0.01224   =>   CDf =  0.00730    CDp =  0.00494

 Side 1  free  transition at x/c =  0.6491   62
 Side 2  free  transition at x/c =  0.1261   38

   3   rms: 0.2304E-03   max: -.1874E-02   D at    4  2
       a = -2.000      CL =  0.4268
      Cm = -0.1376     CD =  0.01224   =>   CDf =  0.00732    CDp =  0.00493

 Side 1  free  transition at x/c =  0.6491   62
 Side 2  free  transition at x/c =  0.1261   38

   4   rms: 0.1053E-05   max: 0.6771E-05   T at   62  1
       a = -2.000      CL =  0.4268
      Cm = -0.1376     CD =  0.01224   =>   CDf =  0.00732    CDp =  0.00492
 plradd ia,ip,cpol            5           0  2.93290056E-02

 Point added to stored polar  1
 Point written to save file  goe798_Re600k.base.pol                          
 Dump file unspecified or not available
 Calculating wake trajectory ...
 Calculating source influence matrix ...

 Solving BL system ...

 Side 1  free  transition at x/c =  0.6491   62
 Side 2  free  transition at x/c =  0.1261   38

   1   rms: 0.7154E-01   max: -.2605E+00   T at   38  2
       a = -1.500      CL =  0.4861
      Cm = -0.1384     CD =  0.01235   =>   CDf =  0.00733    CDp =  0.00503

 Side 1  free  transition at x/c =  0.6410   62
 Side 2  free  transition at x/c =  0.1295   38

   2   rms: 0.1958E-01   max: -.2233E+00   D at   62  1
       a = -1.500      CL =  0.4807
      Cm = -0.1373     CD =  0.01193   =>   CDf =  0.00732    CDp =  0.00462

 Side 1  free  transition at x/c =  0.6428   62
 Side 2  free  transition at x/c =  0.1299   38

   3   rms: 0.1317E-02   max: 0.1187E-01   D at   38  2
       a = -1.500      CL =  0.4808
      Cm = -0.1373     CD =  0.01195   =>   CDf =  0.00727    CDp =  0.00467

 Side 1  free  transition at x/c =  0.6424   62
 Side 2  free  transition at x/c =  0.1299   38

   4   rms: 0.8871E-05   max: -.1126E-03   D at   63  1
       a = -1.500      CL =  0.4807
      Cm = -0.1373     CD =  0.01195   =>   CDf =  0.00728    CDp =  0.00467
 plradd ia,ip,cpol            6           0  0.23362027    

 Point added to stored polar  1
 Point written to save file  goe798_Re600k.base.pol                          
 Dump file unspecified or not available
 Calculating wake trajectory ...
 Calculating source influence matrix ...

 Solving BL system ...

 Side 1  free  transition at x/c =  0.6424   62
 Side 2  free  transition at x/c =  0.1299   38

   1   rms: 0.7173E-01   max: -.2069E+00   T at   38  2
       a = -1.000      CL =  0.5344
      Cm = -0.1370     CD =  0.01162   =>   CDf =  0.00727    CDp =  0.00435

 Side 1  free  transition at x/c =  0.6347   63
 Side 2  free  transition at x/c =  0.1343   37

   2   rms: 0.8488E-02   max: 0.1069E+00   D at   37  2
       a = -1.000      CL =  0.5351
      Cm = -0.1371     CD =  0.01173   =>   CDf =  0.00726    CDp =  0.00447

 Side 1  free  transition at x/c =  0.6353   63
 Side 2  free  transition at x/c =  0.1338   37

   3   rms: 0.2980E-03   max: 0.2444E-02   D at    4  1
       a = -1.000      CL =  0.5352
      Cm = -0.1371     CD =  0.01173   =>   CDf =  0.00725    CDp =  0.00448

 Side 1  free  transition at x/c =  0.6353   63
 Side 2  free  transition at x/c =  0.1338   37

   4   rms: 0.2329E-05   max: 0.1373E-04   D at   81  1
       a = -1.000      CL =  0.5352
      Cm = -0.1371     CD =  0.01173   =>   CDf =  0.00725    CDp =  0.00448
 plradd ia,ip,cpol            7           0  0.23362027    

 Point added to stored polar  1
 Point written to save file  goe798_Re600k.base.pol                          
 Dump file unspecified or not available
 Calculating wake trajectory ...
 Calculating source influence matrix ...

 Solving BL system ...

 Side 1  free  transition at x/c =  0.6353   63
 Side 2  free  transition at x/c =  0.1338   37

   1   rms: 0.7013E-01   max: -.2359E+00   T at   37  2
       a = -0.500      CL =  0.5906
      Cm = -0.1371     CD =  0.01160   =>   CDf =  0.00724    CDp =  0.00436

 Side 1  free  transition at x/c =  0.6283   64
 Side 2  free  transition at x/c =  0.1363   36

   2   rms: 0.1592E-01   max: -.2033E+00   D at   36  2
       a = -0.500      CL =  0.5919
      Cm = -0.1374     CD =  0.01169   =>   CDf =  0.00732    CDp =  0.00437

 Side 1  free  transition at x/c =  0.6280   63
 Side 2  free  transition at x/c =  0.1369   36

   3   rms: 0.8491E-03   max: 0.9340E-02   D at   36  2
       a = -0.500      CL =  0.5917
      Cm = -0.1373     CD =  0.01168   =>   CDf =  0.00733    CDp =  0.00436

 Side 1  free  transition at x/c =  0.6281   63
 Side 2  free  transition at x/c =  0.1368   36

   4   rms: 0.6741E-05   max: -.4134E-04   D at   83  1
       a = -0.500      CL =  0.5917
      Cm = -0.1373     CD =  0.01168   =>   CDf =  0.00732    CDp =  0.00436
 plradd ia,ip,cpol            8           0  0.21910454    

 Point added to stored polar  1
 Point written to save file  goe798_Re600k.base.pol                          
 Dump file unspecified or not available
 Calculating wake trajectory ...
 Calculating source influence matrix ...

 Solving BL system ...

 Side 1  free  transition at x/c =  0.6281   63
 Side 2  free  transition at x/c =  0.1368   36

   1   rms: 0.6884E-01   max: -.1478E+00   T at   36  2
       a =  0.000      CL =  0.6446
      Cm = -0.1368     CD =  0.01149   =>   CDf =  0.00733    CDp =  0.00417

 Side 1  free  transition at x/c =  0.6220   63
 Side 2  free  transition at x/c =  0.1394   36

   2   rms: 0.1172E-01   max: -.1511E+00   D at   36  2
       a =  0.000      CL =  0.6455
      Cm = -0.1370     CD =  0.01156   =>   CDf =  0.00728    CDp =  0.00427

 Side 1  free  transition at x/c =  0.6220   63
 Side 2  free  transition at x/c =  0.1393   36

   3   rms: 0.1200E-01   max: -.1584E+00   D at   36  2
       a =  0.000      CL =  0.6455
      Cm = -0.1370     CD =  0.01156   =>   CDf =  0.00728    CDp =  0.00428

 Side 1  free  transition at x/c =  0.6220   63
 Side 2  free  transition at x/c =  0.1393   36

   4   rms: 0.1200E-01   max: -.1585E+00   D at   36  2
       a =  0.000      CL =  0.6455
      Cm = -0.1370     CD =  0.01156   =>   CDf =  0.00728    CDp =  0.00428

 Side 1  free  transition at x/c =  0.6220   63
 Side 2  free  transition at x/c =  0.1393   36

   5   rms: 0.1200E-01   max: -.1585E+00   D at   36  2
       a =  0.000      CL =  0.6455
      Cm = -0.1370     CD =  0.01156   =>   CDf =  0.00728    CDp =  0.00428

 Side 1  free  transition at x/c =  0.6220   63
 Side 2  free  transition at x/c =  0.1393   36

   6   rms: 0.1200E-01   max: -.1585E+00   D at   36  2
       a =  0.000      CL =  0.6455
      Cm = -0.1370     CD =  0.01156   =>   CDf =  0.00728    CDp =  0.00428

 Side 1  free  transition at x/c =  0.6220   63
 Side 2  free  transition at x/c =  0.1393   36

   7   rms: 0.1200E-01   max: -.1585E+00   D at   36  2
       a =  0.000      CL =  0.6455
      Cm = -0.1370     CD =  0.01156   =>   CDf =  0.00728    CDp =  0.00428

 Side 1  free  transition at x/c =  0.6220   63
 Side 2  free  transition at x/c =  0.1393   36

   8   rms: 0.1200E-01   max: -.1585E+00   D at   36  2
       a =  0.000      CL =  0.6455
      Cm = -0.1370     CD =  0.01156   =>   CDf =  0.00728    CDp =  0.00428

 Side 1  free  transition at x/c =  0.6220   63
 Side 2  free  transition at x/c =  0.1393   36

   9   rms: 0.1200E-01   max: -.1585E+00   D at   36  2
       a =  0.000      CL =  0.6455
      Cm = -0.1370     CD =  0.01156   =>   CDf =  0.00728    CDp =  0.00428

 Side 1  free  transition at x/c =  0.6220   63
 Side 2  free  transition at x/c =  0.1393   36

  10   rms: 0.1200E-01   max: -.1585E+00   D at   36  2
       a =  0.000      CL =  0.6455
      Cm = -0.1370     CD =  0.01156   =>   CDf =  0.00728    CDp =  0.00428

 Side 1  free  transition at x/c =  0.6220   63
 Side 2  free  transition at x/c =  0.1393   36

  11   rms: 0.1200E-01   max: -.1585E+00   D at   36  2
       a =  0.000      CL =  0.6455
      Cm = -0.1370     CD =  0.01156   =>   CDf =  0.00728    CDp =  0.00428

 Side 1  free  transition at x/c =  0.6220   63
 Side 2  free  transition at x/c =  0.1393   36

  12   rms: 0.1200E-01   max: -.1585E+00   D at   36  2
       a =  0.000      CL =  0.6455
      Cm = -0.1370     CD =  0.01156   =>   CDf =  0.00728    CDp =  0.00428

 Side 1  free  transition at x/c =  0.6220   63
 Side 2  free  transition at x/c =  0.1393   36

  13   rms: 0.1200E-01   max: -.1585E+00   D at   36  2
       a =  0.000      CL =  0.6455
      Cm = -0.1370     CD =  0.01156   =>   CDf =  0.00728    CDp =  0.00428

 Side 1  free  transition at x/c =  0.6220   63
 Side 2  free  transition at x/c =  0.1393   36

  14   rms: 0.1200E-01   max: -.1585E+00   D at   36  2
       a =  0.000      CL =  0.6455
      Cm = -0.1370     CD =  0.01156   =>   CDf =  0.00728    CDp =  0.00428

 Side 1  free  transition at x/c =  0.6220   63
 Side 2  free  transition at x/c =  0.1393   36

  15   rms: 0.1200E-01   max: -.1585E+00   D at   36  2
       a =  0.000      CL =  0.6455
      Cm = -0.1370     CD =  0.01156   =>   CDf =  0.00728    CDp =  0.00428

 Side 1  free  transition at x/c =  0.6220   63
 Side 2  free  transition at x/c =  0.1393   36

  16   rms: 0.1200E-01   max: -.1585E+00   D at   36  2
       a =  0.000      CL =  0.6455
      Cm = -0.1370     CD =  0.01156   =>   CDf =  0.00728    CDp =  0.00428

 Side 1  free  transition at x/c =  0.6220   63
 Side 2  free  transition at x/c =  0.1393   36

  17   rms: 0.1200E-01   max: -.1585E+00   D at   36  2
       a =  0.000      CL =  0.6455
      Cm = -0.1370     CD =  0.01156   =>   CDf =  0.00728    CDp =  0.00428

 Side 1  free  transition at x/c =  0.6220   63
 Side 2  free  transition at x/c =  0.1393   36

  18   rms: 0.1200E-01   max: -.1585E+00   D at   36  2
       a =  0.000      CL =  0.6455
      Cm = -0.1370     CD =  0.01156   =>   CDf =  0.00728    CDp =  0.00428

 Side 1  free  transition at x/c =  0.6220   63
 Side 2  free  transition at x/c =  0.1393   36

  19   rms: 0.1200E-01   max: -.1585E+00   D at   36  2
       a =  0.000      CL =  0.6455
      Cm = -0.1370     CD =  0.01156   =>   CDf =  0.00728    CDp =  0.00428

 Side 1  free  transition at x/c =  0.6220   63
 Side 2  free  transition at x/c =  0.1393   36

  20   rms: 0.1200E-01   max: -.1585E+00   D at   36  2
       a =  0.000      CL =  0.6455
      Cm = -0.1370     CD =  0.01156   =>   CDf =  0.00728    CDp =  0.00428

 Side 1  free  transition at x/c =  0.6220   63
 Side 2  free  transition at x/c =  0.1393   36

  21   rms: 0.1200E-01   max: -.1585E+00   D at   36  2
       a =  0.000      CL =  0.6455
      Cm = -0.1370     CD =  0.01156   =>   CDf =  0.00728    CDp =  0.00428

 Side 1  free  transition at x/c =  0.6220   63
 Side 2  free  transition at x/c =  0.1393   36

  22   rms: 0.1200E-01   max: -.1585E+00   D at   36  2
       a =  0.000      CL =  0.6455
      Cm = -0.1370     CD =  0.01156   =>   CDf =  0.00728    CDp =  0.00428

 Side 1  free  transition at x/c =  0.6220   63
 Side 2  free  transition at x/c =  0.1393   36

  23   rms: 0.1200E-01   max: -.1585E+00   D at   36  2
       a =  0.000      CL =  0.6455
      Cm = -0.1370     CD =  0.01156   =>   CDf =  0.00728    CDp =  0.00428

 Side 1  free  transition at x/c =  0.6220   63
 Side 2  free  transition at x/c =  0.1393   36

  24   rms: 0.1200E-01   max: -.1585E+00   D at   36  2
       a =  0.000      CL =  0.6455
      Cm = -0.1370     CD =  0.01156   =>   CDf =  0.00728    CDp =  0.00428

 Side 1  free  transition at x/c =  0.6220   63
 Side 2  free  transition at x/c =  0.1393   36

  25   rms: 0.1200E-01   max: -.1585E+00   D at   36  2
       a =  0.000      CL =  0.6455
      Cm = -0.1370     CD =  0.01156   =>   CDf =  0.00728    CDp =  0.00428

 Side 1  free  transition at x/c =  0.6220   63
 Side 2  free  transition at x/c =  0.1393   36

  26   rms: 0.1200E-01   max: -.1585E+00   D at   36  2
       a =  0.000      CL =  0.6455
      Cm = -0.1370     CD =  0.01156   =>   CDf =  0.00728    CDp =  0.00428

 Side 1  free  transition at x/c =  0.6220   63
 Side 2  free  transition at x/c =  0.1393   36

  27   rms: 0.1200E-01   max: -.1585E+00   D at   36  2
       a =  0.000      CL =  0.6455
      Cm = -0.1370     CD =  0.01156   =>   CDf =  0.00728    CDp =  0.00428

 Side 1  free  transition at x/c =  0.6220   63
 Side 2  free  transition at x/c =  0.1393   36

  28   rms: 0.1200E-01   max: -.1585E+00   D at   36  2
       a =  0.000      CL =  0.6455
      Cm = -0.1370     CD =  0.01156   =>   CDf =  0.00728    CDp =  0.00428

 Side 1  free  transition at x/c =  0.6220   63
 Side 2  free  transition at x/c =  0.1393   36

  29   rms: 0.1200E-01   max: -.1585E+00   D at   36  2
       a =  0.000      CL =  0.6455
      Cm = -0.1370     CD =  0.01156   =>   CDf =  0.00728    CDp =  0.00428

 Side 1  free  transition at x/c =  0.6220   63
 Side 2  free  transition at x/c =  0.1393   36

  30   rms: 0.1200E-01   max: -.1585E+00   D at   36  2
       a =  0.000      CL =  0.6455
      Cm = -0.1370     CD =  0.01156   =>   CDf =  0.00728    CDp =  0.00428

 Side 1  free  transition at x/c =  0.6220   63
 Side 2  free  transition at x/c =  0.1393   36

  31   rms: 0.1200E-01   max: -.1585E+00   D at   36  2
       a =  0.000      CL =  0.6455
      Cm = -0.1370     CD =  0.01156   =>   CDf =  0.00728    CDp =  0.00428

 Side 1  free  transition at x/c =  0.6220   63
 Side 2  free  transition at x/c =  0.1393   36

  32   rms: 0.1200E-01   max: -.1585E+00   D at   36  2
       a =  0.000      CL =  0.6455
      Cm = -0.1370     CD =  0.01156   =>   CDf =  0.00728    CDp =  0.00428

 Side 1  free  transition at x/c =  0.6220   63
 Side 2  free  transition at x/c =  0.1393   36

  33   rms: 0.1200E-01   max: -.1585E+00   D at   36  2
       a =  0.000      CL =  0.6455
      Cm = -0.1370     CD =  0.01156   =>   CDf =  0.00728    CDp =  0.00428

 Side 1  free  transition at x/c =  0.6220   63
 Side 2  free  transition at x/c =  0.1393   36

  34   rms: 0.1200E-01   max: -.1585E+00   D at   36  2
       a =  0.000      CL =  0.6455
      Cm = -0.1370     CD =  0.01156   =>   CDf =  0.00728    CDp =  0.00428

 Side 1  free  transition at x/c =  0.6220   63
 Side 2  free  transition at x/c =  0.1393   36

  35   rms: 0.1200E-01   max: -.1585E+00   D at   36  2
       a =  0.000      CL =  0.6455
      Cm = -0.1370     CD =  0.01156   =>   CDf =  0.00728    CDp =  0.00428

 Side 1  free  transition at x/c =  0.6220   63
 Side 2  free  transition at x/c =  0.1393   36

  36   rms: 0.1200E-01   max: -.1585E+00   D at   36  2
       a =  0.000      CL =  0.6455
      Cm = -0.1370     CD =  0.01156   =>   CDf =  0.00728    CDp =  0.00428

 Side 1  free  transition at x/c =  0.6220   63
 Side 2  free  transition at x/c =  0.1393   36

  37   rms: 0.1200E-01   max: -.1585E+00   D at   36  2
       a =  0.000      CL =  0.6455
      Cm = -0.1370     CD =  0.01156   =>   CDf =  0.00728    CDp =  0.00428

 Side 1  free  transition at x/c =  0.6220   63
 Side 2  free  transition at x/c =  0.1393   36

  38   rms: 0.1200E-01   max: -.1585E+00   D at   36  2
       a =  0.000      CL =  0.6455
      Cm = -0.1370     CD =  0.01156   =>   CDf =  0.00728    CDp =  0.00428

 Side 1  free  transition at x/c =  0.6220   63
 Side 2  free  transition at x/c =  0.1393   36

  39   rms: 0.1200E-01   max: -.1585E+00   D at   36  2
       a =  0.000      CL =  0.6455
      Cm = -0.1370     CD =  0.01156   =>   CDf =  0.00728    CDp =  0.00428

 Side 1  free  transition at x/c =  0.6220   63
 Side 2  free  transition at x/c =  0.1393   36

  40   rms: 0.1200E-01   max: -.1585E+00   D at   36  2
       a =  0.000      CL =  0.6455
      Cm = -0.1370     CD =  0.01156   =>   CDf =  0.00728    CDp =  0.00428

 Side 1  free  transition at x/c =  0.6220   63
 Side 2  free  transition at x/c =  0.1393   36

  41   rms: 0.1200E-01   max: -.1585E+00   D at   36  2
       a =  0.000      CL =  0.6455
      Cm = -0.1370     CD =  0.01156   =>   CDf =  0.00728    CDp =  0.00428

 Side 1  free  transition at x/c =  0.6220   63
 Side 2  free  transition at x/c =  0.1393   36

  42   rms: 0.1200E-01   max: -.1585E+00   D at   36  2
       a =  0.000      CL =  0.6455
      Cm = -0.1370     CD =  0.01156   =>   CDf =  0.00728    CDp =  0.00428

 Side 1  free  transition at x/c =  0.6220   63
 Side 2  free  transition at x/c =  0.1393   36

  43   rms: 0.1200E-01   max: -.1585E+00   D at   36  2
       a =  0.000      CL =  0.6455
      Cm = -0.1370     CD =  0.01156   =>   CDf =  0.00728    CDp =  0.00428

 Side 1  free  transition at x/c =  0.6220   63
 Side 2  free  transition at x/c =  0.1393   36

  44   rms: 0.1200E-01   max: -.1585E+00   D at   36  2
       a =  0.000      CL =  0.6455
      Cm = -0.1370     CD =  0.01156   =>   CDf =  0.00728    CDp =  0.00428

 Side 1  free  transition at x/c =  0.6220   63
 Side 2  free  transition at x/c =  0.1393   36

  45   rms: 0.1200E-01   max: -.1585E+00   D at   36  2
       a =  0.000      CL =  0.6455
      Cm = -0.1370     CD =  0.01156   =>   CDf =  0.00728    CDp =  0.00428

 Side 1  free  transition at x/c =  0.6220   63
 Side 2  free  transition at x/c =  0.1393   36

  46   rms: 0.1200E-01   max: -.1585E+00   D at   36  2
       a =  0.000      CL =  0.6455
      Cm = -0.1370     CD =  0.01156   =>   CDf =  0.00728    CDp =  0.00428

 Side 1  free  transition at x/c =  0.6220   63
 Side 2  free  transition at x/c =  0.1393   36

  47   rms: 0.1200E-01   max: -.1585E+00   D at   36  2
       a =  0.000      CL =  0.6455
      Cm = -0.1370     CD =  0.01156   =>   CDf =  0.00728    CDp =  0.00428

 Side 1  free  transition at x/c =  0.6220   63
 Side 2  free  transition at x/c =  0.1393   36

  48   rms: 0.1200E-01   max: -.1585E+00   D at   36  2
       a =  0.000      CL =  0.6455
      Cm = -0.1370     CD =  0.01156   =>   CDf =  0.00728    CDp =  0.00428

 Side 1  free  transition at x/c =  0.6220   63
 Side 2  free  transition at x/c =  0.1393   36

  49   rms: 0.1200E-01   max: -.1585E+00   D at   36  2
       a =  0.000      CL =  0.6455
      Cm = -0.1370     CD =  0.01156   =>   CDf =  0.00728    CDp =  0.00428

 Side 1  free  transition at x/c =  0.6220   63
 Side 2  free  transition at x/c =  0.1393   36

  50   rms: 0.1200E-01   max: -.1585E+00   D at   36  2
       a =  0.000      CL =  0.6455
      Cm = -0.1370     CD =  0.01156   =>   CDf =  0.00728    CDp =  0.00428

 Side 1  free  transition at x/c =  0.6220   63
 Side 2  free  transition at x/c =  0.1393   36

  51   rms: 0.1200E-01   max: -.1585E+00   D at   36  2
       a =  0.000      CL =  0.6455
      Cm = -0.1370     CD =  0.01156   =>   CDf =  0.00728    CDp =  0.00428

 Side 1  free  transition at x/c =  0.6220   63
 Side 2  free  transition at x/c =  0.1393   36

  52   rms: 0.1200E-01   max: -.1585E+00   D at   36  2
       a =  0.000      CL =  0.6455
      Cm = -0.1370     CD =  0.01156   =>   CDf =  0.00728    CDp =  0.00428

 Side 1  free  transition at x/c =  0.6220   63
 Side 2  free  transition at x/c =  0.1393   36

  53   rms: 0.1200E-01   max: -.1585E+00   D at   36  2
       a =  0.000      CL =  0.6455
      Cm = -0.1370     CD =  0.01156   =>   CDf =  0.00728    CDp =  0.00428

 Side 1  free  transition at x/c =  0.6220   63
 Side 2  free  transition at x/c =  0.1393   36

  54   rms: 0.1200E-01   max: -.1585E+00   D at   36  2
       a =  0.000      CL =  0.6455
      Cm = -0.1370     CD =  0.01156   =>   CDf =  0.00728    CDp =  0.00428

 Side 1  free  transition at x/c =  0.6220   63
 Side 2  free  transition at x/c =  0.1393   36

  55   rms: 0.1200E-01   max: -.1585E+00   D at   36  2
       a =  0.000      CL =  0.6455
      Cm = -0.1370     CD =  0.01156   =>   CDf =  0.00728    CDp =  0.00428

 Side 1  free  transition at x/c =  0.6220   63
 Side 2  free  transition at x/c =  0.1393   36

  56   rms: 0.1200E-01   max: -.1585E+00   D at   36  2
       a =  0.000      CL =  0.6455
      Cm = -0.1370     CD =  0.01156   =>   CDf =  0.00728    CDp =  0.00428

 Side 1  free  transition at x/c =  0.6220   63
 Side 2  free  transition at x/c =  0.1393   36

  57   rms: 0.1200E-01   max: -.1585E+00   D at   36  2
       a =  0.000      CL =  0.6455
      Cm = -0.1370     CD =  0.01156   =>   CDf =  0.00728    CDp =  0.00428

 Side 1  free  transition at x/c =  0.6220   63
 Side 2  free  transition at x/c =  0.1393   36

  58   rms: 0.1200E-01   max: -.1585E+00   D at   36  2
       a =  0.000      CL =  0.6455
      Cm = -0.1370     CD =  0.01156   =>   CDf =  0.00728    CDp =  0.00428

 Side 1  free  transition at x/c =  0.6220   63
 Side 2  free  transition at x/c =  0.1393   36

  59   rms: 0.1200E-01   max: -.1585E+00   D at   36  2
       a =  0.000      CL =  0.6455
      Cm = -0.1370     CD =  0.01156   =>   CDf =  0.00728    CDp =  0.00428

 Side 1  free  transition at x/c =  0.6220   63
 Side 2  free  transition at x/c =  0.1393   36

  60   rms: 0.1200E-01   max: -.1585E+00   D at   36  2
       a =  0.000      CL =  0.6455
      Cm = -0.1370     CD =  0.01156   =>   CDf =  0.00728    CDp =  0.00428

 Side 1  free  transition at x/c =  0.6220   63
 Side 2  free  transition at x/c =  0.1393   36

  61   rms: 0.1200E-01   max: -.1585E+00   D at   36  2
       a =  0.000      CL =  0.6455
      Cm = -0.1370     CD =  0.01156   =>   CDf =  0.00728    CDp =  0.00428

 Side 1  free  transition at x/c =  0.6220   63
 Side 2  free  transition at x/c =  0.1393   36

  62   rms: 0.1200E-01   max: -.1585E+00   D at   36  2
       a =  0.000      CL =  0.6455
      Cm = -0.1370     CD =  0.01156   =>   CDf =  0.00728    CDp =  0.00428

 Side 1  free  transition at x/c =  0.6220   63
 Side 2  free  transition at x/c =  0.1393   36

  63   rms: 0.1200E-01   max: -.1585E+00   D at   36  2
       a =  0.000      CL =  0.6455
      Cm = -0.1370     CD =  0.01156   =>   CDf =  0.00728    CDp =  0.00428

 Side 1  free  transition at x/c =  0.6220   63
 Side 2  free  transition at x/c =  0.1393   36

  64   rms: 0.1200E-01   max: -.1585E+00   D at   36  2
       a =  0.000      CL =  0.6455
      Cm = -0.1370     CD =  0.01156   =>   CDf =  0.00728    CDp =  0.00428

 Side 1  free  transition at x/c =  0.6220   63
 Side 2  free  transition at x/c =  0.1393   36

  65   rms: 0.1200E-01   max: -.1585E+00   D at   36  2
       a =  0.000      CL =  0.6455
      Cm = -0.1370     CD =  0.01156   =>   CDf =  0.00728    CDp =  0.00428

 Side 1  free  transition at x/c =  0.6220   63
 Side 2  free  transition at x/c =  0.1393   36

  66   rms: 0.1200E-01   max: -.1585E+00   D at   36  2
       a =  0.000      CL =  0.6455
      Cm = -0.1370     CD =  0.01156   =>   CDf =  0.00728    CDp =  0.00428

 Side 1  free  transition at x/c =  0.6220   63
 Side 2  free  transition at x/c =  0.1393   36

  67   rms: 0.1200E-01   max: -.1585E+00   D at   36  2
       a =  0.000      CL =  0.6455
      Cm = -0.1370     CD =  0.01156   =>   CDf =  0.00728    CDp =  0.00428

 Side 1  free  transition at x/c =  0.6220   63
 Side 2  free  transition at x/c =  0.1393   36

  68   rms: 0.1200E-01   max: -.1585E+00   D at   36  2
       a =  0.000      CL =  0.6455
      Cm = -0.1370     CD =  0.01156   =>   CDf =  0.00728    CDp =  0.00428

 Side 1  free  transition at x/c =  0.6220   63
 Side 2  free  transition at x/c =  0.1393   36

  69   rms: 0.1200E-01   max: -.1585E+00   D at   36  2
       a =  0.000      CL =  0.6455
      Cm = -0.1370     CD =  0.01156   =>   CDf =  0.00728    CDp =  0.00428

 Side 1  free  transition at x/c =  0.6220   63
 Side 2  free  transition at x/c =  0.1393   36

  70   rms: 0.1200E-01   max: -.1585E+00   D at   36  2
       a =  0.000      CL =  0.6455
      Cm = -0.1370     CD =  0.01156   =>   CDf =  0.00728    CDp =  0.00428

 Side 1  free  transition at x/c =  0.6220   63
 Side 2  free  transition at x/c =  0.1393   36

  71   rms: 0.1200E-01   max: -.1585E+00   D at   36  2
       a =  0.000      CL =  0.6455
      Cm = -0.1370     CD =  0.01156   =>   CDf =  0.00728    CDp =  0.00428

 Side 1  free  transition at x/c =  0.6220   63
 Side 2  free  transition at x/c =  0.1393   36

  72   rms: 0.1200E-01   max: -.1585E+00   D at   36  2
       a =  0.000      CL =  0.6455
      Cm = -0.1370     CD =  0.01156   =>   CDf =  0.00728    CDp =  0.00428

 Side 1  free  transition at x/c =  0.6220   63
 Side 2  free  transition at x/c =  0.1393   36

  73   rms: 0.1200E-01   max: -.1585E+00   D at   36  2
       a =  0.000      CL =  0.6455
      Cm = -0.1370     CD =  0.01156   =>   CDf =  0.00728    CDp =  0.00428

 Side 1  free  transition at x/c =  0.6220   63
 Side 2  free  transition at x/c =  0.1393   36

  74   rms: 0.1200E-01   max: -.1585E+00   D at   36  2
       a =  0.000      CL =  0.6455
      Cm = -0.1370     CD =  0.01156   =>   CDf =  0.00728    CDp =  0.00428

 Side 1  free  transition at x/c =  0.6220   63
 Side 2  free  transition at x/c =  0.1393   36

  75   rms: 0.1200E-01   max: -.1585E+00   D at   36  2
       a =  0.000      CL =  0.6455
      Cm = -0.1370     CD =  0.01156   =>   CDf =  0.00728    CDp =  0.00428

 Side 1  free  transition at x/c =  0.6220   63
 Side 2  free  transition at x/c =  0.1393   36

  76   rms: 0.1200E-01   max: -.1585E+00   D at   36  2
       a =  0.000      CL =  0.6455
      Cm = -0.1370     CD =  0.01156   =>   CDf =  0.00728    CDp =  0.00428

 Side 1  free  transition at x/c =  0.6220   63
 Side 2  free  transition at x/c =  0.1393   36

  77   rms: 0.1200E-01   max: -.1585E+00   D at   36  2
       a =  0.000      CL =  0.6455
      Cm = -0.1370     CD =  0.01156   =>   CDf =  0.00728    CDp =  0.00428

 Side 1  free  transition at x/c =  0.6220   63
 Side 2  free  transition at x/c =  0.1393   36

  78   rms: 0.1200E-01   max: -.1585E+00   D at   36  2
       a =  0.000      CL =  0.6455
      Cm = -0.1370     CD =  0.01156   =>   CDf =  0.00728    CDp =  0.00428

 Side 1  free  transition at x/c =  0.6220   63
 Side 2  free  transition at x/c =  0.1393   36

  79   rms: 0.1200E-01   max: -.1585E+00   D at   36  2
       a =  0.000      CL =  0.6455
      Cm = -0.1370     CD =  0.01156   =>   CDf =  0.00728    CDp =  0.00428

 Side 1  free  transition at x/c =  0.6220   63
 Side 2  free  transition at x/c =  0.1393   36

  80   rms: 0.1200E-01   max: -.1585E+00   D at   36  2
       a =  0.000      CL =  0.6455
      Cm = -0.1370     CD =  0.01156   =>   CDf =  0.00728    CDp =  0.00428

 Side 1  free  transition at x/c =  0.6220   63
 Side 2  free  transition at x/c =  0.1393   36

  81   rms: 0.1200E-01   max: -.1585E+00   D at   36  2
       a =  0.000      CL =  0.6455
      Cm = -0.1370     CD =  0.01156   =>   CDf =  0.00728    CDp =  0.00428

 Side 1  free  transition at x/c =  0.6220   63
 Side 2  free  transition at x/c =  0.1393   36

  82   rms: 0.1200E-01   max: -.1585E+00   D at   36  2
       a =  0.000      CL =  0.6455
      Cm = -0.1370     CD =  0.01156   =>   CDf =  0.00728    CDp =  0.00428

 Side 1  free  transition at x/c =  0.6220   63
 Side 2  free  transition at x/c =  0.1393   36

  83   rms: 0.1200E-01   max: -.1585E+00   D at   36  2
       a =  0.000      CL =  0.6455
      Cm = -0.1370     CD =  0.01156   =>   CDf =  0.00728    CDp =  0.00428

 Side 1  free  transition at x/c =  0.6220   63
 Side 2  free  transition at x/c =  0.1393   36

  84   rms: 0.1200E-01   max: -.1585E+00   D at   36  2
       a =  0.000      CL =  0.6455
      Cm = -0.1370     CD =  0.01156   =>   CDf =  0.00728    CDp =  0.00428

 Side 1  free  transition at x/c =  0.6220   63
 Side 2  free  transition at x/c =  0.1393   36

  85   rms: 0.1200E-01   max: -.1585E+00   D at   36  2
       a =  0.000      CL =  0.6455
      Cm = -0.1370     CD =  0.01156   =>   CDf =  0.00728    CDp =  0.00428

 Side 1  free  transition at x/c =  0.6220   63
 Side 2  free  transition at x/c =  0.1393   36

  86   rms: 0.1200E-01   max: -.1585E+00   D at   36  2
       a =  0.000      CL =  0.6455
      Cm = -0.1370     CD =  0.01156   =>   CDf =  0.00728    CDp =  0.00428

 Side 1  free  transition at x/c =  0.6220   63
 Side 2  free  transition at x/c =  0.1393   36

  87   rms: 0.1200E-01   max: -.1585E+00   D at   36  2
       a =  0.000      CL =  0.6455
      Cm = -0.1370     CD =  0.01156   =>   CDf =  0.00728    CDp =  0.00428

 Side 1  free  transition at x/c =  0.6220   63
 Side 2  free  transition at x/c =  0.1393   36

  88   rms: 0.1200E-01   max: -.1585E+00   D at   36  2
       a =  0.000      CL =  0.6455
      Cm = -0.1370     CD =  0.01156   =>   CDf =  0.00728    CDp =  0.00428

 Side 1  free  transition at x/c =  0.6220   63
 Side 2  free  transition at x/c =  0.1393   36

  89   rms: 0.1200E-01   max: -.1585E+00   D at   36  2
       a =  0.000      CL =  0.6455
      Cm = -0.1370     CD =  0.01156   =>   CDf =  0.00728    CDp =  0.00428

 Side 1  free  transition at x/c =  0.6220   63
 Side 2  free  transition at x/c =  0.1393   36

  90   rms: 0.1200E-01   max: -.1585E+00   D at   36  2
       a =  0.000      CL =  0.6455
      Cm = -0.1370     CD =  0.01156   =>   CDf =  0.00728    CDp =  0.00428

 Side 1  free  transition at x/c =  0.6220   63
 Side 2  free  transition at x/c =  0.1393   36

  91   rms: 0.1200E-01   max: -.1585E+00   D at   36  2
       a =  0.000      CL =  0.6455
      Cm = -0.1370     CD =  0.01156   =>   CDf =  0.00728    CDp =  0.00428

 Side 1  free  transition at x/c =  0.6220   63
 Side 2  free  transition at x/c =  0.1393   36

  92   rms: 0.1200E-01   max: -.1585E+00   D at   36  2
       a =  0.000      CL =  0.6455
      Cm = -0.1370     CD =  0.01156   =>   CDf =  0.00728    CDp =  0.00428

 Side 1  free  transition at x/c =  0.6220   63
 Side 2  free  transition at x/c =  0.1393   36

  93   rms: 0.1200E-01   max: -.1585E+00   D at   36  2
       a =  0.000      CL =  0.6455
      Cm = -0.1370     CD =  0.01156   =>   CDf =  0.00728    CDp =  0.00428

 Side 1  free  transition at x/c =  0.6220   63
 Side 2  free  transition at x/c =  0.1393   36

  94   rms: 0.1200E-01   max: -.1585E+00   D at   36  2
       a =  0.000      CL =  0.6455
      Cm = -0.1370     CD =  0.01156   =>   CDf =  0.00728    CDp =  0.00428

 Side 1  free  transition at x/c =  0.6220   63
 Side 2  free  transition at x/c =  0.1393   36

  95   rms: 0.1200E-01   max: -.1585E+00   D at   36  2
       a =  0.000      CL =  0.6455
      Cm = -0.1370     CD =  0.01156   =>   CDf =  0.00728    CDp =  0.00428

 Side 1  free  transition at x/c =  0.6220   63
 Side 2  free  transition at x/c =  0.1393   36

  96   rms: 0.1200E-01   max: -.1585E+00   D at   36  2
       a =  0.000      CL =  0.6455
      Cm = -0.1370     CD =  0.01156   =>   CDf =  0.00728    CDp =  0.00428

 Side 1  free  transition at x/c =  0.6220   63
 Side 2  free  transition at x/c =  0.1393   36

  97   rms: 0.1200E-01   max: -.1585E+00   D at   36  2
       a =  0.000      CL =  0.6455
      Cm = -0.1370     CD =  0.01156   =>   CDf =  0.00728    CDp =  0.00428

 Side 1  free  transition at x/c =  0.6220   63
 Side 2  free  transition at x/c =  0.1393   36

  98   rms: 0.1200E-01   max: -.1585E+00   D at   36  2
       a =  0.000      CL =  0.6455
      Cm = -0.1370     CD =  0.01156   =>   CDf =  0.00728    CDp =  0.00428

 Side 1  free  transition at x/c =  0.6220   63
 Side 2  free  transition at x/c =  0.1393   36

  99   rms: 0.1200E-01   max: -.1585E+00   D at   36  2
       a =  0.000      CL =  0.6455
      Cm = -0.1370     CD =  0.01156   =>   CDf =  0.00728    CDp =  0.00428

 Side 1  free  transition at x/c =  0.6220   63
 Side 2  free  transition at x/c =  0.1393   36

 100   rms: 0.1200E-01   max: -.1585E+00   D at   36  2
       a =  0.000      CL =  0.6455
      Cm = -0.1370     CD =  0.01156   =>   CDf =  0.00728    CDp =  0.00428

 Side 1  free  transition at x/c =  0.6220   63
 Side 2  free  transition at x/c =  0.1393   36

 101   rms: 0.1200E-01   max: -.1585E+00   D at   36  2
       a =  0.000      CL =  0.6455
      Cm = -0.1370     CD =  0.01156   =>   CDf =  0.00728    CDp =  0.00428

 Side 1  free  transition at x/c =  0.6220   63
 Side 2  free  transition at x/c =  0.1393   36

 102   rms: 0.1200E-01   max: -.1585E+00   D at   36  2
       a =  0.000      CL =  0.6455
      Cm = -0.1370     CD =  0.01156   =>   CDf =  0.00728    CDp =  0.00428

 Side 1  free  transition at x/c =  0.6220   63
 Side 2  free  transition at x/c =  0.1393   36

 103   rms: 0.1200E-01   max: -.1585E+00   D at   36  2
       a =  0.000      CL =  0.6455
      Cm = -0.1370     CD =  0.01156   =>   CDf =  0.00728    CDp =  0.00428

 Side 1  free  transition at x/c =  0.6220   63
 Side 2  free  transition at x/c =  0.1393   36

 104   rms: 0.1200E-01   max: -.1585E+00   D at   36  2
       a =  0.000      CL =  0.6455
      Cm = -0.1370     CD =  0.01156   =>   CDf =  0.00728    CDp =  0.00428

 Side 1  free  transition at x/c =  0.6220   63
 Side 2  free  transition at x/c =  0.1393   36

 105   rms: 0.1200E-01   max: -.1585E+00   D at   36  2
       a =  0.000      CL =  0.6455
      Cm = -0.1370     CD =  0.01156   =>   CDf =  0.00728    CDp =  0.00428

 Side 1  free  transition at x/c =  0.6220   63
 Side 2  free  transition at x/c =  0.1393   36

 106   rms: 0.1200E-01   max: -.1585E+00   D at   36  2
       a =  0.000      CL =  0.6455
      Cm = -0.1370     CD =  0.01156   =>   CDf =  0.00728    CDp =  0.00428

 Side 1  free  transition at x/c =  0.6220   63
 Side 2  free  transition at x/c =  0.1393   36

 107   rms: 0.1200E-01   max: -.1585E+00   D at   36  2
       a =  0.000      CL =  0.6455
      Cm = -0.1370     CD =  0.01156   =>   CDf =  0.00728    CDp =  0.00428

 Side 1  free  transition at x/c =  0.6220   63
 Side 2  free  transition at x/c =  0.1393   36

 108   rms: 0.1200E-01   max: -.1585E+00   D at   36  2
       a =  0.000      CL =  0.6455
      Cm = -0.1370     CD =  0.01156   =>   CDf =  0.00728    CDp =  0.00428

 Side 1  free  transition at x/c =  0.6220   63
 Side 2  free  transition at x/c =  0.1393   36

 109   rms: 0.1200E-01   max: -.1585E+00   D at   36  2
       a =  0.000      CL =  0.6455
      Cm = -0.1370     CD =  0.01156   =>   CDf =  0.00728    CDp =  0.00428

 Side 1  free  transition at x/c =  0.6220   63
 Side 2  free  transition at x/c =  0.1393   36

 110   rms: 0.1200E-01   max: -.1585E+00   D at   36  2
       a =  0.000      CL =  0.6455
      Cm = -0.1370     CD =  0.01156   =>   CDf =  0.00728    CDp =  0.00428

 Side 1  free  transition at x/c =  0.6220   63
 Side 2  free  transition at x/c =  0.1393   36

 111   rms: 0.1200E-01   max: -.1585E+00   D at   36  2
       a =  0.000      CL =  0.6455
      Cm = -0.1370     CD =  0.01156   =>   CDf =  0.00728    CDp =  0.00428

 Side 1  free  transition at x/c =  0.6220   63
 Side 2  free  transition at x/c =  0.1393   36

 112   rms: 0.1200E-01   max: -.1585E+00   D at   36  2
       a =  0.000      CL =  0.6455
      Cm = -0.1370     CD =  0.01156   =>   CDf =  0.00728    CDp =  0.00428

 Side 1  free  transition at x/c =  0.6220   63
 Side 2  free  transition at x/c =  0.1393   36

 113   rms: 0.1200E-01   max: -.1585E+00   D at   36  2
       a =  0.000      CL =  0.6455
      Cm = -0.1370     CD =  0.01156   =>   CDf =  0.00728    CDp =  0.00428

 Side 1  free  transition at x/c =  0.6220   63
 Side 2  free  transition at x/c =  0.1393   36

 114   rms: 0.1200E-01   max: -.1585E+00   D at   36  2
       a =  0.000      CL =  0.6455
      Cm = -0.1370     CD =  0.01156   =>   CDf =  0.00728    CDp =  0.00428

 Side 1  free  transition at x/c =  0.6220   63
 Side 2  free  transition at x/c =  0.1393   36

 115   rms: 0.1200E-01   max: -.1585E+00   D at   36  2
       a =  0.000      CL =  0.6455
      Cm = -0.1370     CD =  0.01156   =>   CDf =  0.00728    CDp =  0.00428

 Side 1  free  transition at x/c =  0.6220   63
 Side 2  free  transition at x/c =  0.1393   36

 116   rms: 0.1200E-01   max: -.1585E+00   D at   36  2
       a =  0.000      CL =  0.6455
      Cm = -0.1370     CD =  0.01156   =>   CDf =  0.00728    CDp =  0.00428

 Side 1  free  transition at x/c =  0.6220   63
 Side 2  free  transition at x/c =  0.1393   36

 117   rms: 0.1200E-01   max: -.1585E+00   D at   36  2
       a =  0.000      CL =  0.6455
      Cm = -0.1370     CD =  0.01156   =>   CDf =  0.00728    CDp =  0.00428

 Side 1  free  transition at x/c =  0.6220   63
 Side 2  free  transition at x/c =  0.1393   36

 118   rms: 0.1200E-01   max: -.1585E+00   D at   36  2
       a =  0.000      CL =  0.6455
      Cm = -0.1370     CD =  0.01156   =>   CDf =  0.00728    CDp =  0.00428

 Side 1  free  transition at x/c =  0.6220   63
 Side 2  free  transition at x/c =  0.1393   36

 119   rms: 0.1200E-01   max: -.1585E+00   D at   36  2
       a =  0.000      CL =  0.6455
      Cm = -0.1370     CD =  0.01156   =>   CDf =  0.00728    CDp =  0.00428

 Side 1  free  transition at x/c =  0.6220   63
 Side 2  free  transition at x/c =  0.1393   36

 120   rms: 0.1200E-01   max: -.1585E+00   D at   36  2
       a =  0.000      CL =  0.6455
      Cm = -0.1370     CD =  0.01156   =>   CDf =  0.00728    CDp =  0.00428

 Side 1  free  transition at x/c =  0.6220   63
 Side 2  free  transition at x/c =  0.1393   36

 121   rms: 0.1200E-01   max: -.1585E+00   D at   36  2
       a =  0.000      CL =  0.6455
      Cm = -0.1370     CD =  0.01156   =>   CDf =  0.00728    CDp =  0.00428

 Side 1  free  transition at x/c =  0.6220   63
 Side 2  free  transition at x/c =  0.1393   36

 122   rms: 0.1200E-01   max: -.1585E+00   D at   36  2
       a =  0.000      CL =  0.6455
      Cm = -0.1370     CD =  0.01156   =>   CDf =  0.00728    CDp =  0.00428

 Side 1  free  transition at x/c =  0.6220   63
 Side 2  free  transition at x/c =  0.1393   36

 123   rms: 0.1200E-01   max: -.1585E+00   D at   36  2
       a =  0.000      CL =  0.6455
      Cm = -0.1370     CD =  0.01156   =>   CDf =  0.00728    CDp =  0.00428

 Side 1  free  transition at x/c =  0.6220   63
 Side 2  free  transition at x/c =  0.1393   36

 124   rms: 0.1200E-01   max: -.1585E+00   D at   36  2
       a =  0.000      CL =  0.6455
      Cm = -0.1370     CD =  0.01156   =>   CDf =  0.00728    CDp =  0.00428

 Side 1  free  transition at x/c =  0.6220   63
 Side 2  free  transition at x/c =  0.1393   36

 125   rms: 0.1200E-01   max: -.1585E+00   D at   36  2
       a =  0.000      CL =  0.6455
      Cm = -0.1370     CD =  0.01156   =>   CDf =  0.00728    CDp =  0.00428

 Side 1  free  transition at x/c =  0.6220   63
 Side 2  free  transition at x/c =  0.1393   36

 126   rms: 0.1200E-01   max: -.1585E+00   D at   36  2
       a =  0.000      CL =  0.6455
      Cm = -0.1370     CD =  0.01156   =>   CDf =  0.00728    CDp =  0.00428

 Side 1  free  transition at x/c =  0.6220   63
 Side 2  free  transition at x/c =  0.1393   36

 127   rms: 0.1200E-01   max: -.1585E+00   D at   36  2
       a =  0.000      CL =  0.6455
      Cm = -0.1370     CD =  0.01156   =>   CDf =  0.00728    CDp =  0.00428

 Side 1  free  transition at x/c =  0.6220   63
 Side 2  free  transition at x/c =  0.1393   36

 128   rms: 0.1200E-01   max: -.1585E+00   D at   36  2
       a =  0.000      CL =  0.6455
      Cm = -0.1370     CD =  0.01156   =>   CDf =  0.00728    CDp =  0.00428

 Side 1  free  transition at x/c =  0.6220   63
 Side 2  free  transition at x/c =  0.1393   36

 129   rms: 0.1200E-01   max: -.1585E+00   D at   36  2
       a =  0.000      CL =  0.6455
      Cm = -0.1370     CD =  0.01156   =>   CDf =  0.00728    CDp =  0.00428

 Side 1  free  transition at x/c =  0.6220   63
 Side 2  free  transition at x/c =  0.1393   36

 130   rms: 0.1200E-01   max: -.1585E+00   D at   36  2
       a =  0.000      CL =  0.6455
      Cm = -0.1370     CD =  0.01156   =>   CDf =  0.00728    CDp =  0.00428

 Side 1  free  transition at x/c =  0.6220   63
 Side 2  free  transition at x/c =  0.1393   36

 131   rms: 0.1200E-01   max: -.1585E+00   D at   36  2
       a =  0.000      CL =  0.6455
      Cm = -0.1370     CD =  0.01156   =>   CDf =  0.00728    CDp =  0.00428

 Side 1  free  transition at x/c =  0.6220   63
 Side 2  free  transition at x/c =  0.1393   36

 132   rms: 0.1200E-01   max: -.1585E+00   D at   36  2
       a =  0.000      CL =  0.6455
      Cm = -0.1370     CD =  0.01156   =>   CDf =  0.00728    CDp =  0.00428

 Side 1  free  transition at x/c =  0.6220   63
 Side 2  free  transition at x/c =  0.1393   36

 133   rms: 0.1200E-01   max: -.1585E+00   D at   36  2
       a =  0.000      CL =  0.6455
      Cm = -0.1370     CD =  0.01156   =>   CDf =  0.00728    CDp =  0.00428

 Side 1  free  transition at x/c =  0.6220   63
 Side 2  free  transition at x/c =  0.1393   36

 134   rms: 0.1200E-01   max: -.1585E+00   D at   36  2
       a =  0.000      CL =  0.6455
      Cm = -0.1370     CD =  0.01156   =>   CDf =  0.00728    CDp =  0.00428

 Side 1  free  transition at x/c =  0.6220   63
 Side 2  free  transition at x/c =  0.1393   36

 135   rms: 0.1200E-01   max: -.1585E+00   D at   36  2
       a =  0.000      CL =  0.6455
      Cm = -0.1370     CD =  0.01156   =>   CDf =  0.00728    CDp =  0.00428

 Side 1  free  transition at x/c =  0.6220   63
 Side 2  free  transition at x/c =  0.1393   36

 136   rms: 0.1200E-01   max: -.1585E+00   D at   36  2
       a =  0.000      CL =  0.6455
      Cm = -0.1370     CD =  0.01156   =>   CDf =  0.00728    CDp =  0.00428

 Side 1  free  transition at x/c =  0.6220   63
 Side 2  free  transition at x/c =  0.1393   36

 137   rms: 0.1200E-01   max: -.1585E+00   D at   36  2
       a =  0.000      CL =  0.6455
      Cm = -0.1370     CD =  0.01156   =>   CDf =  0.00728    CDp =  0.00428

 Side 1  free  transition at x/c =  0.6220   63
 Side 2  free  transition at x/c =  0.1393   36

 138   rms: 0.1200E-01   max: -.1585E+00   D at   36  2
       a =  0.000      CL =  0.6455
      Cm = -0.1370     CD =  0.01156   =>   CDf =  0.00728    CDp =  0.00428

 Side 1  free  transition at x/c =  0.6220   63
 Side 2  free  transition at x/c =  0.1393   36

 139   rms: 0.1200E-01   max: -.1585E+00   D at   36  2
       a =  0.000      CL =  0.6455
      Cm = -0.1370     CD =  0.01156   =>   CDf =  0.00728    CDp =  0.00428

 Side 1  free  transition at x/c =  0.6220   63
 Side 2  free  transition at x/c =  0.1393   36

 140   rms: 0.1200E-01   max: -.1585E+00   D at   36  2
       a =  0.000      CL =  0.6455
      Cm = -0.1370     CD =  0.01156   =>   CDf =  0.00728    CDp =  0.00428

 Side 1  free  transition at x/c =  0.6220   63
 Side 2  free  transition at x/c =  0.1393   36

 141   rms: 0.1200E-01   max: -.1585E+00   D at   36  2
       a =  0.000      CL =  0.6455
      Cm = -0.1370     CD =  0.01156   =>   CDf =  0.00728    CDp =  0.00428

 Side 1  free  transition at x/c =  0.6220   63
 Side 2  free  transition at x/c =  0.1393   36

 142   rms: 0.1200E-01   max: -.1585E+00   D at   36  2
       a =  0.000      CL =  0.6455
      Cm = -0.1370     CD =  0.01156   =>   CDf =  0.00728    CDp =  0.00428

 Side 1  free  transition at x/c =  0.6220   63
 Side 2  free  transition at x/c =  0.1393   36

 143   rms: 0.1200E-01   max: -.1585E+00   D at   36  2
       a =  0.000      CL =  0.6455
      Cm = -0.1370     CD =  0.01156   =>   CDf =  0.00728    CDp =  0.00428

 Side 1  free  transition at x/c =  0.6220   63
 Side 2  free  transition at x/c =  0.1393   36

 144   rms: 0.1200E-01   max: -.1585E+00   D at   36  2
       a =  0.000      CL =  0.6455
      Cm = -0.1370     CD =  0.01156   =>   CDf =  0.00728    CDp =  0.00428

 Side 1  free  transition at x/c =  0.6220   63
 Side 2  free  transition at x/c =  0.1393   36

 145   rms: 0.1200E-01   max: -.1585E+00   D at   36  2
       a =  0.000      CL =  0.6455
      Cm = -0.1370     CD =  0.01156   =>   CDf =  0.00728    CDp =  0.00428

 Side 1  free  transition at x/c =  0.6220   63
 Side 2  free  transition at x/c =  0.1393   36

 146   rms: 0.1200E-01   max: -.1585E+00   D at   36  2
       a =  0.000      CL =  0.6455
      Cm = -0.1370     CD =  0.01156   =>   CDf =  0.00728    CDp =  0.00428

 Side 1  free  transition at x/c =  0.6220   63
 Side 2  free  transition at x/c =  0.1393   36

 147   rms: 0.1200E-01   max: -.1585E+00   D at   36  2
       a =  0.000      CL =  0.6455
      Cm = -0.1370     CD =  0.01156   =>   CDf =  0.00728    CDp =  0.00428

 Side 1  free  transition at x/c =  0.6220   63
 Side 2  free  transition at x/c =  0.1393   36

 148   rms: 0.1200E-01   max: -.1585E+00   D at   36  2
       a =  0.000      CL =  0.6455
      Cm = -0.1370     CD =  0.01156   =>   CDf =  0.00728    CDp =  0.00428

 Side 1  free  transition at x/c =  0.6220   63
 Side 2  free  transition at x/c =  0.1393   36

 149   rms: 0.1200E-01   max: -.1585E+00   D at   36  2
       a =  0.000      CL =  0.6455
      Cm = -0.1370     CD =  0.01156   =>   CDf =  0.00728    CDp =  0.00428

 Side 1  free  transition at x/c =  0.6220   63
 Side 2  free  transition at x/c =  0.1393   36

 150   rms: 0.1200E-01   max: -.1585E+00   D at   36  2
       a =  0.000      CL =  0.6455
      Cm = -0.1370     CD =  0.01156   =>   CDf =  0.00728    CDp =  0.00428

 Side 1  free  transition at x/c =  0.6220   63
 Side 2  free  transition at x/c =  0.1393   36

 151   rms: 0.1200E-01   max: -.1585E+00   D at   36  2
       a =  0.000      CL =  0.6455
      Cm = -0.1370     CD =  0.01156   =>   CDf =  0.00728    CDp =  0.00428

 Side 1  free  transition at x/c =  0.6220   63
 Side 2  free  transition at x/c =  0.1393   36

 152   rms: 0.1200E-01   max: -.1585E+00   D at   36  2
       a =  0.000      CL =  0.6455
      Cm = -0.1370     CD =  0.01156   =>   CDf =  0.00728    CDp =  0.00428

 Side 1  free  transition at x/c =  0.6220   63
 Side 2  free  transition at x/c =  0.1393   36

 153   rms: 0.1200E-01   max: -.1585E+00   D at   36  2
       a =  0.000      CL =  0.6455
      Cm = -0.1370     CD =  0.01156   =>   CDf =  0.00728    CDp =  0.00428

 Side 1  free  transition at x/c =  0.6220   63
 Side 2  free  transition at x/c =  0.1393   36

 154   rms: 0.1200E-01   max: -.1585E+00   D at   36  2
       a =  0.000      CL =  0.6455
      Cm = -0.1370     CD =  0.01156   =>   CDf =  0.00728    CDp =  0.00428

 Side 1  free  transition at x/c =  0.6220   63
 Side 2  free  transition at x/c =  0.1393   36

 155   rms: 0.1200E-01   max: -.1585E+00   D at   36  2
       a =  0.000      CL =  0.6455
      Cm = -0.1370     CD =  0.01156   =>   CDf =  0.00728    CDp =  0.00428
 VISCAL:  Convergence failed
 Calculating wake trajectory ...
 Calculating source influence matrix ...

 Solving BL system ...

 Side 1  free  transition at x/c =  0.6220   63
 Side 2  free  transition at x/c =  0.1393   36

   1   rms: 0.7141E-01   max: -.1804E+00   T at   36  2
       a =  0.500      CL =  0.6999
      Cm = -0.1368     CD =  0.01147   =>   CDf =  0.00725    CDp =  0.00422

 Side 1  free  transition at x/c =  0.6142   64
 Side 2  free  transition at x/c =  0.1431   36

   2   rms: 0.1489E-01   max: -.1778E+00   D at   35  2
       a =  0.500      CL =  0.6992
      Cm = -0.1367     CD =  0.01138   =>   CDf =  0.00727    CDp =  0.00411

 Side 1  free  transition at x/c =  0.6151   64
 Side 2  free  transition at x/c =  0.1455   36

   3   rms: 0.2646E-02   max: 0.3024E-01   C at   36  2
       a =  0.500      CL =  0.6994
      Cm = -0.1367     CD =  0.01140   =>   CDf =  0.00723    CDp =  0.00417

 Side 1  free  transition at x/c =  0.6150   64
 Side 2  free  transition at x/c =  0.1451   36

   4   rms: 0.1776E-04   max: -.2491E-03   D at   37  2
       a =  0.500      CL =  0.6994
      Cm = -0.1367     CD =  0.01140   =>   CDf =  0.00723    CDp =  0.00417
 plradd ia,ip,cpol            9           0  0.21910454    

 Point added to stored polar  1
 Point written to save file  goe798_Re600k.base.pol                          
 Dump file unspecified or not available
 Calculating wake trajectory ...
 Calculating source influence matrix ...

 Solving BL system ...

 Side 1  free  transition at x/c =  0.6150   64
 Side 2  free  transition at x/c =  0.1451   36

   1   rms: 0.7198E-01   max: -.2144E+00   T at   36  2
       a =  1.000      CL =  0.7537
      Cm = -0.1366     CD =  0.01131   =>   CDf =  0.00719    CDp =  0.00413

 Side 1  free  transition at x/c =  0.6082   64
 Side 2  free  transition at x/c =  0.1515   35

   2   rms: 0.7576E-02   max: -.1200E+00   C at   35  2
       a =  1.000      CL =  0.7543
      Cm = -0.1367     CD =  0.01139   =>   CDf =  0.00726    CDp =  0.00413

 Side 1  free  transition at x/c =  0.6079   64
 Side 2  free  transition at x/c =  0.1526   35

   3   rms: 0.1635E-03   max: -.2707E-02   D at   36  2
       a =  1.000      CL =  0.7543
      Cm = -0.1367     CD =  0.01139   =>   CDf =  0.00724    CDp =  0.00415

 Side 1  free  transition at x/c =  0.6079   64
 Side 2  free  transition at x/c =  0.1525   35

   4   rms: 0.6853E-06   max: -.3665E-05   D at    4  2
       a =  1.000      CL =  0.7543
      Cm = -0.1367     CD =  0.01139   =>   CDf =  0.00724    CDp =  0.00415
 plradd ia,ip,cpol           10           0  0.21910454    

 Point added to stored polar  1
 Point written to save file  goe798_Re600k.base.pol                          
 Dump file unspecified or not available
 Calculating wake trajectory ...
 Calculating source influence matrix ...

 Solving BL system ...

 Side 1  free  transition at x/c =  0.6079   64
 Side 2  free  transition at x/c =  0.1525   35

   1   rms: 0.6954E-01   max: -.1942E+00   T at   35  2
       a =  1.500      CL =  0.8061
      Cm = -0.1360     CD =  0.01130   =>   CDf =  0.00719    CDp =  0.00411

 Side 1  free  transition at x/c =  0.5995   65
 Side 2  free  transition at x/c =  0.1646   35

   2   rms: 0.2520E-01   max: -.3146E+00   D at   35  2
       a =  1.500      CL =  0.8061
      Cm = -0.1360     CD =  0.01127   =>   CDf =  0.00716    CDp =  0.00411

 Side 1  free  transition at x/c =  0.6003   65
 Side 2  free  transition at x/c =  0.1900   37

   3   rms: 0.5850E-02   max: -.1063E+00   D at   36  2
       a =  1.500      CL =  0.8058
      Cm = -0.1360     CD =  0.01120   =>   CDf =  0.00703    CDp =  0.00417

 Side 1  free  transition at x/c =  0.6003   65
 Side 2  free  transition at x/c =  0.1896   37

   4   rms: 0.1548E-02   max: 0.3463E-01   C at   37  2
       a =  1.500      CL =  0.8059
      Cm = -0.1360     CD =  0.01121   =>   CDf =  0.00702    CDp =  0.00419

 Side 1  free  transition at x/c =  0.6003   65
 Side 2  free  transition at x/c =  0.1887   37

   5   rms: 0.1891E-04   max: -.4064E-03   C at   37  2
       a =  1.500      CL =  0.8059
      Cm = -0.1360     CD =  0.01121   =>   CDf =  0.00702    CDp =  0.00418
 plradd ia,ip,cpol           11           0  0.21910454    

 Point added to stored polar  1
 Point written to save file  goe798_Re600k.base.pol                          
 Dump file unspecified or not available
 Calculating wake trajectory ...
 Calculating source influence matrix ...

 Solving BL system ...

 Side 1  free  transition at x/c =  0.6003   65
 Side 2  free  transition at x/c =  0.1887   37

   1   rms: 0.1733E+00   max: -.3449E+01   C at   37  2   RLX: 0.145
       a =  2.000      CL =  0.8131
      Cm = -0.1359     CD =  0.01116   =>   CDf =  0.00703    CDp =  0.00413

 Side 1  free  transition at x/c =  0.5991   65
 Side 2  free  transition at x/c =  0.1998   37

   2   rms: 0.1016E+00   max: -.1864E+01   C at   37  2   RLX: 0.268
       a =  2.000      CL =  0.8253
      Cm = -0.1358     CD =  0.01116   =>   CDf =  0.00700    CDp =  0.00416

 Side 1  free  transition at x/c =  0.5972   65
 Side 2  free  transition at x/c =  0.2369   39

   3   rms: 0.5081E-01   max: -.2421E+00   T at   39  2
       a =  2.000      CL =  0.8575
      Cm = -0.1354     CD =  0.01110   =>   CDf =  0.00680    CDp =  0.00430

 Side 1  free  transition at x/c =  0.5916   66
 Side 2  free  transition at x/c =  0.3220   42

   4   rms: 0.8125E-01   max: -.1876E+01   C at   42  2   RLX: 0.267
       a =  2.000      CL =  0.8533
      Cm = -0.1352     CD =  0.01091   =>   CDf =  0.00670    CDp =  0.00421

 Side 1  free  transition at x/c =  0.5917   66
 Side 2  free  transition at x/c =  0.3259   43

   5   rms: 0.3309E-01   max: -.4903E+00   C at   43  2
       a =  2.000      CL =  0.8556
      Cm = -0.1353     CD =  0.01080   =>   CDf =  0.00669    CDp =  0.00411

 Side 1  free  transition at x/c =  0.5920   66
 Side 2  free  transition at x/c =  0.3342   43

   6   rms: 0.5488E-02   max: 0.1136E+00   C at   43  2
       a =  2.000      CL =  0.8561
      Cm = -0.1353     CD =  0.01089   =>   CDf =  0.00662    CDp =  0.00427

 Side 1  free  transition at x/c =  0.5919   66
 Side 2  free  transition at x/c =  0.3279   43

   7   rms: 0.6768E-03   max: -.1299E-01   C at   43  2
       a =  2.000      CL =  0.8561
      Cm = -0.1353     CD =  0.01089   =>   CDf =  0.00664    CDp =  0.00425

 Side 1  free  transition at x/c =  0.5919   66
 Side 2  free  transition at x/c =  0.3283   43

   8   rms: 0.3651E-05   max: 0.7464E-04   C at   43  2
       a =  2.000      CL =  0.8561
      Cm = -0.1353     CD =  0.01089   =>   CDf =  0.00664    CDp =  0.00425
 plradd ia,ip,cpol           12           0  0.21910454    

 Point added to stored polar  1
 Point written to save file  goe798_Re600k.base.pol                          
 Dump file unspecified or not available
 Calculating wake trajectory ...
 Calculating source influence matrix ...

 Solving BL system ...

 Side 1  free  transition at x/c =  0.5919   66
 Side 2  free  transition at x/c =  0.3282   43

   1   rms: 0.2373E+00   max: -.4740E+01   C at   43  2   RLX: 0.105
       a =  2.500      CL =  0.8614
      Cm = -0.1353     CD =  0.01084   =>   CDf =  0.00664    CDp =  0.00421

 Side 1  free  transition at x/c =  0.5910   66
 Side 2  free  transition at x/c =  0.3452   43

   2   rms: 0.2628E+00   max: -.5988E+01   C at   43  2   RLX: 0.084
       a =  2.500      CL =  0.8656
      Cm = -0.1353     CD =  0.01085   =>   CDf =  0.00660    CDp =  0.00425

 Side 1  free  transition at x/c =  0.5903   66
 Side 2  free  transition at x/c =  0.3596   44

   3   rms: 0.2541E+00   max: -.5737E+01   C at   44  2   RLX: 0.087
       a =  2.500      CL =  0.8694
      Cm = -0.1353     CD =  0.01082   =>   CDf =  0.00656    CDp =  0.00426

 Side 1  free  transition at x/c =  0.5896   65
 Side 2  free  transition at x/c =  0.3742   45

   4   rms: 0.2277E+00   max: -.4921E+01   C at   45  2   RLX: 0.102
       a =  2.500      CL =  0.8728
      Cm = -0.1352     CD =  0.01076   =>   CDf =  0.00652    CDp =  0.00424

 Side 1  free  transition at x/c =  0.5891   65
 Side 2  free  transition at x/c =  0.3909   45

   5   rms: 0.2714E+00   max: -.6180E+01   C at   45  2   RLX: 0.081
       a =  2.500      CL =  0.8754
      Cm = -0.1351     CD =  0.01074   =>   CDf =  0.00646    CDp =  0.00428

 Side 1  free  transition at x/c =  0.5887   65
 Side 2  free  transition at x/c =  0.4058   46

   6   rms: 0.2510E+00   max: -.5725E+01   C at   46  2   RLX: 0.087
       a =  2.500      CL =  0.8777
      Cm = -0.1350     CD =  0.01069   =>   CDf =  0.00641    CDp =  0.00428

 Side 1  free  transition at x/c =  0.5882   65
 Side 2  free  transition at x/c =  0.4213   47

   7   rms: 0.2342E+00   max: -.5241E+01   C at   47  2   RLX: 0.095
       a =  2.500      CL =  0.8801
      Cm = -0.1349     CD =  0.01064   =>   CDf =  0.00636    CDp =  0.00428

 Side 1  free  transition at x/c =  0.5878   65
 Side 2  free  transition at x/c =  0.4378   47

   8   rms: 0.2698E+00   max: -.6067E+01   C at   47  2   RLX: 0.082
       a =  2.500      CL =  0.8820
      Cm = -0.1349     CD =  0.01061   =>   CDf =  0.00631    CDp =  0.00431

 Side 1  free  transition at x/c =  0.5874   65
 Side 2  free  transition at x/c =  0.4538   48

   9   rms: 0.2403E+00   max: -.5453E+01   C at   48  2   RLX: 0.092
       a =  2.500      CL =  0.8838
      Cm = -0.1348     CD =  0.01057   =>   CDf =  0.00625    CDp =  0.00431

 Side 1  free  transition at x/c =  0.5870   65
 Side 2  free  transition at x/c =  0.4708   49

  10   rms: 0.2181E+00   max: -.4944E+01   C at   49  2   RLX: 0.101
       a =  2.500      CL =  0.8855
      Cm = -0.1347     CD =  0.01052   =>   CDf =  0.00620    CDp =  0.00432

 Side 1  free  transition at x/c =  0.5866   65
 Side 2  free  transition at x/c =  0.4870   50

  11   rms: 0.1826E+00   max: -.3985E+01   C at   50  2   RLX: 0.125
       a =  2.500      CL =  0.8875
      Cm = -0.1346     CD =  0.01047   =>   CDf =  0.00615    CDp =  0.00431

 Side 1  free  transition at x/c =  0.5862   65
 Side 2  free  transition at x/c =  0.5044   50

  12   rms: 0.2044E+00   max: -.4553E+01   C at   50  2   RLX: 0.110
       a =  2.500      CL =  0.8891
      Cm = -0.1345     CD =  0.01044   =>   CDf =  0.00610    CDp =  0.00435

 Side 1  free  transition at x/c =  0.5858   65
 Side 2  free  transition at x/c =  0.5204   51

  13   rms: 0.1716E+00   max: -.3864E+01   C at   51  2   RLX: 0.129
       a =  2.500      CL =  0.8906
      Cm = -0.1344     CD =  0.01039   =>   CDf =  0.00604    CDp =  0.00435

 Side 1  free  transition at x/c =  0.5854   65
 Side 2  free  transition at x/c =  0.5372   52

  14   rms: 0.1444E+00   max: -.3224E+01   C at   52  2   RLX: 0.155
       a =  2.500      CL =  0.8921
      Cm = -0.1343     CD =  0.01034   =>   CDf =  0.00599    CDp =  0.00435

 Side 1  free  transition at x/c =  0.5851   65
 Side 2  free  transition at x/c =  0.5541   52

  15   rms: 0.1439E+00   max: -.3141E+01   C at   52  2   RLX: 0.159
       a =  2.500      CL =  0.8935
      Cm = -0.1343     CD =  0.01032   =>   CDf =  0.00594    CDp =  0.00438

 Side 1  free  transition at x/c =  0.5847   65
 Side 2  free  transition at x/c =  0.5719   53

  16   rms: 0.1134E+00   max: -.2505E+01   C at   53  2   RLX: 0.200
       a =  2.500      CL =  0.8948
      Cm = -0.1341     CD =  0.01027   =>   CDf =  0.00589    CDp =  0.00438

 Side 1  free  transition at x/c =  0.5844   65
 Side 2  free  transition at x/c =  0.5908   54

  17   rms: 0.8688E-01   max: -.1931E+01   C at   54  2   RLX: 0.259
       a =  2.500      CL =  0.8961
      Cm = -0.1339     CD =  0.01022   =>   CDf =  0.00583    CDp =  0.00439

 Side 1  free  transition at x/c =  0.5840   65
 Side 2  free  transition at x/c =  0.6100   55

  18   rms: 0.6233E-01   max: -.1385E+01   C at   55  2   RLX: 0.361
       a =  2.500      CL =  0.8973
      Cm = -0.1338     CD =  0.01016   =>   CDf =  0.00577    CDp =  0.00440

 Side 1  free  transition at x/c =  0.5836   65
 Side 2  free  transition at x/c =  0.6272   56

  19   rms: 0.3931E-01   max: -.8598E+00   C at   56  2   RLX: 0.582
       a =  2.500      CL =  0.8986
      Cm = -0.1336     CD =  0.01011   =>   CDf =  0.00572    CDp =  0.00439

 Side 1  free  transition at x/c =  0.5832   65
 Side 2  free  transition at x/c =  0.6449   56

  20   rms: 0.2326E-01   max: -.5036E+00   C at   56  2   RLX: 0.993
       a =  2.500      CL =  0.8995
      Cm = -0.1334     CD =  0.01008   =>   CDf =  0.00566    CDp =  0.00443

 Side 1  free  transition at x/c =  0.5829   65
 Side 2  free  transition at x/c =  0.6638   57

  21   rms: 0.1001E-02   max: 0.1905E-01   C at   57  2
       a =  2.500      CL =  0.8994
      Cm = -0.1334     CD =  0.01008   =>   CDf =  0.00560    CDp =  0.00448

 Side 1  free  transition at x/c =  0.5829   65
 Side 2  free  transition at x/c =  0.6633   57

  22   rms: 0.2114E-04   max: -.4602E-03   C at   57  2
       a =  2.500      CL =  0.8994
      Cm = -0.1334     CD =  0.01008   =>   CDf =  0.00560    CDp =  0.00448
 plradd ia,ip,cpol           13           0  0.21910454    

 Point added to stored polar  1
 Point written to save file  goe798_Re600k.base.pol                          
 Dump file unspecified or not available
 Calculating wake trajectory ...
 Calculating source influence matrix ...

 Solving BL system ...

 Side 1  free  transition at x/c =  0.5829   65
 Side 2  free  transition at x/c =  0.6633   57

   1   rms: 0.5125E+00   max: -.1115E+02   C at   57  2   RLX: 0.045
[...]

 Side 1  free  transition at x/c =  0.3055   63
 Side 2 forced transition at x/c =  1.0000   61

   2   rms: 0.1072E-01   max: 0.5838E-01   T at    2  1
       a = 12.750      CL =  1.5631
      Cm = -0.0776     CD =  0.03457   =>   CDf =  0.00574    CDp =  0.02883

 Side 1  free  transition at x/c =  0.3045   63
 Side 2 forced transition at x/c =  1.0000   61

   3   rms: 0.3528E-03   max: 0.2027E-02   D at   73  2
       a = 12.750      CL =  1.5628
      Cm = -0.0775     CD =  0.03455   =>   CDf =  0.00573    CDp =  0.02882

 Side 1  free  transition at x/c =  0.3045   63
 Side 2 forced transition at x/c =  1.0000   61

   4   rms: 0.7787E-05   max: 0.5635E-04   D at   73  2
       a = 12.750      CL =  1.5628
      Cm = -0.0775     CD =  0.03455   =>   CDf =  0.00573    CDp =  0.02882
 plradd ia,ip,cpol           40           0  8.04669708E-02

 Point added to stored polar  1
 Point written to save file  goe798_Re600k.base.pol                          
 Dump file unspecified or not available
 Calculating wake trajectory ...
 Calculating source influence matrix ...

 Solving BL system ...

 Side 1  free  transition at x/c =  0.3045   63
 Side 2 forced transition at x/c =  1.0000   61

   1   rms: 0.2905E-01   max: -.8889E-01   D at   63  1   RLX: 0.632
       a = 13.000      CL =  1.5713
      Cm = -0.0770     CD =  0.03529   =>   CDf =  0.00573    CDp =  0.02955

 Side 1  free  transition at x/c =  0.3026   63
 Side 2 forced transition at x/c =  1.0000   61

   2   rms: 0.1061E-01   max: -.3407E-01   D at   63  1
       a = 13.000      CL =  1.5751
      Cm = -0.0766     CD =  0.03573   =>   CDf =  0.00574    CDp =  0.02999

 Side 1  free  transition at x/c =  0.3012   63
 Side 2 forced transition at x/c =  1.0000   61

   3   rms: 0.3366E-03   max: -.3040E-02   D at   63  1
       a = 13.000      CL =  1.5748
      Cm = -0.0765     CD =  0.03570   =>   CDf =  0.00574    CDp =  0.02995

 Side 1  free  transition at x/c =  0.3012   63
 Side 2 forced transition at x/c =  1.0000   61

   4   rms: 0.5058E-05   max: -.2587E-04   D at   63  1
       a = 13.000      CL =  1.5748
      Cm = -0.0765     CD =  0.03570   =>   CDf =  0.00574    CDp =  0.02995
 plradd ia,ip,cpol           41           0  7.30860457E-02

 Point added to stored polar  1
 Point written to save file  goe798_Re600k.base.pol                          
 Dump file unspecified or not available
 Calculating wake trajectory ...
 Calculating source influence matrix ...

 Solving BL system ...

 Side 1  free  transition at x/c =  0.3012   63
 Side 2 forced transition at x/c =  1.0000   61

   1   rms: 0.2884E-01   max: 0.5298E-01   D at   75  2   RLX: 0.617
       a = 13.250      CL =  1.5831
      Cm = -0.0760     CD =  0.03637   =>   CDf =  0.00575    CDp =  0.03063

 Side 1  free  transition at x/c =  0.2990   62
 Side 2 forced transition at x/c =  1.0000   61

   2   rms: 0.1143E-01   max: -.5979E-01   C at   62  1
       a = 13.250      CL =  1.5887
      Cm = -0.0758     CD =  0.03678   =>   CDf =  0.00576    CDp =  0.03102

 Side 1  free  transition at x/c =  0.2982   62
 Side 2 forced transition at x/c =  1.0000   61

   3   rms: 0.1919E-03   max: -.1650E-02   D at   84  1
       a = 13.250      CL =  1.5886
      Cm = -0.0758     CD =  0.03673   =>   CDf =  0.00572    CDp =  0.03102

 Side 1  free  transition at x/c =  0.2982   62
 Side 2 forced transition at x/c =  1.0000   61

   4   rms: 0.9146E-05   max: -.5879E-04   D at   73  2
       a = 13.250      CL =  1.5886
      Cm = -0.0758     CD =  0.03673   =>   CDf =  0.00572    CDp =  0.03102
 plradd ia,ip,cpol           42           0  7.30860457E-02

 Point added to stored polar  1
 Point written to save file  goe798_Re600k.base.pol                          
 Dump file unspecified or not available
 Calculating wake trajectory ...
 Calculating source influence matrix ...

 Solving BL system ...

 Side 1  free  transition at x/c =  0.2982   62
 Side 2 forced transition at x/c =  1.0000   61

   1   rms: 0.2927E-01   max: -.1044E+00   C at   62  1   RLX: 0.606
       a = 13.500      CL =  1.5976
      Cm = -0.0755     CD =  0.03746   =>   CDf =  0.00572    CDp =  0.03174

 Side 1  free  transition at x/c =  0.2968   62
 Side 2 forced transition at x/c =  1.0000   61

   2   rms: 0.1132E-01   max: 0.1887E-01   D at   76  2
       a = 13.500      CL =  1.6032
      Cm = -0.0752     CD =  0.03786   =>   CDf =  0.00567    CDp =  0.03219

 Side 1  free  transition at x/c =  0.2957   62
 Side 2 forced transition at x/c =  1.0000   61

   3   rms: 0.3121E-03   max: 0.3098E-02   D at   73  2
       a = 13.500      CL =  1.6029
      Cm = -0.0752     CD =  0.03784   =>   CDf =  0.00564    CDp =  0.03220

 Side 1  free  transition at x/c =  0.2957   62
 Side 2 forced transition at x/c =  1.0000   61

   4   rms: 0.4232E-05   max: 0.6501E-04   D at   73  2
       a = 13.500      CL =  1.6029
      Cm = -0.0752     CD =  0.03783   =>   CDf =  0.00564    CDp =  0.03219
 plradd ia,ip,cpol           43           0  7.30860457E-02

 Point added to stored polar  1
 Point written to save file  goe798_Re600k.base.pol                          
 Dump file unspecified or not available
 Calculating wake trajectory ...
 Calculating source influence matrix ...

 Solving BL system ...

 Side 1  free  transition at x/c =  0.2957   62
 Side 2 forced transition at x/c =  1.0000   61

   1   rms: 0.2901E-01   max: 0.4648E-01   D at   76  2   RLX: 0.594
       a = 13.750      CL =  1.6118
      Cm = -0.0749     CD =  0.03852   =>   CDf =  0.00548    CDp =  0.03304

 Side 1  free  transition at x/c =  0.2939   63
 Side 2 forced transition at x/c =  1.0000   60

   2   rms: 0.1194E-01   max: 0.2078E-01   D at   75  2
       a = 13.750      CL =  1.6171
      Cm = -0.0746     CD =  0.03898   =>   CDf =  0.00560    CDp =  0.03338

 Side 1  free  transition at x/c =  0.2926   63
 Side 2 forced transition at x/c =  1.0000   60

   3   rms: 0.6830E-03   max: 0.5417E-02   D at   84  1
       a = 13.750      CL =  1.6165
      Cm = -0.0746     CD =  0.03898   =>   CDf =  0.00558    CDp =  0.03340

 Side 1  free  transition at x/c =  0.2926   63
 Side 2 forced transition at x/c =  1.0000   60

   4   rms: 0.2197E-04   max: 0.1683E-03   D at   72  2
       a = 13.750      CL =  1.6165
      Cm = -0.0746     CD =  0.03898   =>   CDf =  0.00558    CDp =  0.03340
 plradd ia,ip,cpol           44           0  7.30860457E-02

 Point added to stored polar  1
 Point written to save file  goe798_Re600k.base.pol                          
 Dump file unspecified or not available
 Calculating wake trajectory ...
 Calculating source influence matrix ...

 Solving BL system ...

 Side 1  free  transition at x/c =  0.2926   63
 Side 2 forced transition at x/c =  1.0000   60

   1   rms: 0.2868E-01   max: 0.5077E-01   D at   75  2   RLX: 0.581
       a = 14.000      CL =  1.6242
      Cm = -0.0742     CD =  0.03974   =>   CDf =  0.00558    CDp =  0.03416

 Side 1  free  transition at x/c =  0.2907   63
 Side 2 forced transition at x/c =  1.0000   60

   2   rms: 0.1184E-01   max: -.3567E-01   D at   63  1
       a = 14.000      CL =  1.6287
      Cm = -0.0739     CD =  0.04029   =>   CDf =  0.00556    CDp =  0.03474

 Side 1  free  transition at x/c =  0.2893   63
 Side 2 forced transition at x/c =  1.0000   60

   3   rms: 0.3766E-03   max: 0.2293E-02   D at   72  2
       a = 14.000      CL =  1.6283
      Cm = -0.0738     CD =  0.04026   =>   CDf =  0.00554    CDp =  0.03472

 Side 1  free  transition at x/c =  0.2893   63
 Side 2 forced transition at x/c =  1.0000   60

   4   rms: 0.7539E-05   max: -.3680E-04   D at   82  1
       a = 14.000      CL =  1.6283
      Cm = -0.0738     CD =  0.04026   =>   CDf =  0.00554    CDp =  0.03472
 plradd ia,ip,cpol           45           0  7.30860457E-02

 Point added to stored polar  1
 Point written to save file  goe798_Re600k.base.pol                          
 Dump file unspecified or not available
 Calculating wake trajectory ...
 Calculating source influence matrix ...

 Solving BL system ...

 Side 1  free  transition at x/c =  0.2893   63
 Side 2 forced transition at x/c =  1.0000   60

   1   rms: 0.2864E-01   max: -.9323E-01   D at   63  1   RLX: 0.568
       a = 14.250      CL =  1.6352
      Cm = -0.0734     CD =  0.04105   =>   CDf =  0.00555    CDp =  0.03550

 Side 1  free  transition at x/c =  0.2873   63
 Side 2 forced transition at x/c =  1.0000   60

   2   rms: 0.1224E-01   max: -.5043E-01   D at   63  1
       a = 14.250      CL =  1.6394
      Cm = -0.0730     CD =  0.04165   =>   CDf =  0.00554    CDp =  0.03611

 Side 1  free  transition at x/c =  0.2858   63
 Side 2 forced transition at x/c =  1.0000   60

   3   rms: 0.5911E-03   max: 0.2880E-02   D at   72  2
       a = 14.250      CL =  1.6388
      Cm = -0.0730     CD =  0.04162   =>   CDf =  0.00554    CDp =  0.03609

 Side 1  free  transition at x/c =  0.2858   63
 Side 2 forced transition at x/c =  1.0000   60

   4   rms: 0.1362E-04   max: 0.9874E-04   D at   72  2
       a = 14.250      CL =  1.6388
      Cm = -0.0730     CD =  0.04162   =>   CDf =  0.00554    CDp =  0.03608
 plradd ia,ip,cpol           46           0  7.30860457E-02

 Point added to stored polar  1
 Point written to save file  goe798_Re600k.base.pol                          
 Dump file unspecified or not available
 Calculating wake trajectory ...
 Calculating source influence matrix ...

 Solving BL system ...

 Side 1  free  transition at x/c =  0.2858   63
 Side 2 forced transition at x/c =  1.0000   60

   1   rms: 0.2870E-01   max: -.1192E+00   D at   63  1   RLX: 0.554
       a = 14.500      CL =  1.6445
      Cm = -0.0725     CD =  0.04246   =>   CDf =  0.00554    CDp =  0.03692

 Side 1  free  transition at x/c =  0.2837   63
 Side 2 forced transition at x/c =  1.0000   60

   2   rms: 0.1270E-01   max: -.5447E-01   D at   63  1
       a = 14.500      CL =  1.6479
      Cm = -0.0720     CD =  0.04312   =>   CDf =  0.00538    CDp =  0.03774

 Side 1  free  transition at x/c =  0.2817   64
 Side 2 forced transition at x/c =  1.0000   59

   3   rms: 0.8627E-03   max: -.1047E-01   D at   64  1
       a = 14.500      CL =  1.6479
      Cm = -0.0719     CD =  0.04301   =>   CDf =  0.00555    CDp =  0.03745

 Side 1  free  transition at x/c =  0.2815   63
 Side 2 forced transition at x/c =  1.0000   59

   4   rms: 0.6390E-03   max: -.7485E-02   C at   63  1
       a = 14.500      CL =  1.6480
      Cm = -0.0719     CD =  0.04303   =>   CDf =  0.00556    CDp =  0.03747

 Side 1  free  transition at x/c =  0.2816   63
 Side 2 forced transition at x/c =  1.0000   59

   5   rms: 0.3068E-04   max: -.1665E-03   D at   83  1
       a = 14.500      CL =  1.6480
      Cm = -0.0719     CD =  0.04302   =>   CDf =  0.00555    CDp =  0.03747
 plradd ia,ip,cpol           47           0  7.30860457E-02

 Point added to stored polar  1
 Point written to save file  goe798_Re600k.base.pol                          
 Dump file unspecified or not available
 Calculating wake trajectory ...
 Calculating source influence matrix ...

 Solving BL system ...

 Side 1  free  transition at x/c =  0.2816   63
 Side 2 forced transition at x/c =  1.0000   59

   1   rms: 0.2955E-01   max: -.1625E+00   C at   63  1   RLX: 0.543
       a = 14.750      CL =  1.6548
      Cm = -0.0717     CD =  0.04386   =>   CDf =  0.00556    CDp =  0.03831

 Side 1  free  transition at x/c =  0.2801   63
 Side 2 forced transition at x/c =  1.0000   59

   2   rms: 0.1309E-01   max: -.5333E-01   C at   63  1
       a = 14.750      CL =  1.6604
      Cm = -0.0715     CD =  0.04446   =>   CDf =  0.00550    CDp =  0.03897

 Side 1  free  transition at x/c =  0.2785   63
 Side 2 forced transition at x/c =  1.0000   59

   3   rms: 0.3551E-03   max: 0.2668E-02   D at   72  2
       a = 14.750      CL =  1.6601
      Cm = -0.0714     CD =  0.04440   =>   CDf =  0.00545    CDp =  0.03895

 Side 1  free  transition at x/c =  0.2785   63
 Side 2 forced transition at x/c =  1.0000   59

   4   rms: 0.9139E-05   max: -.4645E-04   D at   74  2
       a = 14.750      CL =  1.6601
      Cm = -0.0714     CD =  0.04440   =>   CDf =  0.00545    CDp =  0.03895
 plradd ia,ip,cpol           48           0  6.62527010E-02

 Point added to stored polar  1
 Point written to save file  goe798_Re600k.base.pol                          
 Dump file unspecified or not available
 Calculating wake trajectory ...
 Calculating source influence matrix ...

 Solving BL system ...

 Side 1  free  transition at x/c =  0.2785   63
 Side 2 forced transition at x/c =  1.0000   59

   1   rms: 0.2872E-01   max: 0.8077E-01   T at   63  1   RLX: 0.533
       a = 15.000      CL =  1.6671
      Cm = -0.0712     CD =  0.04516   =>   CDf =  0.00546    CDp =  0.03970

 Side 1  free  transition at x/c =  0.2763   63
 Side 2 forced transition at x/c =  1.0000   59

   2   rms: 0.1319E-01   max: -.4722E-01   D at   63  1
       a = 15.000      CL =  1.6725
      Cm = -0.0709     CD =  0.04579   =>   CDf =  0.00542    CDp =  0.04037

 Side 1  free  transition at x/c =  0.2742   63
 Side 2 forced transition at x/c =  1.0000   59

   3   rms: 0.6678E-03   max: 0.3628E-02   D at   72  2
       a = 15.000      CL =  1.6718
      Cm = -0.0709     CD =  0.04577   =>   CDf =  0.00539    CDp =  0.04037

 Side 1  free  transition at x/c =  0.2742   63
 Side 2 forced transition at x/c =  1.0000   59

   4   rms: 0.1666E-04   max: 0.1368E-03   D at   72  2
       a = 15.000      CL =  1.6718
      Cm = -0.0708     CD =  0.04576   =>   CDf =  0.00539    CDp =  0.04037
 plradd ia,ip,cpol           49           0  6.62527010E-02

 Point added to stored polar  1
 Point written to save file  goe798_Re600k.base.pol                          
 Dump file unspecified or not available
 Calculating wake trajectory ...
 Calculating source influence matrix ...

 Solving BL system ...

 Side 1  free  transition at x/c =  0.2742   63
 Side 2 forced transition at x/c =  1.0000   59

   1   rms: 0.2856E-01   max: -.1043E+00   D at   63  1   RLX: 0.521
       a = 15.250      CL =  1.6777
      Cm = -0.0706     CD =  0.04658   =>   CDf =  0.00540    CDp =  0.04119

 Side 1  free  transition at x/c =  0.2717   63
 Side 2 forced transition at x/c =  1.0000   59

   2   rms: 0.1389E-01   max: -.6391E-01   D at   63  1
       a = 15.250      CL =  1.6807
      Cm = -0.0701     CD =  0.04749   =>   CDf =  0.00539    CDp =  0.04211

 Side 1  free  transition at x/c =  0.2695   63
 Side 2 forced transition at x/c =  1.0000   59

   3   rms: 0.1473E-02   max: 0.9506E-02   D at   83  1
       a = 15.250      CL =  1.6793
      Cm = -0.0700     CD =  0.04750   =>   CDf =  0.00538    CDp =  0.04212

 Side 1  free  transition at x/c =  0.2695   63
 Side 2 forced transition at x/c =  1.0000   59

   4   rms: 0.5545E-04   max: 0.6470E-03   D at   72  2
       a = 15.250      CL =  1.6792
      Cm = -0.0700     CD =  0.04749   =>   CDf =  0.00538    CDp =  0.04212
 plradd ia,ip,cpol           50           0  3.91645208E-02

 Point added to stored polar  1
 Point written to save file  goe798_Re600k.base.pol                          
 Dump file unspecified or not available
 Calculating wake trajectory ...
 Calculating source influence matrix ...

 Solving BL system ...

 Side 1  free  transition at x/c =  0.2695   63
 Side 2 forced transition at x/c =  1.0000   59

   1   rms: 0.2939E-01   max: -.1448E+00   D at   63  1   RLX: 0.507
       a = 15.500      CL =  1.6824
      Cm = -0.0696     CD =  0.04855   =>   CDf =  0.00538    CDp =  0.04317

 Side 1  free  transition at x/c =  0.2671   63
 Side 2 forced transition at x/c =  1.0000   59

   2   rms: 0.1470E-01   max: -.8010E-01   D at   63  1
       a = 15.500      CL =  1.6840
      Cm = -0.0690     CD =  0.04957   =>   CDf =  0.00520    CDp =  0.04437

 Side 1  free  transition at x/c =  0.2647   63
 Side 2 forced transition at x/c =  1.0000   58

   3   rms: 0.1343E-02   max: -.1461E-01   C at   63  1
       a = 15.500      CL =  1.6843
      Cm = -0.0690     CD =  0.04938   =>   CDf =  0.00538    CDp =  0.04400

 Side 1  free  transition at x/c =  0.2646   63
 Side 2 forced transition at x/c =  1.0000   58

   4   rms: 0.3513E-03   max: -.4125E-02   D at    4  1
       a = 15.500      CL =  1.6843
      Cm = -0.0690     CD =  0.04938   =>   CDf =  0.00538    CDp =  0.04400

 Side 1  free  transition at x/c =  0.2646   63
 Side 2 forced transition at x/c =  1.0000   58

   5   rms: 0.5997E-05   max: -.4020E-04   D at   71  2
       a = 15.500      CL =  1.6844
      Cm = -0.0690     CD =  0.04938   =>   CDf =  0.00538    CDp =  0.04400
 plradd ia,ip,cpol           51           0  3.91645208E-02

 Point added to stored polar  1
 Point written to save file  goe798_Re600k.base.pol                          
 Dump file unspecified or not available
 Calculating wake trajectory ...
 Calculating source influence matrix ...

 Solving BL system ...

 Side 1  free  transition at x/c =  0.2646   63
 Side 2 forced transition at x/c =  1.0000   58

   1   rms: 0.2956E-01   max: -.1810E+00   C at   63  1   RLX: 0.498
       a = 15.750      CL =  1.6915
      Cm = -0.0689     CD =  0.05006   =>   CDf =  0.00538    CDp =  0.04468

 Side 1  free  transition at x/c =  0.2622   63
 Side 2 forced transition at x/c =  1.0000   58

   2   rms: 0.1424E-01   max: -.5102E-01   D at   63  1
       a = 15.750      CL =  1.6974
      Cm = -0.0687     CD =  0.05078   =>   CDf =  0.00533    CDp =  0.04545

 Side 1  free  transition at x/c =  0.2590   63
 Side 2 forced transition at x/c =  1.0000   58

   3   rms: 0.1690E-02   max: 0.1050E-01   D at   83  1
       a = 15.750      CL =  1.6958
      Cm = -0.0685     CD =  0.05083   =>   CDf =  0.00530    CDp =  0.04553

 Side 1  free  transition at x/c =  0.2592   63
 Side 2 forced transition at x/c =  1.0000   58

   4   rms: 0.1043E-03   max: 0.6270E-03   D at   83  1
       a = 15.750      CL =  1.6957
      Cm = -0.0685     CD =  0.05082   =>   CDf =  0.00529    CDp =  0.04553

 Side 1  free  transition at x/c =  0.2592   63
 Side 2 forced transition at x/c =  1.0000   58

   5   rms: 0.4480E-05   max: 0.2852E-04   D at   71  2
       a = 15.750      CL =  1.6957
      Cm = -0.0685     CD =  0.05082   =>   CDf =  0.00529    CDp =  0.04553
 plradd ia,ip,cpol           52           0  3.49986181E-02

 Point added to stored polar  1
 Point written to save file  goe798_Re600k.base.pol                          
 Dump file unspecified or not available
 Calculating wake trajectory ...
 Calculating source influence matrix ...

 Solving BL system ...

 Side 1  free  transition at x/c =  0.2592   63
 Side 2 forced transition at x/c =  1.0000   58

   1   rms: 0.2886E-01   max: -.1199E+00   D at   63  1   RLX: 0.486
       a = 16.000      CL =  1.6997
      Cm = -0.0683     CD =  0.05180   =>   CDf =  0.00530    CDp =  0.04650

 Side 1  free  transition at x/c =  0.2556   63
 Side 2 forced transition at x/c =  1.0000   58

   2   rms: 0.1577E-01   max: -.8775E-01   D at   63  1
       a = 16.000      CL =  1.7004
      Cm = -0.0678     CD =  0.05308   =>   CDf =  0.00529    CDp =  0.04780

 Side 1  free  transition at x/c =  0.2518   63
 Side 2 forced transition at x/c =  1.0000   58

   3   rms: 0.1728E-02   max: 0.9167E-02   D at   64  1
       a = 16.000      CL =  1.6988
      Cm = -0.0676     CD =  0.05304   =>   CDf =  0.00530    CDp =  0.04774

 Side 1  free  transition at x/c =  0.2521   63
 Side 2 forced transition at x/c =  1.0000   58

   4   rms: 0.3739E-04   max: 0.2874E-03   D at   71  2
       a = 16.000      CL =  1.6987
      Cm = -0.0676     CD =  0.05303   =>   CDf =  0.00529    CDp =  0.04774
 plradd ia,ip,cpol           53           0  3.49986181E-02

 Point added to stored polar  1
 Point written to save file  goe798_Re600k.base.pol                          
 Dump file unspecified or not available

.OPERva   c>  
 Polar accumulation disabled

.OPERv   c>  
 XFOIL   c>  
 XFOIL   c>  