
 ===================================================
  XFOIL Version 6.99
  Copyright (C) 2000   Mark Drela, Harold Youngren

  This software comes with ABSOLUTELY NO WARRANTY,
    subject to the GNU General Public License.

  Caveat computor
 ===================================================

 File  xfoil.def  not found

   QUIT    Exit program

  .OPER    Direct operating point(s)
  .MDES    Complex mapping design routine
  .QDES    Surface speed design routine
  .GDES    Geometry design routine

   SAVE f  Write airfoil to labeled coordinate file
   PSAV f  Write airfoil to plain coordinate file
   ISAV f  Write airfoil to ISES coordinate file
   MSAV f  Write airfoil to MSES coordinate file
   REVE    Reverse written-airfoil node ordering

   LOAD f  Read buffer airfoil from coordinate file
   NACA i  Set NACA 4,5-digit airfoil and buffer airfoil
   INTE    Set buffer airfoil by interpolating two airfoils
   NORM    Buffer airfoil normalization toggle
   XYCM rr Change CM reference location, currently  0.25000 0.00000

   BEND    Display structural properties of current airfoil

   PCOP    Set current-airfoil panel nodes directly from buffer airfoil points
   PANE    Set current-airfoil panel nodes ( 160 ) based on curvature
  .PPAR    Show/change paneling

  .PLOP    Plotting options

   WDEF f  Write  current-settings file
   RDEF f  Reread current-settings file
   NAME s  Specify new airfoil name
   NINC    Increment name version number

   Z       Zoom    | (available in all menus)
   U       Unzoom  | 

 XFOIL   c>  
 Labeled airfoil file.  Name:  GOE 798 AIRFOIL                                 

 Number of input coordinate points:  31
 Counterclockwise ordering
 Max thickness =     0.199975  at x =   0.300
 Max camber    =     0.059306  at x =   0.400

  LE  x,y  =  -0.00004   0.00159  |   Chord =   1.00004
  TE  x,y  =   1.00000   0.00375  |

 Current airfoil nodes set from buffer airfoil nodes (  31 )

 WARNING: Poor input coordinate distribution
          Excessive panel angle   44.9  at i =  16
          Repaneling with PANE and/or PPAR suggested
           (doing GDES,CADD before repaneling _may_
            improve excessively coarse LE spacing

 XFOIL   c>  
 XFOIL   c>  
 Blunt trailing edge.  Gap =  0.00750

 Paneling parameters used...
   Number of panel nodes       160
   Panel bunching parameter    1.000
   TE/LE panel density ratio   0.150
   Refined-area/LE panel density ratio    0.200
   Top    side refined area x/c limits  1.000 1.000
   Bottom side refined area x/c limits  1.000 1.000

 XFOIL   c>  
.OPERi   c>  
 Xtr/c     =  1.0000    top    side
 Xtr/c     =  1.0000    bottom side
 Ncrit     =    9.00   ( 0.070 % turb. level )
 Vacc      =  0.0100

 Klag  =  5.6000     Uxwt  =    1.00
 A     =  6.7000     B     =  0.7500       KCt = 0.01485
 CtiniK=  1.8000     CtiniX=  3.3000

..VPAR   c>  
..VPAR   c>  
.OPERi   c>  
 M  =    0.0000
 Re =    500000

.OPERv   c>  
.OPERv   c>  
.OPERv   c>  
 Polar  1 newly created for accumulation
 Airfoil archived with polar: GOE 798 AIRFOIL                                 

Enter  polar save filename  OR  <return> for no file   s>  
 New polar save file available

Enter  polar dump filename  OR  <return> for no file   s>  
 Polar dump file will NOT be written

 Polar accumulation enabled

.OPERva   c>   Calculating unit vorticity distributions ...
 Calculating wake trajectory ...
 Calculating source influence matrix ...

 Solving BL system ...

 Initializing BL ...
    side            1  ...
 MRCHUE: Inverse mode at  57     Hk =   4.368
 MRCHUE: Inverse mode at  58     Hk =   5.481
 MRCHUE: Inverse mode at  59     Hk =   6.629
 MRCHUE: Inverse mode at  60     Hk =   4.692
 MRCHUE: Inverse mode at  61     Hk =   2.500
 MRCHUE: Inverse mode at  93     Hk =   2.500
 MRCHUE: Inverse mode at  94     Hk =   2.500
 MRCHUE: Inverse mode at  95     Hk =   2.500
 MRCHUE: Inverse mode at  96     Hk =   2.500
 MRCHUE: Inverse mode at  97     Hk =   2.500
 MRCHUE: Inverse mode at  98     Hk =   2.500
 MRCHUE: Inverse mode at  99     Hk =   2.500
 MRCHUE: Inverse mode at 100     Hk =   2.500
 MRCHUE: Inverse mode at 101     Hk =   2.500
 MRCHUE: Inverse mode at 102     Hk =   2.500
 MRCHUE: Inverse mode at 103     Hk =   2.500
 MRCHUE: Inverse mode at 104     Hk =   2.500
 MRCHUE: Convergence failed at 104  side 1    Res =  0.2898E-01
 MRCHUE: Convergence failed at 105  side 1    Res =  0.6716E+01
 MRCHUE: Inverse mode at 106     Hk =   2.500
 MRCHUE: Inverse mode at 107     Hk =   2.500
 MRCHUE: Convergence failed at 108  side 1    Res =  0.6145E+01
 MRCHUE: Inverse mode at 109     Hk =   2.500
 MRCHUE: Convergence failed at 110  side 1    Res =  0.5041E+01
    side            2  ...
 MRCHUE: Inverse mode at  50     Hk =   3.800
 MRCHUE: Inverse mode at  51     Hk =   4.289
 MRCHUE: Inverse mode at  52     Hk =   4.591

 MRCHDU: Convergence failed at 105  side 1    Res =  0.1424E+01
 MRCHDU: Convergence failed at 106  side 1    Res =  0.1523E+01
 MRCHDU: Convergence failed at 107  side 1    Res =  0.1614E+01
 MRCHDU: Convergence failed at 108  side 1    Res =  0.6045E+01
 MRCHDU: Convergence failed at 109  side 1    Res =  0.5771E+01
 MRCHDU: Convergence failed at 110  side 1    Res =  0.4613E+02
 Side 1  free  transition at x/c =  0.1352   60
 Side 2 forced transition at x/c =  1.0000   52

   1   rms: 0.1069E+01   max: -.8829E+01   C at   52  2   RLX: 0.057
       a = 16.250      CL =  2.8103
      Cm = -0.2823     CD =  0.00449   =>   CDf =  0.00792    CDp = -0.00343

 Side 1  free  transition at x/c =  0.1367   60
 Side 2 forced transition at x/c =  1.0000   52

   2   rms: 0.8694E+00   max: -.8183E+01   C at   52  2   RLX: 0.061
       a = 16.250      CL =  2.7802
      Cm = -0.2743     CD =  0.00528   =>   CDf =  0.00792    CDp = -0.00264

 Side 1  free  transition at x/c =  0.1378   60
 Side 2 forced transition at x/c =  1.0000   52

   3   rms: 0.8172E+00   max: -.7002E+01   C at   52  2   RLX: 0.071
       a = 16.250      CL =  2.7503
      Cm = -0.2674     CD =  0.00619   =>   CDf =  0.00789    CDp = -0.00170

 Side 1  free  transition at x/c =  0.1388   60
 Side 2 forced transition at x/c =  1.0000   52

   4   rms: 0.7969E+00   max: -.6177E+01   C at   52  2   RLX: 0.081
       a = 16.250      CL =  2.7154
      Cm = -0.2600     CD =  0.00739   =>   CDf =  0.00787    CDp = -0.00049

 Side 1  free  transition at x/c =  0.1400   61
 Side 2 forced transition at x/c =  1.0000   52

   5   rms: 0.6630E+00   max: -.4437E+01   C at   52  2   RLX: 0.113
       a = 16.250      CL =  2.6670
      Cm = -0.2494     CD =  0.00893   =>   CDf =  0.00783    CDp =  0.00110

 Side 1  free  transition at x/c =  0.1437   61
 Side 2 forced transition at x/c =  1.0000   52
 idif Ue xi dudx           1  7.06289485E-02  7.31229782E-03   9.6589270    
 Uenew xinew           2  1.25598405E-02  1.30033493E-03

   6   rms: 0.8742E+00   max: -.5718E+01   C at   52  2   RLX: 0.087
       a = 16.250      CL =  2.6101
      Cm = -0.2391     CD =  0.01066   =>   CDf =  0.00793    CDp =  0.00272

 Side 1  free  transition at x/c =  0.1462   60
 Side 2 forced transition at x/c =  1.0000   53

   7   rms: 0.7766E+00   max: 0.3213E+01   D at   60  2   RLX: 0.159
       a = 16.250      CL =  2.5012
      Cm = -0.2198     CD =  0.01437   =>   CDf =  0.00753    CDp =  0.00683

 Side 1  free  transition at x/c =  0.1500   60
 Side 2 forced transition at x/c =  1.0000   53
 idif Ue xi dudx           2  0.15782917      1.48761272E-02   10.609560    
 Uenew xinew           3  9.73509625E-02  9.17577744E-03

   8   rms: 0.7311E+00   max: 0.2784E+01   D at   63  2   RLX: 0.473
       a = 16.250      CL =  2.1474
      Cm = -0.1590     CD =  0.02740   =>   CDf =  0.00803    CDp =  0.01937

 MRCHDU: Convergence failed at  63  side 2    Res =  0.1006E+01
 MRCHDU: Convergence failed at  64  side 2    Res =  0.1507E+02
 MRCHDU: Convergence failed at  65  side 2    Res =  0.2095E+01
 MRCHDU: Convergence failed at  66  side 2    Res =  0.1767E+01
 MRCHDU: Convergence failed at  67  side 2    Res =  0.2972E+01
 Side 1  free  transition at x/c =  0.1639   59
 Side 2 forced transition at x/c =  1.0000   55
 idif Ue xi dudx           2  0.13311878      1.10213757E-02   12.078237    
 Uenew xinew           3  7.14534000E-02  5.91588020E-03

   9   rms: 0.4296E+00   max: 0.2004E+01   D at   62  2   RLX: 0.526
       a = 16.250      CL =  1.8851
      Cm = -0.1116     CD =  0.04232   =>   CDf =  0.00760    CDp =  0.03472

 Side 1  free  transition at x/c =  0.1794   59
 Side 2 forced transition at x/c =  1.0000   57

  10   rms: 0.1882E+00   max: -.1011E+01   C at   59  1   RLX: 0.495
       a = 16.250      CL =  1.7761
      Cm = -0.0872     CD =  0.05285   =>   CDf =  0.00661    CDp =  0.04624

 Side 1  free  transition at x/c =  0.2086   61
 Side 2 forced transition at x/c =  1.0000   57

  11   rms: 0.1064E+00   max: -.1236E+01   C at   61  1   RLX: 0.405
       a = 16.250      CL =  1.7585
      Cm = -0.0794     CD =  0.05201   =>   CDf =  0.00600    CDp =  0.04601

 Side 1  free  transition at x/c =  0.2255   62
 Side 2 forced transition at x/c =  1.0000   57
 idif Ue xi dudx           1  6.88114986E-02  4.76312637E-03   14.446709    
 Uenew xinew           2  3.43058631E-03  2.37464905E-04

  12   rms: 0.7832E-01   max: -.1146E+01   C at   62  1   RLX: 0.436
       a = 16.250      CL =  1.7424
      Cm = -0.0751     CD =  0.05264   =>   CDf =  0.00596    CDp =  0.04668

 Side 1  free  transition at x/c =  0.2360   62
 Side 2 forced transition at x/c =  1.0000   58

  13   rms: 0.5139E-01   max: 0.5423E+00   D at   62  1
       a = 16.250      CL =  1.7099
      Cm = -0.0662     CD =  0.05403   =>   CDf =  0.00567    CDp =  0.04836

 Side 1  free  transition at x/c =  0.2490   62
 Side 2 forced transition at x/c =  1.0000   58

  14   rms: 0.2347E-01   max: -.1925E+00   D at   62  1
       a = 16.250      CL =  1.6841
      Cm = -0.0645     CD =  0.05633   =>   CDf =  0.00574    CDp =  0.05059

 MRCHDU: Convergence failed at  63  side 1    Res =  0.1753E+01
 Side 1  free  transition at x/c =  0.2584   63
 Side 2 forced transition at x/c =  1.0000   58

  15   rms: 0.2079E-01   max: 0.2513E+00   C at   63  1
       a = 16.250      CL =  1.6944
      Cm = -0.0653     CD =  0.05544   =>   CDf =  0.00531    CDp =  0.05013

 Side 1  free  transition at x/c =  0.2549   63
 Side 2 forced transition at x/c =  1.0000   58

  16   rms: 0.2679E-02   max: -.2359E-01   D at   63  1
       a = 16.250      CL =  1.6938
      Cm = -0.0652     CD =  0.05543   =>   CDf =  0.00545    CDp =  0.04998

 Side 1  free  transition at x/c =  0.2551   63
 Side 2 forced transition at x/c =  1.0000   58

  17   rms: 0.3086E-03   max: -.1524E-02   D at   72  2
       a = 16.250      CL =  1.6941
      Cm = -0.0652     CD =  0.05545   =>   CDf =  0.00544    CDp =  0.05001

 Side 1  free  transition at x/c =  0.2550   63
 Side 2 forced transition at x/c =  1.0000   58

  18   rms: 0.1409E-04   max: -.9646E-04   D at   72  2
       a = 16.250      CL =  1.6941
      Cm = -0.0652     CD =  0.05545   =>   CDf =  0.00545    CDp =  0.05001
 plradd ia,ip,cpol            1           0  3.49986181E-02

 Point added to stored polar  1
 Point written to save file  goe798_Re500k.ext.pol                           
 Dump file unspecified or not available
 Calculating wake trajectory ...
 Calculating source influence matrix ...

 Solving BL system ...

 Side 1  free  transition at x/c =  0.2550   63
 Side 2 forced transition at x/c =  1.0000   58

   1   rms: 0.3041E-01   max: -.1690E+00   D at   63  1   RLX: 0.456
       a = 16.500      CL =  1.6956
      Cm = -0.0649     CD =  0.05663   =>   CDf =  0.00545    CDp =  0.05118

 Side 1  free  transition at x/c =  0.2513   63
 Side 2 forced transition at x/c =  1.0000   58

   2   rms: 0.1809E-01   max: -.1164E+00   D at   63  1
       a = 16.500      CL =  1.6932
      Cm = -0.0643     CD =  0.05834   =>   CDf =  0.00547    CDp =  0.05286

 Side 1  free  transition at x/c =  0.2477   62
 Side 2 forced transition at x/c =  1.0000   58

   3   rms: 0.1845E-02   max: -.2825E-01   C at   62  1
       a = 16.500      CL =  1.6936
      Cm = -0.0642     CD =  0.05805   =>   CDf =  0.00546    CDp =  0.05260

 Side 1  free  transition at x/c =  0.2474   62
 Side 2 forced transition at x/c =  1.0000   58

   4   rms: 0.1162E-03   max: -.7310E-03   D at   82  1
       a = 16.500      CL =  1.6936
      Cm = -0.0642     CD =  0.05805   =>   CDf =  0.00545    CDp =  0.05260

 Side 1  free  transition at x/c =  0.2474   62
 Side 2 forced transition at x/c =  1.0000   58

   5   rms: 0.8753E-05   max: -.5902E-04   D at   72  2
       a = 16.500      CL =  1.6937
      Cm = -0.0642     CD =  0.05805   =>   CDf =  0.00545    CDp =  0.05260
 plradd ia,ip,cpol            2           0  3.49986181E-02

 Point added to stored polar  1
 Point written to save file  goe798_Re500k.ext.pol                           
 Dump file unspecified or not available
 Calculating wake trajectory ...
 Calculating source influence matrix ...

 Solving BL system ...

 Side 1  free  transition at x/c =  0.2474   62
 Side 2 forced transition at x/c =  1.0000   58

   1   rms: 0.2957E-01   max: -.1191E+00   D at   62  1   RLX: 0.446
       a = 16.750      CL =  1.6972
      Cm = -0.0641     CD =  0.05903   =>   CDf =  0.00545    CDp =  0.05358

 Side 1  free  transition at x/c =  0.2426   62
 Side 2 forced transition at x/c =  1.0000   58

   2   rms: 0.1701E-01   max: -.9178E-01   D at   62  1
       a = 16.750      CL =  1.6969
      Cm = -0.0637     CD =  0.06061   =>   CDf =  0.00521    CDp =  0.05540

 Side 1  free  transition at x/c =  0.2364   63
 Side 2 forced transition at x/c =  1.0000   57

   3   rms: 0.3807E-02   max: -.2906E-01   D at    2  1
       a = 16.750      CL =  1.6941
      Cm = -0.0634     CD =  0.06064   =>   CDf =  0.00545    CDp =  0.05519

 Side 1  free  transition at x/c =  0.2373   63
 Side 2 forced transition at x/c =  1.0000   57

   4   rms: 0.6094E-03   max: -.7462E-02   D at    4  1
       a = 16.750      CL =  1.6940
      Cm = -0.0634     CD =  0.06061   =>   CDf =  0.00542    CDp =  0.05519

 Side 1  free  transition at x/c =  0.2373   63
 Side 2 forced transition at x/c =  1.0000   57

   5   rms: 0.1062E-05   max: -.5541E-05   T at   71  2
       a = 16.750      CL =  1.6940
      Cm = -0.0634     CD =  0.06061   =>   CDf =  0.00542    CDp =  0.05519
 plradd ia,ip,cpol            3           0  3.49986181E-02

 Point added to stored polar  1
 Point written to save file  goe798_Re500k.ext.pol                           
 Dump file unspecified or not available
 Calculating wake trajectory ...
 Calculating source influence matrix ...

 Solving BL system ...

 Side 1  free  transition at x/c =  0.2373   63
 Side 2 forced transition at x/c =  1.0000   57

   1   rms: 0.3539E-01   max: -.2314E+00   D at   63  1   RLX: 0.430
       a = 17.000      CL =  1.6922
      Cm = -0.0631     CD =  0.06215   =>   CDf =  0.00543    CDp =  0.05673

 Side 1  free  transition at x/c =  0.2331   62
 Side 2 forced transition at x/c =  1.0000   57

   2   rms: 0.1694E-01   max: -.7452E-01   D at   62  1
       a = 17.000      CL =  1.6948
      Cm = -0.0628     CD =  0.06343   =>   CDf =  0.00545    CDp =  0.05798

 Side 1  free  transition at x/c =  0.2245   62
 Side 2 forced transition at x/c =  1.0000   57

   3   rms: 0.5483E-02   max: -.5834E-01   C at   62  1
       a = 17.000      CL =  1.6906
      Cm = -0.0625     CD =  0.06364   =>   CDf =  0.00545    CDp =  0.05819

 Side 1  free  transition at x/c =  0.2262   62
 Side 2 forced transition at x/c =  1.0000   57

   4   rms: 0.2556E-03   max: -.1760E-02   C at   62  1
       a = 17.000      CL =  1.6903
      Cm = -0.0625     CD =  0.06360   =>   CDf =  0.00542    CDp =  0.05818

 Side 1  free  transition at x/c =  0.2262   62
 Side 2 forced transition at x/c =  1.0000   57

   5   rms: 0.2618E-05   max: 0.2190E-04   D at   71  2
       a = 17.000      CL =  1.6903
      Cm = -0.0625     CD =  0.06360   =>   CDf =  0.00542    CDp =  0.05818
 plradd ia,ip,cpol            4           0  3.49986181E-02

 Point added to stored polar  1
 Point written to save file  goe798_Re500k.ext.pol                           
 Dump file unspecified or not available
 Calculating wake trajectory ...
 Calculating source influence matrix ...

 Solving BL system ...

 Side 1  free  transition at x/c =  0.2262   62
 Side 2 forced transition at x/c =  1.0000   57

   1   rms: 0.3499E-01   max: 0.2717E+00   C at   62  1   RLX: 0.418
       a = 17.250      CL =  1.6887
      Cm = -0.0622     CD =  0.06512   =>   CDf =  0.00542    CDp =  0.05969

 Side 1  free  transition at x/c =  0.2205   62
 Side 2 forced transition at x/c =  1.0000   57

   2   rms: 0.2288E-01   max: -.1304E+00   D at   62  1
       a = 17.250      CL =  1.6808
      Cm = -0.0615     CD =  0.06767   =>   CDf =  0.00547    CDp =  0.06220

 Side 1  free  transition at x/c =  0.2155   61
 Side 2 forced transition at x/c =  1.0000   57

   3   rms: 0.3531E-02   max: -.3533E-01   D at   62  1
       a = 17.250      CL =  1.6835
      Cm = -0.0614     CD =  0.06690   =>   CDf =  0.00544    CDp =  0.06147

 Side 1  free  transition at x/c =  0.2146   61
 Side 2 forced transition at x/c =  1.0000   57

   4   rms: 0.1370E-03   max: -.7285E-03   D at   71  2
       a = 17.250      CL =  1.6836
      Cm = -0.0615     CD =  0.06693   =>   CDf =  0.00545    CDp =  0.06147

 Side 1  free  transition at x/c =  0.2146   61
 Side 2 forced transition at x/c =  1.0000   57

   5   rms: 0.6030E-05   max: -.4310E-04   D at   71  2
       a = 17.250      CL =  1.6836
      Cm = -0.0615     CD =  0.06693   =>   CDf =  0.00545    CDp =  0.06148
 plradd ia,ip,cpol            5           0  3.49986181E-02

 Point added to stored polar  1
 Point written to save file  goe798_Re500k.ext.pol                           
 Dump file unspecified or not available
 Calculating wake trajectory ...
 Calculating source influence matrix ...

 Solving BL system ...

 Side 1  free  transition at x/c =  0.2146   61
 Side 2 forced transition at x/c =  1.0000   57

   1   rms: 0.3409E-01   max: 0.3179E+00   C at   61  1   RLX: 0.406
       a = 17.500      CL =  1.6821
      Cm = -0.0612     CD =  0.06842   =>   CDf =  0.00546    CDp =  0.06296

 Side 1  free  transition at x/c =  0.2091   61
 Side 2 forced transition at x/c =  1.0000   57

   2   rms: 0.2274E-01   max: 0.1674E+00   C at   61  1
       a = 17.500      CL =  1.6745
      Cm = -0.0606     CD =  0.07103   =>   CDf =  0.00548    CDp =  0.06555

 Side 1  free  transition at x/c =  0.2041   60
 Side 2 forced transition at x/c =  1.0000   57

   3   rms: 0.1317E-02   max: -.9816E-02   D at   81  1
       a = 17.500      CL =  1.6744
      Cm = -0.0604     CD =  0.07052   =>   CDf =  0.00549    CDp =  0.06503

 Side 1  free  transition at x/c =  0.2040   60
 Side 2 forced transition at x/c =  1.0000   57

   4   rms: 0.6169E-04   max: -.3578E-03   D at   74  2
       a = 17.500      CL =  1.6745
      Cm = -0.0604     CD =  0.07053   =>   CDf =  0.00549    CDp =  0.06503
 plradd ia,ip,cpol            6           0  3.11855916E-02

 Point added to stored polar  1
 Point written to save file  goe798_Re500k.ext.pol                           
 Dump file unspecified or not available
 Calculating wake trajectory ...
 Calculating source influence matrix ...

 Solving BL system ...

 Side 1  free  transition at x/c =  0.2040   60
 Side 2 forced transition at x/c =  1.0000   57

   1   rms: 0.3051E-01   max: 0.3071E+00   C at   60  1   RLX: 0.395
       a = 17.750      CL =  1.6751
      Cm = -0.0603     CD =  0.07171   =>   CDf =  0.00550    CDp =  0.06621

 Side 1  free  transition at x/c =  0.2001   60
 Side 2 forced transition at x/c =  1.0000   57

   2   rms: 0.2041E-01   max: 0.1775E+00   C at   60  1
       a = 17.750      CL =  1.6710
      Cm = -0.0598     CD =  0.07401   =>   CDf =  0.00551    CDp =  0.06851

 Side 1  free  transition at x/c =  0.1950   60
 Side 2 forced transition at x/c =  1.0000   57

   3   rms: 0.3717E-02   max: 0.2174E-01   D at   80  1
       a = 17.750      CL =  1.6677
      Cm = -0.0596     CD =  0.07397   =>   CDf =  0.00552    CDp =  0.06845

 Side 1  free  transition at x/c =  0.1955   60
 Side 2 forced transition at x/c =  1.0000   57

   4   rms: 0.1853E-03   max: 0.2232E-02   D at   72  2
       a = 17.750      CL =  1.6676
      Cm = -0.0596     CD =  0.07392   =>   CDf =  0.00550    CDp =  0.06841

 Side 1  free  transition at x/c =  0.1956   60
 Side 2 forced transition at x/c =  1.0000   57

   5   rms: 0.2511E-05   max: 0.2139E-04   D at   72  2
       a = 17.750      CL =  1.6676
      Cm = -0.0596     CD =  0.07392   =>   CDf =  0.00550    CDp =  0.06841
 plradd ia,ip,cpol            7           0  3.11855916E-02

 Point added to stored polar  1
 Point written to save file  goe798_Re500k.ext.pol                           
 Dump file unspecified or not available
 Calculating wake trajectory ...
 Calculating source influence matrix ...

 Solving BL system ...

 Side 1  free  transition at x/c =  0.1956   60
 Side 2 forced transition at x/c =  1.0000   57

   1   rms: 0.3457E-01   max: 0.2650E+00   C at   60  1   RLX: 0.381
       a = 18.000      CL =  1.6649
      Cm = -0.0594     CD =  0.07554   =>   CDf =  0.00551    CDp =  0.07003

 Side 1  free  transition at x/c =  0.1927   60
 Side 2 forced transition at x/c =  1.0000   57

   2   rms: 0.2126E-01   max: 0.1123E+00   C at   60  1
       a = 18.000      CL =  1.6592
      Cm = -0.0589     CD =  0.07801   =>   CDf =  0.00553    CDp =  0.07248

 Side 1  free  transition at x/c =  0.1892   59
 Side 2 forced transition at x/c =  1.0000   57

   3   rms: 0.3779E-02   max: -.1880E-01   D at   80  1
       a = 18.000      CL =  1.6621
      Cm = -0.0588     CD =  0.07710   =>   CDf =  0.00551    CDp =  0.07159

 Side 1  free  transition at x/c =  0.1891   59
 Side 2 forced transition at x/c =  1.0000   57

   4   rms: 0.2710E-03   max: -.1200E-02   D at   74  2
       a = 18.000      CL =  1.6624
      Cm = -0.0588     CD =  0.07712   =>   CDf =  0.00551    CDp =  0.07161

 Side 1  free  transition at x/c =  0.1891   59
 Side 2 forced transition at x/c =  1.0000   57

   5   rms: 0.1684E-04   max: -.1248E-03   D at   72  2
       a = 18.000      CL =  1.6624
      Cm = -0.0588     CD =  0.07713   =>   CDf =  0.00551    CDp =  0.07161
 plradd ia,ip,cpol            8           0  2.69434322E-03

 Point added to stored polar  1
 Point written to save file  goe798_Re500k.ext.pol                           
 Dump file unspecified or not available

.OPERva   c>   Calculating wake trajectory ...
 Calculating source influence matrix ...

 Solving BL system ...

 Side 1  free  transition at x/c =  0.1891   59
 Side 2 forced transition at x/c =  1.0000   57

   1   rms: 0.2844E-01   max: 0.2010E+00   C at   59  1   RLX: 0.374
       a = 18.250      CL =  1.6626
      Cm = -0.0587     CD =  0.07834   =>   CDf =  0.00552    CDp =  0.07282

 Side 1  free  transition at x/c =  0.1869   59
 Side 2 forced transition at x/c =  1.0000   57

   2   rms: 0.1897E-01   max: 0.1165E+00   C at   59  1
       a = 18.250      CL =  1.6597
      Cm = -0.0584     CD =  0.08063   =>   CDf =  0.00551    CDp =  0.07512

 Side 1  free  transition at x/c =  0.1834   59
 Side 2 forced transition at x/c =  1.0000   57

   3   rms: 0.2164E-02   max: -.1372E-01   C at   59  1
       a = 18.250      CL =  1.6577
      Cm = -0.0582     CD =  0.08037   =>   CDf =  0.00551    CDp =  0.07486

 Side 1  free  transition at x/c =  0.1837   59
 Side 2 forced transition at x/c =  1.0000   57

   4   rms: 0.6034E-04   max: 0.4960E-03   D at   73  2
       a = 18.250      CL =  1.6577
      Cm = -0.0582     CD =  0.08034   =>   CDf =  0.00550    CDp =  0.07485
 plradd ia,ip,cpol            9           0  2.69434322E-03

 Point added to stored polar  1
 Point written to save file  goe798_Re500k.ext.pol                           
 Dump file unspecified or not available
 Calculating wake trajectory ...
 Calculating source influence matrix ...

 Solving BL system ...

 Side 1  free  transition at x/c =  0.1837   59
 Side 2 forced transition at x/c =  1.0000   57

   1   rms: 0.5982E-01   max: 0.3487E+00   C at   59  1   RLX: 0.355
       a = 18.750      CL =  1.6555
      Cm = -0.0580     CD =  0.08302   =>   CDf =  0.00526    CDp =  0.07776

 Side 1  free  transition at x/c =  0.1799   60
 Side 2 forced transition at x/c =  1.0000   56

   2   rms: 0.3999E-01   max: 0.2023E+00   D at   79  1
       a = 18.750      CL =  1.6481
      Cm = -0.0574     CD =  0.08785   =>   CDf =  0.00552    CDp =  0.08233

 Side 1  free  transition at x/c =  0.1747   59
 Side 2 forced transition at x/c =  1.0000   56

   3   rms: 0.7420E-02   max: -.7865E-01   D at   59  1
       a = 18.750      CL =  1.6508
      Cm = -0.0572     CD =  0.08655   =>   CDf =  0.00547    CDp =  0.08108

 Side 1  free  transition at x/c =  0.1750   59
 Side 2 forced transition at x/c =  1.0000   56

   4   rms: 0.8426E-03   max: -.5719E-02   D at   79  1
       a = 18.750      CL =  1.6514
      Cm = -0.0572     CD =  0.08646   =>   CDf =  0.00545    CDp =  0.08101

 Side 1  free  transition at x/c =  0.1749   59
 Side 2 forced transition at x/c =  1.0000   56

   5   rms: 0.8440E-04   max: -.4694E-03   D at   72  2
       a = 18.750      CL =  1.6515
      Cm = -0.0573     CD =  0.08648   =>   CDf =  0.00545    CDp =  0.08102
 plradd ia,ip,cpol           10           0  1.81501708E-03

 Point added to stored polar  1
 Point written to save file  goe798_Re500k.ext.pol                           
 Dump file unspecified or not available
 Calculating wake trajectory ...
 Calculating source influence matrix ...

 Solving BL system ...

 Side 1  free  transition at x/c =  0.1749   59
 Side 2 forced transition at x/c =  1.0000   56

   1   rms: 0.5204E-01   max: 0.2225E+00   D at   77  1   RLX: 0.342
       a = 19.250      CL =  1.6535
      Cm = -0.0572     CD =  0.08855   =>   CDf =  0.00546    CDp =  0.08309

 Side 1  free  transition at x/c =  0.1722   59
 Side 2 forced transition at x/c =  1.0000   56

   2   rms: 0.3473E-01   max: 0.1606E+00   D at   78  1
       a = 19.250      CL =  1.6540
      Cm = -0.0570     CD =  0.09268   =>   CDf =  0.00544    CDp =  0.08724

 Side 1  free  transition at x/c =  0.1675   59
 Side 2 forced transition at x/c =  1.0000   56

   3   rms: 0.8319E-02   max: 0.6207E-01   D at   78  1
       a = 19.250      CL =  1.6465
      Cm = -0.0567     CD =  0.09277   =>   CDf =  0.00544    CDp =  0.08733

 Side 1  free  transition at x/c =  0.1678   59
 Side 2 forced transition at x/c =  1.0000   56

   4   rms: 0.4394E-03   max: 0.3343E-02   D at   72  2
       a = 19.250      CL =  1.6463
      Cm = -0.0567     CD =  0.09256   =>   CDf =  0.00541    CDp =  0.08715

 Side 1  free  transition at x/c =  0.1679   59
 Side 2 forced transition at x/c =  1.0000   56

   5   rms: 0.1104E-04   max: -.8116E-04   D at   74  2
       a = 19.250      CL =  1.6463
      Cm = -0.0567     CD =  0.09255   =>   CDf =  0.00541    CDp =  0.08714
 plradd ia,ip,cpol           11           0  1.81501708E-03

 Point added to stored polar  1
 Point written to save file  goe798_Re500k.ext.pol                           
 Dump file unspecified or not available
 Calculating wake trajectory ...
 Calculating source influence matrix ...

 Solving BL system ...

 Side 1  free  transition at x/c =  0.1679   59
 Side 2 forced transition at x/c =  1.0000   56

   1   rms: 0.5479E-01   max: 0.2734E+00   D at   76  1   RLX: 0.326
       a = 19.750      CL =  1.6449
      Cm = -0.0567     CD =  0.09502   =>   CDf =  0.00542    CDp =  0.08960

 Side 1  free  transition at x/c =  0.1657   59
 Side 2 forced transition at x/c =  1.0000   56

   2   rms: 0.3539E-01   max: 0.1568E+00   D at   76  1
       a = 19.750      CL =  1.6447
      Cm = -0.0564     CD =  0.09916   =>   CDf =  0.00516    CDp =  0.09399

 Side 1  free  transition at x/c =  0.1613   59
 Side 2 forced transition at x/c =  1.0000   55

   3   rms: 0.1263E-01   max: -.1647E+00   D at   59  1
       a = 19.750      CL =  1.6442
      Cm = -0.0565     CD =  0.09847   =>   CDf =  0.00535    CDp =  0.09312

 Side 1  free  transition at x/c =  0.1623   59
 Side 2 forced transition at x/c =  1.0000   55

   4   rms: 0.3228E-02   max: -.2050E-01   D at   78  1
       a = 19.750      CL =  1.6467
      Cm = -0.0564     CD =  0.09795   =>   CDf =  0.00529    CDp =  0.09266

 Side 1  free  transition at x/c =  0.1621   59
 Side 2 forced transition at x/c =  1.0000   55

   5   rms: 0.4018E-03   max: -.1892E-02   D at   71  2
       a = 19.750      CL =  1.6470
      Cm = -0.0564     CD =  0.09802   =>   CDf =  0.00530    CDp =  0.09271

 Side 1  free  transition at x/c =  0.1621   59
 Side 2 forced transition at x/c =  1.0000   55

   6   rms: 0.3039E-04   max: -.2071E-03   D at   71  2
       a = 19.750      CL =  1.6470
      Cm = -0.0565     CD =  0.09802   =>   CDf =  0.00531    CDp =  0.09272
 plradd ia,ip,cpol           12           0  1.81501708E-03

 Point added to stored polar  1
 Point written to save file  goe798_Re500k.ext.pol                           
 Dump file unspecified or not available
 Calculating wake trajectory ...
 Calculating source influence matrix ...

 Solving BL system ...

 Side 1  free  transition at x/c =  0.1621   59
 Side 2 forced transition at x/c =  1.0000   55

   1   rms: 0.5019E-01   max: 0.2180E+00   D at   77  1   RLX: 0.316
       a = 20.250      CL =  1.6490
      Cm = -0.0566     CD =  0.10003   =>   CDf =  0.00531    CDp =  0.09472

 Side 1  free  transition at x/c =  0.1603   59
 Side 2 forced transition at x/c =  1.0000   55

   2   rms: 0.3409E-01   max: 0.1517E+00   D at   77  1
       a = 20.250      CL =  1.6522
      Cm = -0.0569     CD =  0.10421   =>   CDf =  0.00527    CDp =  0.09894

 Side 1  free  transition at x/c =  0.1563   59
 Side 2 forced transition at x/c =  1.0000   55

   3   rms: 0.4758E-02   max: 0.2476E-01   D at   77  1
       a = 20.250      CL =  1.6478
      Cm = -0.0566     CD =  0.10371   =>   CDf =  0.00523    CDp =  0.09848

 Side 1  free  transition at x/c =  0.1566   59
 Side 2 forced transition at x/c =  1.0000   55

   4   rms: 0.5294E-03   max: 0.4730E-02   D at   77  1
       a = 20.250      CL =  1.6474
      Cm = -0.0566     CD =  0.10365   =>   CDf =  0.00521    CDp =  0.09844

 Side 1  free  transition at x/c =  0.1566   59
 Side 2 forced transition at x/c =  1.0000   55

   5   rms: 0.4495E-04   max: 0.2354E-03   D at   72  2
       a = 20.250      CL =  1.6473
      Cm = -0.0566     CD =  0.10364   =>   CDf =  0.00521    CDp =  0.09843
 plradd ia,ip,cpol           13           0  1.81501708E-03

 Point added to stored polar  1
 Point written to save file  goe798_Re500k.ext.pol                           
 Dump file unspecified or not available
 Calculating wake trajectory ...
 Calculating source influence matrix ...

 Solving BL system ...

 Side 1  free  transition at x/c =  0.1566   59
 Side 2 forced transition at x/c =  1.0000   55

   1   rms: 0.5179E-01   max: 0.2575E+00   D at   76  1   RLX: 0.303
       a = 20.750      CL =  1.6467
      Cm = -0.0568     CD =  0.10594   =>   CDf =  0.00522    CDp =  0.10071

 Side 1  free  transition at x/c =  0.1549   59
 Side 2 forced transition at x/c =  1.0000   55

   2   rms: 0.3608E-01   max: 0.1767E+00   D at   76  1
       a = 20.750      CL =  1.6453
      Cm = -0.0572     CD =  0.11087   =>   CDf =  0.00522    CDp =  0.10565

 Side 1  free  transition at x/c =  0.1512   58
 Side 2 forced transition at x/c =  1.0000   55

   3   rms: 0.5577E-02   max: -.5466E-01   D at   59  1
       a = 20.750      CL =  1.6459
      Cm = -0.0569     CD =  0.10936   =>   CDf =  0.00518    CDp =  0.10418

 Side 1  free  transition at x/c =  0.1511   58
 Side 2 forced transition at x/c =  1.0000   55

   4   rms: 0.7638E-03   max: -.4503E-02   D at   76  1
       a = 20.750      CL =  1.6465
      Cm = -0.0569     CD =  0.10926   =>   CDf =  0.00517    CDp =  0.10409

 Side 1  free  transition at x/c =  0.1511   58
 Side 2 forced transition at x/c =  1.0000   55

   5   rms: 0.8650E-04   max: -.4832E-03   D at   72  2
       a = 20.750      CL =  1.6466
      Cm = -0.0569     CD =  0.10929   =>   CDf =  0.00517    CDp =  0.10411
 plradd ia,ip,cpol           14           0  1.81501708E-03

 Point added to stored polar  1
 Point written to save file  goe798_Re500k.ext.pol                           
 Dump file unspecified or not available
 Calculating wake trajectory ...
 Calculating source influence matrix ...

 Solving BL system ...

 Side 1  free  transition at x/c =  0.1511   58
 Side 2 forced transition at x/c =  1.0000   55

   1   rms: 0.4956E-01   max: 0.2101E+00   D at   75  1   RLX: 0.294
       a = 21.250      CL =  1.6487
      Cm = -0.0572     CD =  0.11119   =>   CDf =  0.00518    CDp =  0.10601

 Side 1  free  transition at x/c =  0.1498   58
 Side 2 forced transition at x/c =  1.0000   55

   2   rms: 0.3509E-01   max: 0.1692E+00   D at   75  1
       a = 21.250      CL =  1.6507
      Cm = -0.0580     CD =  0.11606   =>   CDf =  0.00485    CDp =  0.11120

 Side 1  free  transition at x/c =  0.1460   59
 Side 2 forced transition at x/c =  1.0000   54

   3   rms: 0.4100E-02   max: -.2617E-01   D at   59  1
       a = 21.250      CL =  1.6475
      Cm = -0.0577     CD =  0.11513   =>   CDf =  0.00500    CDp =  0.11013

 Side 1  free  transition at x/c =  0.1463   59
 Side 2 forced transition at x/c =  1.0000   54

   4   rms: 0.3422E-03   max: -.3893E-02   D at    4  1
       a = 21.250      CL =  1.6475
      Cm = -0.0577     CD =  0.11503   =>   CDf =  0.00499    CDp =  0.11004

 Side 1  free  transition at x/c =  0.1463   59
 Side 2 forced transition at x/c =  1.0000   54

   5   rms: 0.1028E-04   max: -.4839E-04   D at   73  2
       a = 21.250      CL =  1.6475
      Cm = -0.0577     CD =  0.11503   =>   CDf =  0.00499    CDp =  0.11005
 plradd ia,ip,cpol           15           0  1.81501708E-03

 Point added to stored polar  1
 Point written to save file  goe798_Re500k.ext.pol                           
 Dump file unspecified or not available
 Calculating wake trajectory ...
 Calculating source influence matrix ...

 Solving BL system ...

 Side 1  free  transition at x/c =  0.1463   59
 Side 2 forced transition at x/c =  1.0000   54

   1   rms: 0.4885E-01   max: 0.2168E+00   D at   75  1   RLX: 0.284
       a = 21.750      CL =  1.6488
      Cm = -0.0581     CD =  0.11699   =>   CDf =  0.00500    CDp =  0.11199

 Side 1  free  transition at x/c =  0.1448   59
 Side 2 forced transition at x/c =  1.0000   54

   2   rms: 0.3493E-01   max: 0.1590E+00   D at   75  1
       a = 21.750      CL =  1.6513
      Cm = -0.0590     CD =  0.12177   =>   CDf =  0.00498    CDp =  0.11679

 Side 1  free  transition at x/c =  0.1410   59
 Side 2 forced transition at x/c =  1.0000   54

   3   rms: 0.6192E-02   max: 0.4404E-01   D at   76  1
       a = 21.750      CL =  1.6458
      Cm = -0.0588     CD =  0.12125   =>   CDf =  0.00496    CDp =  0.11629

 Side 1  free  transition at x/c =  0.1411   59
 Side 2 forced transition at x/c =  1.0000   54

   4   rms: 0.3509E-03   max: 0.2683E-02   D at   72  2
       a = 21.750      CL =  1.6456
      Cm = -0.0588     CD =  0.12102   =>   CDf =  0.00495    CDp =  0.11607

 Side 1  free  transition at x/c =  0.1411   59
 Side 2 forced transition at x/c =  1.0000   54

   5   rms: 0.8288E-05   max: 0.8952E-04   D at   71  2
       a = 21.750      CL =  1.6456
      Cm = -0.0588     CD =  0.12101   =>   CDf =  0.00495    CDp =  0.11606
 plradd ia,ip,cpol           16           0  1.10647979E-03

 Point added to stored polar  1
 Point written to save file  goe798_Re500k.ext.pol                           
 Dump file unspecified or not available
 Calculating wake trajectory ...
 Calculating source influence matrix ...

 Solving BL system ...

 Side 1  free  transition at x/c =  0.1411   59
 Side 2 forced transition at x/c =  1.0000   54

   1   rms: 0.4844E-01   max: 0.1923E+00   D at   74  1   RLX: 0.275
       a = 22.250      CL =  1.6469
      Cm = -0.0591     CD =  0.12278   =>   CDf =  0.00496    CDp =  0.11782

 Side 1  free  transition at x/c =  0.1396   59
 Side 2 forced transition at x/c =  1.0000   54

   2   rms: 0.3623E-01   max: 0.1173E+00   T at   59  1
       a = 22.250      CL =  1.6604
      Cm = -0.0594     CD =  0.12509   =>   CDf =  0.00497    CDp =  0.12012

 Side 1  free  transition at x/c =  0.1351   58
 Side 2 forced transition at x/c =  1.0000   54

   3   rms: 0.2515E-01   max: -.2421E+00   D at   58  1
       a = 22.250      CL =  1.6473
      Cm = -0.0604     CD =  0.12747   =>   CDf =  0.00490    CDp =  0.12256

 Side 1  free  transition at x/c =  0.1368   58
 Side 2 forced transition at x/c =  1.0000   54

   4   rms: 0.2240E-02   max: 0.2671E-01   D at   75  1
       a = 22.250      CL =  1.6475
      Cm = -0.0601     CD =  0.12658   =>   CDf =  0.00479    CDp =  0.12179

 Side 1  free  transition at x/c =  0.1366   58
 Side 2 forced transition at x/c =  1.0000   54

   5   rms: 0.2424E-03   max: -.1106E-02   D at   74  2
       a = 22.250      CL =  1.6477
      Cm = -0.0601     CD =  0.12660   =>   CDf =  0.00480    CDp =  0.12181

 Side 1  free  transition at x/c =  0.1366   58
 Side 2 forced transition at x/c =  1.0000   54

   6   rms: 0.2086E-04   max: -.1405E-03   D at   71  2
       a = 22.250      CL =  1.6477
      Cm = -0.0601     CD =  0.12661   =>   CDf =  0.00480    CDp =  0.12181
 plradd ia,ip,cpol           17           0  1.10647979E-03

 Point added to stored polar  1
 Point written to save file  goe798_Re500k.ext.pol                           
 Dump file unspecified or not available

.OPERva   c>  
 Polar accumulation disabled

.OPERv   c>  
 XFOIL   c>  
 XFOIL   c>  