  
       XFOIL         Version 6.99
  
 Calculated polar for: GOE 758 AIRFOIL                                 
  
 1 1 Reynolds number fixed          Mach number fixed         
  
 xtrf =   1.000 (top)        1.000 (bottom)  
 Mach =   0.000     Re =     0.300 e 6     Ncrit =   9.000
  
   alpha    CL        CD       CDp       CM     Top_Xtr  Bot_Xtr
  ------ -------- --------- --------- -------- -------- --------
  -4.000   0.0717   0.01628   0.00831  -0.1004   0.6875   0.0500
  -3.500   0.1228   0.01480   0.00670  -0.0994   0.6745   0.0507
  -3.000   0.1737   0.01383   0.00567  -0.0984   0.6626   0.0518
  -2.500   0.2252   0.01322   0.00496  -0.0975   0.6515   0.0530
  -2.000   0.2777   0.01283   0.00445  -0.0967   0.6404   0.0553
  -1.500   0.3307   0.01259   0.00412  -0.0960   0.6294   0.0588
  -1.000   0.3838   0.01231   0.00392  -0.0954   0.6197   0.0923
  -0.500   0.4298   0.01116   0.00390  -0.0942   0.6097   0.4350
   0.000   0.4769   0.01079   0.00412  -0.0923   0.6002   0.6388
   0.500   0.5324   0.01023   0.00427  -0.0914   0.5907   0.8807
   1.000   0.6452   0.01032   0.00427  -0.1036   0.5786   1.0000
   1.500   0.6943   0.01056   0.00436  -0.1023   0.5687   1.0000
   2.000   0.7440   0.01076   0.00443  -0.1011   0.5587   1.0000
   2.500   0.7926   0.01096   0.00458  -0.0997   0.5473   1.0000
   3.000   0.8422   0.01118   0.00473  -0.0984   0.5364   1.0000
   3.500   0.8922   0.01139   0.00483  -0.0973   0.5249   1.0000
   4.000   0.9403   0.01157   0.00503  -0.0958   0.5119   1.0000
   4.500   0.9886   0.01180   0.00525  -0.0944   0.4982   1.0000
   5.000   1.0366   0.01207   0.00551  -0.0930   0.4841   1.0000
   5.500   1.0836   0.01237   0.00580  -0.0914   0.4684   1.0000
   6.000   1.1294   0.01272   0.00613  -0.0897   0.4516   1.0000
   6.500   1.1749   0.01315   0.00656  -0.0880   0.4360   1.0000
   7.000   1.2191   0.01364   0.00705  -0.0861   0.4200   1.0000
   7.500   1.2623   0.01419   0.00762  -0.0841   0.4049   1.0000
   8.000   1.3028   0.01477   0.00822  -0.0817   0.3885   1.0000
   8.500   1.3396   0.01541   0.00886  -0.0787   0.3709   1.0000
   9.000   1.3735   0.01613   0.00961  -0.0752   0.3541   1.0000
   9.500   1.4012   0.01687   0.01041  -0.0707   0.3383   1.0000
  10.000   1.4257   0.01772   0.01137  -0.0659   0.3212   1.0000
  10.000   1.4257   0.01772   0.01137  -0.0660   0.3212   1.0000
  10.250   1.4374   0.01820   0.01191  -0.0637   0.3120   1.0000
  10.500   1.4473   0.01878   0.01252  -0.0612   0.3018   1.0000
  10.750   1.4548   0.01951   0.01325  -0.0586   0.2909   1.0000
  11.000   1.4625   0.02028   0.01407  -0.0562   0.2788   1.0000
  11.250   1.4693   0.02119   0.01500  -0.0539   0.2652   1.0000
  11.500   1.4716   0.02240   0.01619  -0.0513   0.2485   1.0000
  11.750   1.4710   0.02392   0.01767  -0.0487   0.2258   1.0000
  12.000   1.4623   0.02614   0.01976  -0.0458   0.1968   1.0000
  12.250   1.4468   0.02911   0.02255  -0.0430   0.1634   1.0000
  12.500   1.4261   0.03283   0.02607  -0.0405   0.1268   1.0000
  12.750   1.4011   0.03733   0.03037  -0.0385   0.0960   1.0000
  13.000   1.3857   0.04125   0.03424  -0.0373   0.0802   1.0000
  13.250   1.3688   0.04553   0.03848  -0.0365   0.0602   1.0000
  13.500   1.3532   0.04985   0.04270  -0.0359   0.0439   1.0000
  14.000   1.3334   0.05771   0.05061  -0.0355   0.0340   1.0000
  14.250   1.3231   0.06189   0.05485  -0.0355   0.0317   1.0000
  14.500   1.3177   0.06559   0.05865  -0.0357   0.0303   1.0000
  14.750   1.3119   0.06942   0.06259  -0.0360   0.0291   1.0000
  15.000   1.3052   0.07349   0.06675  -0.0364   0.0280   1.0000
  15.250   1.2974   0.07779   0.07114  -0.0370   0.0273   1.0000
  15.500   1.2849   0.08283   0.07626  -0.0379   0.0263   1.0000
  15.750   1.2791   0.08704   0.08056  -0.0387   0.0256   1.0000
  16.000   1.2754   0.09099   0.08461  -0.0395   0.0249   1.0000
