
 ===================================================
  XFOIL Version 6.99
  Copyright (C) 2000   Mark Drela, Harold Youngren

  This software comes with ABSOLUTELY NO WARRANTY,
    subject to the GNU General Public License.

  Caveat computor
 ===================================================

 File  xfoil.def  not found

   QUIT    Exit program

  .OPER    Direct operating point(s)
  .MDES    Complex mapping design routine
  .QDES    Surface speed design routine
  .GDES    Geometry design routine

   SAVE f  Write airfoil to labeled coordinate file
   PSAV f  Write airfoil to plain coordinate file
   ISAV f  Write airfoil to ISES coordinate file
   MSAV f  Write airfoil to MSES coordinate file
   REVE    Reverse written-airfoil node ordering

   LOAD f  Read buffer airfoil from coordinate file
   NACA i  Set NACA 4,5-digit airfoil and buffer airfoil
   INTE    Set buffer airfoil by interpolating two airfoils
   NORM    Buffer airfoil normalization toggle
   XYCM rr Change CM reference location, currently  0.25000 0.00000

   BEND    Display structural properties of current airfoil

   PCOP    Set current-airfoil panel nodes directly from buffer airfoil points
   PANE    Set current-airfoil panel nodes ( 160 ) based on curvature
  .PPAR    Show/change paneling

  .PLOP    Plotting options

   WDEF f  Write  current-settings file
   RDEF f  Reread current-settings file
   NAME s  Specify new airfoil name
   NINC    Increment name version number

   Z       Zoom    | (available in all menus)
   U       Unzoom  | 

 XFOIL   c>  
 Labeled airfoil file.  Name:  GOE 775 AIRFOIL                                 

 Number of input coordinate points:  33
 Counterclockwise ordering
 Max thickness =     0.210000  at x =   0.300
 Max camber    =     0.000061  at x =   0.500

  LE  x,y  =   0.00000  -0.00008  |   Chord =   1.00000
  TE  x,y  =   1.00000   0.00220  |

 Current airfoil nodes set from buffer airfoil nodes (  33 )

 WARNING: Poor input coordinate distribution
          Excessive panel angle   41.3  at i =  17
          Repaneling with PANE and/or PPAR suggested
           (doing GDES,CADD before repaneling _may_
            improve excessively coarse LE spacing

 XFOIL   c>  
 XFOIL   c>  
 Blunt trailing edge.  Gap =  0.00440

 Paneling parameters used...
   Number of panel nodes       160
   Panel bunching parameter    1.000
   TE/LE panel density ratio   0.150
   Refined-area/LE panel density ratio    0.200
   Top    side refined area x/c limits  1.000 1.000
   Bottom side refined area x/c limits  1.000 1.000

 XFOIL   c>  
.OPERi   c>  
 Xtr/c     =  1.0000    top    side
 Xtr/c     =  1.0000    bottom side
 Ncrit     =    9.00   ( 0.070 % turb. level )
 Vacc      =  0.0100

 Klag  =  5.6000     Uxwt  =    1.00
 A     =  6.7000     B     =  0.7500       KCt = 0.01485
 CtiniK=  1.8000     CtiniX=  3.3000

..VPAR   c>  
..VPAR   c>  
.OPERi   c>  
 M  =    0.0000
 Re =    200000

.OPERv   c>  
.OPERv   c>  
.OPERv   c>  
 Polar  1 newly created for accumulation
 Airfoil archived with polar: GOE 775 AIRFOIL                                 

Enter  polar save filename  OR  <return> for no file   s>  
 New polar save file available

Enter  polar dump filename  OR  <return> for no file   s>  
 Polar dump file will NOT be written

 Polar accumulation enabled

.OPERva   c>   Calculating unit vorticity distributions ...
 Calculating wake trajectory ...
 Calculating source influence matrix ...

 Solving BL system ...

 Initializing BL ...
    side            1  ...
 MRCHUE: Inverse mode at  45     Hk =   4.230
 MRCHUE: Inverse mode at  46     Hk =   4.771
 MRCHUE: Inverse mode at  47     Hk =   5.310
 MRCHUE: Inverse mode at  48     Hk =   5.852
 MRCHUE: Inverse mode at  49     Hk =   6.401
 MRCHUE: Inverse mode at  50     Hk =   6.960
 MRCHUE: Inverse mode at  51     Hk =   7.531
 MRCHUE: Inverse mode at  52     Hk =   8.118
 MRCHUE: Inverse mode at  53     Hk =   8.722
 MRCHUE: Inverse mode at  54     Hk =   9.347
 MRCHUE: Inverse mode at  55     Hk =   9.996
 MRCHUE: Inverse mode at  56     Hk =   6.951
 MRCHUE: Inverse mode at  57     Hk =   5.072
 MRCHUE: Inverse mode at  58     Hk =   3.744
 MRCHUE: Inverse mode at  59     Hk =   2.702
 MRCHUE: Inverse mode at  90     Hk =   2.500
 MRCHUE: Inverse mode at  91     Hk =   2.500
 MRCHUE: Inverse mode at  92     Hk =   2.500
 MRCHUE: Inverse mode at  93     Hk =   2.500
 MRCHUE: Inverse mode at  94     Hk =   2.500
 MRCHUE: Inverse mode at  95     Hk =   2.500
 MRCHUE: Inverse mode at  96     Hk =   2.500
 MRCHUE: Inverse mode at  97     Hk =   2.500
 MRCHUE: Inverse mode at  98     Hk =   2.500
 MRCHUE: Inverse mode at  99     Hk =   2.500
 MRCHUE: Inverse mode at 100     Hk =   2.500
 MRCHUE: Inverse mode at 101     Hk =   2.500
 MRCHUE: Inverse mode at 102     Hk =   2.500
 MRCHUE: Convergence failed at 103  side 1    Res =  0.5083E+01
 MRCHUE: Inverse mode at 104     Hk =   2.500
 MRCHUE: Inverse mode at 105     Hk =   2.500
 MRCHUE: Convergence failed at 106  side 1    Res =  0.6494E+01
 MRCHUE: Convergence failed at 107  side 1    Res =  0.6207E+01
    side            2  ...
 MRCHUE: Inverse mode at  48     Hk =   3.914
 MRCHUE: Inverse mode at  49     Hk =   4.378
 MRCHUE: Inverse mode at  50     Hk =   4.808
 MRCHUE: Inverse mode at  51     Hk =   5.198
 MRCHUE: Inverse mode at  52     Hk =   5.552
 MRCHUE: Convergence failed at  53  side 2    Res =  0.1864E+01
 MRCHUE: Inverse mode at  54     Hk =   5.841
 MRCHUE: Inverse mode at  55     Hk =   6.018

 MRCHDU: Convergence failed at 103  side 1    Res =  0.1487E+01
 MRCHDU: Convergence failed at 104  side 1    Res =  0.1529E+01
 MRCHDU: Convergence failed at 105  side 1    Res =  0.1568E+01
 MRCHDU: Convergence failed at 106  side 1    Res =  0.6354E+01
 MRCHDU: Convergence failed at 107  side 1    Res =  0.2106E+04
 Side 1  free  transition at x/c =  0.0778   56
 Side 2 forced transition at x/c =  1.0000   55
 idif Ue xi dudx           1  7.66595751E-02  8.62073898E-03   8.8924599    
 Uenew xinew           2  1.59815215E-02  1.79719925E-03

   1   rms: 0.1018E+01   max: -.5529E+01   C at   55  2   RLX: 0.090
       a = 16.250      CL =  2.0919
      Cm = -0.0861     CD =  0.00917   =>   CDf =  0.00803    CDp =  0.00114

 Side 1  free  transition at x/c =  0.0791   55
 Side 2 forced transition at x/c =  1.0000   56

   2   rms: 0.7129E+00   max: -.6010E+01   C at   56  2   RLX: 0.083
       a = 16.250      CL =  2.0447
      Cm = -0.0765     CD =  0.01096   =>   CDf =  0.00769    CDp =  0.00327

 Side 1  free  transition at x/c =  0.0803   55
 Side 2 forced transition at x/c =  1.0000   56

   3   rms: 0.5674E+00   max: -.3453E+01   C at   56  2   RLX: 0.145
       a = 16.250      CL =  1.9839
      Cm = -0.0649     CD =  0.01375   =>   CDf =  0.00775    CDp =  0.00600

 Side 1  free  transition at x/c =  0.0825   55
 Side 2 forced transition at x/c =  1.0000   56
 idif Ue xi dudx           1  7.09846169E-02  7.56323338E-03   9.3854856    
 Uenew xinew           2  1.06278332E-02  1.13236904E-03

   4   rms: 0.4059E+00   max: 0.1632E+01   D at   63  2   RLX: 0.308
       a = 16.250      CL =  1.8716
      Cm = -0.0386     CD =  0.01936   =>   CDf =  0.00835    CDp =  0.01102

 Side 1  free  transition at x/c =  0.0897   55
 Side 2 forced transition at x/c =  1.0000   57

   5   rms: 0.4592E+00   max: 0.1942E+01   D at   64  2   RLX: 0.325
       a = 16.250      CL =  1.7709
      Cm = -0.0322     CD =  0.02146   =>   CDf =  0.00802    CDp =  0.01344

 Side 1  free  transition at x/c =  0.0930   56
 Side 2 forced transition at x/c =  1.0000   57
 idif Ue xi dudx           1  0.10339166      1.01902485E-02   10.146137    
 Uenew xinew           2  4.17790264E-02  4.11772728E-03

   6   rms: 0.5607E+00   max: 0.1772E+01   D at   60  2   RLX: 0.295
       a = 16.250      CL =  1.5936
      Cm = -0.0107     CD =  0.02927   =>   CDf =  0.00859    CDp =  0.02068

 Side 1  free  transition at x/c =  0.0981   55
 Side 2 forced transition at x/c =  1.0000   58
 idif Ue xi dudx           1  9.52200890E-02  8.84389877E-03   10.766755    
 Uenew xinew           2  3.33901793E-02  3.10122967E-03

   7   rms: 0.2181E+00   max: 0.1104E+01   C at   58  2   RLX: 0.551
       a = 16.250      CL =  1.4121
      Cm =  0.0306     CD =  0.03971   =>   CDf =  0.00823    CDp =  0.03148

 Side 1  free  transition at x/c =  0.1071   55
 Side 2 forced transition at x/c =  1.0000   59
 idif Ue xi dudx           1  0.11933792      1.02424622E-02   11.651292    
 Uenew xinew           2  5.60188182E-02  4.80794907E-03

   8   rms: 0.2302E+00   max: 0.7315E+00   D at   89  1
       a = 16.250      CL =  1.1820
      Cm =  0.0549     CD =  0.05133   =>   CDf =  0.00790    CDp =  0.04344

 Side 1  free  transition at x/c =  0.1145   55
 Side 2 forced transition at x/c =  1.0000   60

   9   rms: 0.2248E-01   max: 0.2548E+00   D at   72  2
       a = 16.250      CL =  1.1871
      Cm =  0.0545     CD =  0.05189   =>   CDf =  0.00740    CDp =  0.04449

 Side 1  free  transition at x/c =  0.1147   55
 Side 2 forced transition at x/c =  1.0000   60

  10   rms: 0.3235E-02   max: 0.4853E-01   D at   72  2
       a = 16.250      CL =  1.1856
      Cm =  0.0546     CD =  0.05165   =>   CDf =  0.00734    CDp =  0.04430

 Side 1  free  transition at x/c =  0.1148   55
 Side 2 forced transition at x/c =  1.0000   60

  11   rms: 0.6690E-04   max: 0.1187E-02   D at   73  2
       a = 16.250      CL =  1.1855
      Cm =  0.0546     CD =  0.05163   =>   CDf =  0.00734    CDp =  0.04429
 plradd ia,ip,cpol            1           0  1.29489023E-02

 Point added to stored polar  1
 Point written to save file  goe775_Re200k.ext.pol                           
 Dump file unspecified or not available
 Calculating wake trajectory ...
 Calculating source influence matrix ...

 Solving BL system ...

 Side 1  free  transition at x/c =  0.1148   55
 Side 2 forced transition at x/c =  1.0000   60

   1   rms: 0.2677E-01   max: 0.1351E+00   T at   55  1   RLX: 0.557
       a = 16.500      CL =  1.1889
      Cm =  0.0546     CD =  0.05281   =>   CDf =  0.00734    CDp =  0.04546

 Side 1  free  transition at x/c =  0.1133   55
 Side 2 forced transition at x/c =  1.0000   60

   2   rms: 0.1149E-01   max: 0.6210E-01   T at   55  1
       a = 16.500      CL =  1.1932
      Cm =  0.0547     CD =  0.05342   =>   CDf =  0.00734    CDp =  0.04608

 Side 1  free  transition at x/c =  0.1123   55
 Side 2 forced transition at x/c =  1.0000   60

   3   rms: 0.1490E-02   max: -.1080E-01   D at   55  1
       a = 16.500      CL =  1.1935
      Cm =  0.0548     CD =  0.05328   =>   CDf =  0.00736    CDp =  0.04592

 Side 1  free  transition at x/c =  0.1123   55
 Side 2 forced transition at x/c =  1.0000   60

   4   rms: 0.2333E-03   max: -.9356E-03   D at   82  1
       a = 16.500      CL =  1.1937
      Cm =  0.0548     CD =  0.05328   =>   CDf =  0.00736    CDp =  0.04592

 Side 1  free  transition at x/c =  0.1123   55
 Side 2 forced transition at x/c =  1.0000   60

   5   rms: 0.8947E-05   max: -.5248E-04   D at   73  2
       a = 16.500      CL =  1.1937
      Cm =  0.0548     CD =  0.05328   =>   CDf =  0.00736    CDp =  0.04592
 plradd ia,ip,cpol            2           0  1.29489023E-02

 Point added to stored polar  1
 Point written to save file  goe775_Re200k.ext.pol                           
 Dump file unspecified or not available
 Calculating wake trajectory ...
 Calculating source influence matrix ...

 Solving BL system ...

 Side 1  free  transition at x/c =  0.1123   55
 Side 2 forced transition at x/c =  1.0000   60

   1   rms: 0.2791E-01   max: 0.1729E+00   T at   55  1   RLX: 0.547
       a = 16.750      CL =  1.2007
      Cm =  0.0549     CD =  0.05406   =>   CDf =  0.00737    CDp =  0.04669

 Side 1  free  transition at x/c =  0.1110   55
 Side 2 forced transition at x/c =  1.0000   60

   2   rms: 0.1931E-01   max: 0.1123E+00   T at   55  1
       a = 16.750      CL =  1.2150
      Cm =  0.0554     CD =  0.05371   =>   CDf =  0.00742    CDp =  0.04629

 Side 1  free  transition at x/c =  0.1098   54
 Side 2 forced transition at x/c =  1.0000   60

   3   rms: 0.1035E-01   max: 0.6088E-01   D at   55  1
       a = 16.750      CL =  1.2080
      Cm =  0.0552     CD =  0.05461   =>   CDf =  0.00749    CDp =  0.04712

 Side 1  free  transition at x/c =  0.1098   54
 Side 2 forced transition at x/c =  1.0000   60

   4   rms: 0.9015E-03   max: 0.7701E-02   D at   82  1
       a = 16.750      CL =  1.2075
      Cm =  0.0552     CD =  0.05453   =>   CDf =  0.00744    CDp =  0.04708

 Side 1  free  transition at x/c =  0.1098   54
 Side 2 forced transition at x/c =  1.0000   60

   5   rms: 0.6339E-04   max: 0.2744E-03   D at   73  2
       a = 16.750      CL =  1.2074
      Cm =  0.0552     CD =  0.05452   =>   CDf =  0.00744    CDp =  0.04708
 plradd ia,ip,cpol            3           0  1.29489023E-02

 Point added to stored polar  1
 Point written to save file  goe775_Re200k.ext.pol                           
 Dump file unspecified or not available
 Calculating wake trajectory ...
 Calculating source influence matrix ...

 Solving BL system ...

 Side 1  free  transition at x/c =  0.1098   54
 Side 2 forced transition at x/c =  1.0000   60

   1   rms: 0.3458E-01   max: 0.1475E+00   D at   80  1   RLX: 0.524
       a = 17.000      CL =  1.2027
      Cm =  0.0550     CD =  0.05656   =>   CDf =  0.00745    CDp =  0.04911

 Side 1  free  transition at x/c =  0.1088   54
 Side 2 forced transition at x/c =  1.0000   60

   2   rms: 0.1454E-01   max: 0.6041E-01   T at   54  1
       a = 17.000      CL =  1.2002
      Cm =  0.0548     CD =  0.05802   =>   CDf =  0.00732    CDp =  0.05070

 Side 1  free  transition at x/c =  0.1077   54
 Side 2 forced transition at x/c =  1.0000   60

   3   rms: 0.7490E-03   max: -.6751E-02   D at   55  1
       a = 17.000      CL =  1.1997
      Cm =  0.0548     CD =  0.05782   =>   CDf =  0.00722    CDp =  0.05059

 Side 1  free  transition at x/c =  0.1078   54
 Side 2 forced transition at x/c =  1.0000   60

   4   rms: 0.1049E-03   max: -.4692E-03   D at   81  1
       a = 17.000      CL =  1.1998
      Cm =  0.0548     CD =  0.05781   =>   CDf =  0.00723    CDp =  0.05059

 Side 1  free  transition at x/c =  0.1077   54
 Side 2 forced transition at x/c =  1.0000   60

   5   rms: 0.2713E-05   max: -.1987E-04   D at   74  2
       a = 17.000      CL =  1.1998
      Cm =  0.0548     CD =  0.05782   =>   CDf =  0.00723    CDp =  0.05059
 plradd ia,ip,cpol            4           0  1.29489023E-02

 Point added to stored polar  1
 Point written to save file  goe775_Re200k.ext.pol                           
 Dump file unspecified or not available
 Calculating wake trajectory ...
 Calculating source influence matrix ...

 Solving BL system ...

 Side 1  free  transition at x/c =  0.1077   54
 Side 2 forced transition at x/c =  1.0000   60

   1   rms: 0.2964E-01   max: 0.1249E+00   T at   54  1   RLX: 0.507
       a = 17.250      CL =  1.1983
      Cm =  0.0546     CD =  0.05956   =>   CDf =  0.00723    CDp =  0.05232

 Side 1  free  transition at x/c =  0.1066   54
 Side 2 forced transition at x/c =  1.0000   60

   2   rms: 0.1308E-01   max: 0.5873E-01   T at   54  1
       a = 17.250      CL =  1.1984
      Cm =  0.0544     CD =  0.06082   =>   CDf =  0.00716    CDp =  0.05366

 Side 1  free  transition at x/c =  0.1055   54
 Side 2 forced transition at x/c =  1.0000   60

   3   rms: 0.9771E-03   max: -.6676E-02   D at   55  1
       a = 17.250      CL =  1.1982
      Cm =  0.0545     CD =  0.06060   =>   CDf =  0.00711    CDp =  0.05349

 Side 1  free  transition at x/c =  0.1055   54
 Side 2 forced transition at x/c =  1.0000   60

   4   rms: 0.1894E-03   max: -.8210E-03   D at   80  1
       a = 17.250      CL =  1.1984
      Cm =  0.0545     CD =  0.06060   =>   CDf =  0.00711    CDp =  0.05348

 Side 1  free  transition at x/c =  0.1055   54
 Side 2 forced transition at x/c =  1.0000   60

   5   rms: 0.7866E-05   max: -.5700E-04   D at   74  2
       a = 17.250      CL =  1.1984
      Cm =  0.0545     CD =  0.06060   =>   CDf =  0.00711    CDp =  0.05348
 plradd ia,ip,cpol            5           0  1.29489023E-02

 Point added to stored polar  1
 Point written to save file  goe775_Re200k.ext.pol                           
 Dump file unspecified or not available
 Calculating wake trajectory ...
 Calculating source influence matrix ...

 Solving BL system ...

 Side 1  free  transition at x/c =  0.1055   54
 Side 2 forced transition at x/c =  1.0000   60

   1   rms: 0.2625E-01   max: 0.1283E+00   T at   54  1   RLX: 0.494
       a = 17.500      CL =  1.1998
      Cm =  0.0543     CD =  0.06197   =>   CDf =  0.00712    CDp =  0.05485

 Side 1  free  transition at x/c =  0.1044   54
 Side 2 forced transition at x/c =  1.0000   60

   2   rms: 0.1256E-01   max: 0.6551E-01   T at   54  1
       a = 17.500      CL =  1.2031
      Cm =  0.0542     CD =  0.06291   =>   CDf =  0.00683    CDp =  0.05608

 Side 1  free  transition at x/c =  0.1033   55
 Side 2 forced transition at x/c =  1.0000   59

   3   rms: 0.1906E-02   max: -.1099E-01   D at   55  1
       a = 17.500      CL =  1.2037
      Cm =  0.0543     CD =  0.06264   =>   CDf =  0.00710    CDp =  0.05553

 Side 1  free  transition at x/c =  0.1034   55
 Side 2 forced transition at x/c =  1.0000   59

   4   rms: 0.4641E-03   max: -.4268E-02   D at    4  1
       a = 17.500      CL =  1.2040
      Cm =  0.0543     CD =  0.06264   =>   CDf =  0.00710    CDp =  0.05554

 Side 1  free  transition at x/c =  0.1034   55
 Side 2 forced transition at x/c =  1.0000   59

   5   rms: 0.1753E-04   max: -.9878E-04   D at   73  2
       a = 17.500      CL =  1.2040
      Cm =  0.0543     CD =  0.06265   =>   CDf =  0.00711    CDp =  0.05554
 plradd ia,ip,cpol            6           0  1.29489023E-02

 Point added to stored polar  1
 Point written to save file  goe775_Re200k.ext.pol                           
 Dump file unspecified or not available
 Calculating wake trajectory ...
 Calculating source influence matrix ...

 Solving BL system ...

 Side 1  free  transition at x/c =  0.1034   55
 Side 2 forced transition at x/c =  1.0000   59

   1   rms: 0.2638E-01   max: 0.1562E+00   T at   55  1   RLX: 0.486
       a = 17.750      CL =  1.2093
      Cm =  0.0542     CD =  0.06347   =>   CDf =  0.00711    CDp =  0.05636

 Side 1  free  transition at x/c =  0.1023   55
 Side 2 forced transition at x/c =  1.0000   59

   2   rms: 0.1640E-01   max: 0.9758E-01   T at   55  1
       a = 17.750      CL =  1.2201
      Cm =  0.0546     CD =  0.06354   =>   CDf =  0.00715    CDp =  0.05639

 Side 1  free  transition at x/c =  0.1012   55
 Side 2 forced transition at x/c =  1.0000   59

   3   rms: 0.7145E-02   max: -.3179E-01   D at   81  1
       a = 17.750      CL =  1.2249
      Cm =  0.0549     CD =  0.06292   =>   CDf =  0.00723    CDp =  0.05569

 Side 1  free  transition at x/c =  0.1010   55
 Side 2 forced transition at x/c =  1.0000   59

   4   rms: 0.2006E-02   max: 0.6717E-02   T at   55  1
       a = 17.750      CL =  1.2265
      Cm =  0.0550     CD =  0.06289   =>   CDf =  0.00728    CDp =  0.05561

 Side 1  free  transition at x/c =  0.1010   54
 Side 2 forced transition at x/c =  1.0000   59

   5   rms: 0.7385E-03   max: 0.4316E-02   D at   81  1
       a = 17.750      CL =  1.2260
      Cm =  0.0550     CD =  0.06298   =>   CDf =  0.00729    CDp =  0.05569

 Side 1  free  transition at x/c =  0.1010   54
 Side 2 forced transition at x/c =  1.0000   59

   6   rms: 0.3592E-04   max: 0.2611E-03   D at   73  2
       a = 17.750      CL =  1.2260
      Cm =  0.0550     CD =  0.06297   =>   CDf =  0.00729    CDp =  0.05568
 plradd ia,ip,cpol            7           0  1.29489023E-02

 Point added to stored polar  1
 Point written to save file  goe775_Re200k.ext.pol                           
 Dump file unspecified or not available
 Calculating wake trajectory ...
 Calculating source influence matrix ...

 Solving BL system ...

 Side 1  free  transition at x/c =  0.1010   54
 Side 2 forced transition at x/c =  1.0000   59

   1   rms: 0.3775E-01   max: 0.1676E+00   D at   79  1   RLX: 0.470
       a = 18.000      CL =  1.2191
      Cm =  0.0543     CD =  0.06535   =>   CDf =  0.00730    CDp =  0.05805

 Side 1  free  transition at x/c =  0.1003   54
 Side 2 forced transition at x/c =  1.0000   59

   2   rms: 0.1937E-01   max: 0.8683E-01   D at   80  1
       a = 18.000      CL =  1.2116
      Cm =  0.0537     CD =  0.06773   =>   CDf =  0.00716    CDp =  0.06057

 Side 1  free  transition at x/c =  0.0994   54
 Side 2 forced transition at x/c =  1.0000   59

   3   rms: 0.1229E-02   max: 0.1342E-01   D at   80  1
       a = 18.000      CL =  1.2107
      Cm =  0.0538     CD =  0.06741   =>   CDf =  0.00702    CDp =  0.06039

 Side 1  free  transition at x/c =  0.0995   54
 Side 2 forced transition at x/c =  1.0000   59

   4   rms: 0.8742E-04   max: -.4249E-03   D at   80  1
       a = 18.000      CL =  1.2107
      Cm =  0.0538     CD =  0.06740   =>   CDf =  0.00702    CDp =  0.06037
 plradd ia,ip,cpol            8           0  1.29489023E-02

 Point added to stored polar  1
 Point written to save file  goe775_Re200k.ext.pol                           
 Dump file unspecified or not available

.OPERva   c>   Calculating wake trajectory ...
 Calculating source influence matrix ...

 Solving BL system ...

 Side 1  free  transition at x/c =  0.0995   54
 Side 2 forced transition at x/c =  1.0000   59

   1   rms: 0.3354E-01   max: 0.1492E+00   D at   77  1   RLX: 0.452
       a = 18.250      CL =  1.2061
      Cm =  0.0531     CD =  0.06959   =>   CDf =  0.00703    CDp =  0.06256

 Side 1  free  transition at x/c =  0.0986   54
 Side 2 forced transition at x/c =  1.0000   59

   2   rms: 0.1665E-01   max: 0.7152E-01   D at   78  1
       a = 18.250      CL =  1.2020
      Cm =  0.0525     CD =  0.07172   =>   CDf =  0.00693    CDp =  0.06479

 Side 1  free  transition at x/c =  0.0976   54
 Side 2 forced transition at x/c =  1.0000   59

   3   rms: 0.1115E-02   max: 0.8606E-02   D at   74  2
       a = 18.250      CL =  1.2012
      Cm =  0.0526     CD =  0.07137   =>   CDf =  0.00684    CDp =  0.06454

 Side 1  free  transition at x/c =  0.0977   54
 Side 2 forced transition at x/c =  1.0000   59

   4   rms: 0.1339E-03   max: -.6295E-03   D at   79  1
       a = 18.250      CL =  1.2013
      Cm =  0.0526     CD =  0.07136   =>   CDf =  0.00684    CDp =  0.06452

 Side 1  free  transition at x/c =  0.0977   54
 Side 2 forced transition at x/c =  1.0000   59

   5   rms: 0.5916E-05   max: -.4488E-04   D at   74  2
       a = 18.250      CL =  1.2013
      Cm =  0.0526     CD =  0.07136   =>   CDf =  0.00684    CDp =  0.06452
 plradd ia,ip,cpol            9           0  1.29489023E-02

 Point added to stored polar  1
 Point written to save file  goe775_Re200k.ext.pol                           
 Dump file unspecified or not available
 Calculating wake trajectory ...
 Calculating source influence matrix ...

 Solving BL system ...

 Side 1  free  transition at x/c =  0.0977   54
 Side 2 forced transition at x/c =  1.0000   59

   1   rms: 0.5612E-01   max: 0.2358E+00   D at   76  1   RLX: 0.426
       a = 18.750      CL =  1.1980
      Cm =  0.0516     CD =  0.07484   =>   CDf =  0.00685    CDp =  0.06799

 Side 1  free  transition at x/c =  0.0961   54
 Side 2 forced transition at x/c =  1.0000   59

   2   rms: 0.2741E-01   max: 0.1294E+00   T at   54  1
       a = 18.750      CL =  1.2005
      Cm =  0.0509     CD =  0.07790   =>   CDf =  0.00676    CDp =  0.07114

 Side 1  free  transition at x/c =  0.0942   54
 Side 2 forced transition at x/c =  1.0000   59

   3   rms: 0.8880E-02   max: -.4277E-01   D at   78  1
       a = 18.750      CL =  1.2046
      Cm =  0.0514     CD =  0.07648   =>   CDf =  0.00673    CDp =  0.06975

 Side 1  free  transition at x/c =  0.0942   54
 Side 2 forced transition at x/c =  1.0000   59

   4   rms: 0.1718E-02   max: -.5869E-02   D at   78  1
       a = 18.750      CL =  1.2061
      Cm =  0.0514     CD =  0.07653   =>   CDf =  0.00675    CDp =  0.06978

 Side 1  free  transition at x/c =  0.0942   54
 Side 2 forced transition at x/c =  1.0000   59

   5   rms: 0.1310E-03   max: -.6398E-03   D at   74  2
       a = 18.750      CL =  1.2062
      Cm =  0.0514     CD =  0.07655   =>   CDf =  0.00676    CDp =  0.06979

 Side 1  free  transition at x/c =  0.0942   54
 Side 2 forced transition at x/c =  1.0000   59

   6   rms: 0.5458E-05   max: -.3686E-04   D at   74  2
       a = 18.750      CL =  1.2062
      Cm =  0.0514     CD =  0.07655   =>   CDf =  0.00676    CDp =  0.06979
 plradd ia,ip,cpol           10           0  1.29489023E-02

 Point added to stored polar  1
 Point written to save file  goe775_Re200k.ext.pol                           
 Dump file unspecified or not available
 Calculating wake trajectory ...
 Calculating source influence matrix ...

 Solving BL system ...

 Side 1  free  transition at x/c =  0.0942   54
 Side 2 forced transition at x/c =  1.0000   59

   1   rms: 0.5433E-01   max: 0.2994E+00   T at   54  1   RLX: 0.419
       a = 19.250      CL =  1.2188
      Cm =  0.0514     CD =  0.07753   =>   CDf =  0.00649    CDp =  0.07104

 Side 1  free  transition at x/c =  0.0928   55
 Side 2 forced transition at x/c =  1.0000   58

   2   rms: 0.5930E-01   max: 0.2736E+00   T at   55  1
       a = 19.250      CL =  1.2631
      Cm =  0.0540     CD =  0.07462   =>   CDf =  0.00685    CDp =  0.06777

 Side 1  free  transition at x/c =  0.0908   54
 Side 2 forced transition at x/c =  1.0000   58

   3   rms: 0.7102E-01   max: 0.3496E+00   D at   81  1
       a = 19.250      CL =  1.2129
      Cm =  0.0498     CD =  0.08349   =>   CDf =  0.00685    CDp =  0.07664

 Side 1  free  transition at x/c =  0.0912   54
 Side 2 forced transition at x/c =  1.0000   58

   4   rms: 0.1061E-01   max: 0.9853E-01   D at   79  1
       a = 19.250      CL =  1.2084
      Cm =  0.0499     CD =  0.08253   =>   CDf =  0.00667    CDp =  0.07587

 Side 1  free  transition at x/c =  0.0912   54
 Side 2 forced transition at x/c =  1.0000   58

   5   rms: 0.1319E-02   max: 0.1047E-01   D at   78  1
       a = 19.250      CL =  1.2075
      Cm =  0.0499     CD =  0.08238   =>   CDf =  0.00664    CDp =  0.07574

 Side 1  free  transition at x/c =  0.0912   54
 Side 2 forced transition at x/c =  1.0000   58

   6   rms: 0.5702E-04   max: 0.4227E-03   D at   74  2
       a = 19.250      CL =  1.2074
      Cm =  0.0499     CD =  0.08235   =>   CDf =  0.00664    CDp =  0.07571
 plradd ia,ip,cpol           11           0  1.29489023E-02

 Point added to stored polar  1
 Point written to save file  goe775_Re200k.ext.pol                           
 Dump file unspecified or not available
 Calculating wake trajectory ...
 Calculating source influence matrix ...

 Solving BL system ...

 Side 1  free  transition at x/c =  0.0912   54
 Side 2 forced transition at x/c =  1.0000   58

   1   rms: 0.7828E-01   max: 0.3623E+00   D at   75  1   RLX: 0.379
       a = 19.750      CL =  1.1934
      Cm =  0.0480     CD =  0.08750   =>   CDf =  0.00666    CDp =  0.08084

 Side 1  free  transition at x/c =  0.0901   54
 Side 2 forced transition at x/c =  1.0000   58

   2   rms: 0.4877E-01   max: 0.2292E+00   D at   77  1
       a = 19.750      CL =  1.1701
      Cm =  0.0446     CD =  0.09560   =>   CDf =  0.00646    CDp =  0.08914

 Side 1  free  transition at x/c =  0.0884   54
 Side 2 forced transition at x/c =  1.0000   58

   3   rms: 0.4604E-02   max: 0.4165E-01   D at   76  1
       a = 19.750      CL =  1.1682
      Cm =  0.0449     CD =  0.09392   =>   CDf =  0.00620    CDp =  0.08772

 Side 1  free  transition at x/c =  0.0885   54
 Side 2 forced transition at x/c =  1.0000   58

   4   rms: 0.1142E-02   max: -.5030E-02   D at   76  1
       a = 19.750      CL =  1.1692
      Cm =  0.0450     CD =  0.09381   =>   CDf =  0.00620    CDp =  0.08761

 Side 1  free  transition at x/c =  0.0885   54
 Side 2 forced transition at x/c =  1.0000   58

   5   rms: 0.8923E-04   max: -.5023E-03   D at   74  2
       a = 19.750      CL =  1.1692
      Cm =  0.0450     CD =  0.09384   =>   CDf =  0.00621    CDp =  0.08763
 plradd ia,ip,cpol           12           0  1.08191939E-02

 Point added to stored polar  1
 Point written to save file  goe775_Re200k.ext.pol                           
 Dump file unspecified or not available
 Calculating wake trajectory ...
 Calculating source influence matrix ...

 Solving BL system ...

 Side 1  free  transition at x/c =  0.0885   54
 Side 2 forced transition at x/c =  1.0000   58

   1   rms: 0.5990E-01   max: 0.2806E+00   D at   73  1   RLX: 0.357
       a = 20.250      CL =  1.1623
      Cm =  0.0433     CD =  0.09799   =>   CDf =  0.00622    CDp =  0.09176

 Side 1  free  transition at x/c =  0.0875   54
 Side 2 forced transition at x/c =  1.0000   58

   2   rms: 0.3037E-01   max: 0.1430E+00   T at   54  1
       a = 20.250      CL =  1.1603
      Cm =  0.0412     CD =  0.10286   =>   CDf =  0.00613    CDp =  0.09673

 Side 1  free  transition at x/c =  0.0857   54
 Side 2 forced transition at x/c =  1.0000   58

   3   rms: 0.1878E-01   max: -.7977E-01   D at   75  1
       a = 20.250      CL =  1.1710
      Cm =  0.0427     CD =  0.09913   =>   CDf =  0.00608    CDp =  0.09305

 Side 1  free  transition at x/c =  0.0858   54
 Side 2 forced transition at x/c =  1.0000   58

   4   rms: 0.3838E-02   max: -.1298E-01   D at   77  2
       a = 20.250      CL =  1.1743
      Cm =  0.0428     CD =  0.09933   =>   CDf =  0.00616    CDp =  0.09318

 Side 1  free  transition at x/c =  0.0857   54
 Side 2 forced transition at x/c =  1.0000   58

   5   rms: 0.5006E-03   max: -.1917E-02   D at   74  2
       a = 20.250      CL =  1.1747
      Cm =  0.0428     CD =  0.09938   =>   CDf =  0.00617    CDp =  0.09322

 Side 1  free  transition at x/c =  0.0857   54
 Side 2 forced transition at x/c =  1.0000   58

   6   rms: 0.6939E-04   max: -.2504E-03   D at   74  2
       a = 20.250      CL =  1.1748
      Cm =  0.0428     CD =  0.09939   =>   CDf =  0.00617    CDp =  0.09322
 plradd ia,ip,cpol           13           0  1.08191939E-02

 Point added to stored polar  1
 Point written to save file  goe775_Re200k.ext.pol                           
 Dump file unspecified or not available
 Calculating wake trajectory ...
 Calculating source influence matrix ...

 Solving BL system ...

 Side 1  free  transition at x/c =  0.0857   54
 Side 2 forced transition at x/c =  1.0000   58

   1   rms: 0.7131E-01   max: 0.3143E+00   T at   54  1   RLX: 0.361
       a = 20.750      CL =  1.1927
      Cm =  0.0434     CD =  0.09880   =>   CDf =  0.00619    CDp =  0.09261

 Side 1  free  transition at x/c =  0.0847   54
 Side 2 forced transition at x/c =  1.0000   58

   2   rms: 0.9355E-01   max: 0.3163E+00   T at   54  1
       a = 20.750      CL =  1.2654
      Cm =  0.0493     CD =  0.09024   =>   CDf =  0.00600    CDp =  0.08424

 MRCHDU: Convergence failed at  76  side 1    Res =  0.1786E+02
 Side 1  free  transition at x/c =  0.0828   54
 Side 2 forced transition at x/c =  1.0000   57
 idif Ue xi dudx           1  6.59263805E-02  6.53958321E-03   10.081129    
 Uenew xinew           2  4.70851222E-03  4.67061996E-04

   3   rms: 0.1407E+00   max: 0.7417E+00   D at   79  1
       a = 20.750      CL =  1.1748
      Cm =  0.0387     CD =  0.11129   =>   CDf =  0.00668    CDp =  0.10461

 Side 1  free  transition at x/c =  0.0832   53
 Side 2 forced transition at x/c =  1.0000   58

   4   rms: 0.4596E-01   max: 0.3436E+00   D at   75  1
       a = 20.750      CL =  1.1493
      Cm =  0.0374     CD =  0.11212   =>   CDf =  0.00603    CDp =  0.10609

 Side 1  free  transition at x/c =  0.0834   53
 Side 2 forced transition at x/c =  1.0000   58

   5   rms: 0.8147E-02   max: 0.5187E-01   D at   73  1
       a = 20.750      CL =  1.1435
      Cm =  0.0373     CD =  0.11096   =>   CDf =  0.00589    CDp =  0.10507

 Side 1  free  transition at x/c =  0.0835   53
 Side 2 forced transition at x/c =  1.0000   58

   6   rms: 0.4594E-03   max: 0.3769E-02   D at   75  2
       a = 20.750      CL =  1.1433
      Cm =  0.0374     CD =  0.11068   =>   CDf =  0.00588    CDp =  0.10480

 Side 1  free  transition at x/c =  0.0835   53
 Side 2 forced transition at x/c =  1.0000   58

   7   rms: 0.2358E-04   max: -.9101E-04   D at   71  1
       a = 20.750      CL =  1.1433
      Cm =  0.0374     CD =  0.11067   =>   CDf =  0.00588    CDp =  0.10479
 plradd ia,ip,cpol           14           0  1.08191939E-02

 Point added to stored polar  1
 Point written to save file  goe775_Re200k.ext.pol                           
 Dump file unspecified or not available
 Calculating wake trajectory ...
 Calculating source influence matrix ...

 Solving BL system ...

 Side 1  free  transition at x/c =  0.0835   53
 Side 2 forced transition at x/c =  1.0000   58

   1   rms: 0.1801E+00   max: 0.7945E+00   D at   70  1   RLX: 0.305
       a = 21.250      CL =  1.1084
      Cm =  0.0325     CD =  0.12103   =>   CDf =  0.00590    CDp =  0.11513

 Side 1  free  transition at x/c =  0.0829   53
 Side 2 forced transition at x/c =  1.0000   58
 idif Ue xi dudx           1  9.75603163E-02  9.15336609E-03   10.658409    
 Uenew xinew           2  3.63526046E-02  3.41069698E-03

   2   rms: 0.2612E+00   max: 0.1066E+01   D at   71  1
       a = 21.250      CL =  0.9442
      Cm =  0.0109     CD =  0.16849   =>   CDf =  0.00587    CDp =  0.16262

 MRCHDU: Convergence failed at  63  side 1    Res =  0.1113E+01
 MRCHDU: Convergence failed at  64  side 1    Res =  0.2321E+01
 MRCHDU: Convergence failed at  65  side 1    Res =  0.1279E+02
 MRCHDU: Convergence failed at  66  side 1    Res =  0.3353E+01
 MRCHDU: Convergence failed at  67  side 1    Res =  0.1965E+01
 MRCHDU: Convergence failed at  68  side 1    Res =  0.1999E+02
 MRCHDU: Convergence failed at  69  side 1    Res =  0.1635E+01
 Side 1  free  transition at x/c =  0.0820   52
 Side 2 forced transition at x/c =  1.0000   59

   3   rms: 0.1777E+00   max: 0.1604E+01   D at   69  1   RLX: 0.935
       a = 21.250      CL =  1.0087
      Cm =  0.0151     CD =  0.14419   =>   CDf =  0.00505    CDp =  0.13914

 Side 1  free  transition at x/c =  0.0784   52
 Side 2 forced transition at x/c =  1.0000   59

   4   rms: 0.4170E+00   max: -.1682E+01   D at   61  1   RLX: 0.297
       a = 21.250      CL =  1.1200
      Cm =  0.0015     CD =  0.12440   =>   CDf =  0.00467    CDp =  0.11973

 Side 1  free  transition at x/c =  0.0811   53
 Side 2 forced transition at x/c =  1.0000   58

   5   rms: 0.1470E+00   max: -.6954E+00   D at   63  1   RLX: 0.719
       a = 21.250      CL =  1.1342
      Cm =  0.0246     CD =  0.11776   =>   CDf =  0.00515    CDp =  0.11261

 Side 1  free  transition at x/c =  0.0822   53
 Side 2 forced transition at x/c =  1.0000   58
 idif Ue xi dudx           2  0.12484619      1.17113590E-02   10.660265    
 Uenew xinew           3  6.36278167E-02  5.96868992E-03

   6   rms: 0.4996E+00   max: 0.2196E+01   D at   70  1   RLX: 0.683
       a = 21.250      CL =  0.9046
      Cm =  0.0006     CD =  0.18351   =>   CDf =  0.00595    CDp =  0.17756

 MRCHDU: Convergence failed at  60  side 1    Res =  0.1723E+01
 MRCHDU: Convergence failed at  61  side 1    Res =  0.2968E+01
 MRCHDU: Convergence failed at  62  side 1    Res =  0.9719E+02
 MRCHDU: Convergence failed at  63  side 1    Res =  0.3595E+01
 MRCHDU: Convergence failed at  64  side 1    Res =  0.1869E+01
 MRCHDU: Convergence failed at  65  side 1    Res =  0.2894E+01
 MRCHDU: Convergence failed at  66  side 1    Res =  0.1543E+02
 MRCHDU: Convergence failed at  67  side 1    Res =  0.3449E+01
 MRCHDU: Convergence failed at  68  side 1    Res =  0.1881E+01
 Side 1  free  transition at x/c =  0.0824   51
 Side 2 forced transition at x/c =  1.0000   60

   7   rms: 0.2450E+00   max: 0.1761E+01   D at   68  1   RLX: 0.852
       a = 21.250      CL =  1.0484
      Cm =  0.0081     CD =  0.13867   =>   CDf =  0.00486    CDp =  0.13382

 Side 1  free  transition at x/c =  0.0782   52
 Side 2 forced transition at x/c =  1.0000   59

   8   rms: 0.5270E+00   max: -.2122E+01   D at   62  1   RLX: 0.236
       a = 21.250      CL =  1.1496
      Cm = -0.0042     CD =  0.12340   =>   CDf =  0.00468    CDp =  0.11872

 Side 1  free  transition at x/c =  0.0807   53
 Side 2 forced transition at x/c =  1.0000   58

   9   rms: 0.1829E+00   max: -.8131E+00   D at   64  1   RLX: 0.615
       a = 21.250      CL =  1.1639
      Cm =  0.0203     CD =  0.11608   =>   CDf =  0.00514    CDp =  0.11094

 Side 1  free  transition at x/c =  0.0822   53
 Side 2 forced transition at x/c =  1.0000   58
 idif Ue xi dudx           1  0.11301934      1.06236935E-02   10.638423    
 Uenew xinew           2  5.19264005E-02  4.88102436E-03

  10   rms: 0.3472E+00   max: 0.1626E+01   D at   70  1   RLX: 0.922
       a = 21.250      CL =  0.9184
      Cm =  0.0061     CD =  0.17519   =>   CDf =  0.00579    CDp =  0.16940

 MRCHDU: Convergence failed at  62  side 1    Res =  0.1170E+01
 MRCHDU: Convergence failed at  63  side 1    Res =  0.4026E+01
 MRCHDU: Convergence failed at  64  side 1    Res =  0.5256E+01
 MRCHDU: Convergence failed at  65  side 1    Res =  0.2193E+01
 MRCHDU: Convergence failed at  66  side 1    Res =  0.1875E+01
 MRCHDU: Convergence failed at  67  side 1    Res =  0.3332E+01
 MRCHDU: Convergence failed at  68  side 1    Res =  0.7242E+02
 MRCHDU: Convergence failed at  69  side 1    Res =  0.3084E+01
 Side 1  free  transition at x/c =  0.0821   52
 Side 2 forced transition at x/c =  1.0000   59

  11   rms: 0.2014E+00   max: 0.1575E+01   D at   69  1   RLX: 0.952
       a = 21.250      CL =  1.0264
      Cm =  0.0174     CD =  0.13898   =>   CDf =  0.00503    CDp =  0.13395

 Side 1  free  transition at x/c =  0.0785   52
 Side 2 forced transition at x/c =  1.0000   59

  12   rms: 0.3425E+00   max: -.1418E+01   D at   62  1   RLX: 0.353
       a = 21.250      CL =  1.1291
      Cm =  0.0051     CD =  0.12303   =>   CDf =  0.00471    CDp =  0.11832

 Side 1  free  transition at x/c =  0.0811   53
 Side 2 forced transition at x/c =  1.0000   58

  13   rms: 0.1867E+00   max: -.8319E+00   D at   65  1   RLX: 0.601
       a = 21.250      CL =  1.1656
      Cm =  0.0244     CD =  0.11423   =>   CDf =  0.00521    CDp =  0.10902

 Side 1  free  transition at x/c =  0.0820   53
 Side 2 forced transition at x/c =  1.0000   58
 idif Ue xi dudx           1  0.11137853      1.04871988E-02   10.620427    
 Uenew xinew           2  5.03889322E-02  4.74452972E-03

  14   rms: 0.3303E+00   max: 0.1491E+01   D at   70  1
       a = 21.250      CL =  0.9174
      Cm =  0.0073     CD =  0.17524   =>   CDf =  0.00584    CDp =  0.16940

 MRCHDU: Convergence failed at  62  side 1    Res =  0.1049E+01
 MRCHDU: Convergence failed at  63  side 1    Res =  0.2474E+01
 MRCHDU: Convergence failed at  64  side 1    Res =  0.3090E+02
 MRCHDU: Convergence failed at  65  side 1    Res =  0.2815E+01
 MRCHDU: Convergence failed at  66  side 1    Res =  0.1781E+01
 MRCHDU: Convergence failed at  67  side 1    Res =  0.2932E+01
 MRCHDU: Convergence failed at  68  side 1    Res =  0.1593E+02
 MRCHDU: Convergence failed at  69  side 1    Res =  0.3868E+01
 MRCHDU: Convergence failed at  70  side 1    Res =  0.3038E+01
 Side 1  free  transition at x/c =  0.0823   52
 Side 2 forced transition at x/c =  1.0000   59

  15   rms: 0.2486E+00   max: 0.1226E+01   D at   70  1   RLX: 0.787
       a = 21.250      CL =  1.1011
      Cm =  0.0072     CD =  0.12780   =>   CDf =  0.00487    CDp =  0.12293

 Side 1  free  transition at x/c =  0.0818   53
 Side 2 forced transition at x/c =  1.0000   58

  16   rms: 0.9802E-01   max: -.4554E+00   D at   62  1
       a = 21.250      CL =  1.1167
      Cm =  0.0323     CD =  0.11828   =>   CDf =  0.00530    CDp =  0.11298

 Side 1  free  transition at x/c =  0.0811   53
 Side 2 forced transition at x/c =  1.0000   58
 idif Ue xi dudx           2  0.13769138      1.28635168E-02   10.704023    
 Uenew xinew           3  7.62217194E-02  7.12084770E-03

  17   rms: 0.4463E+00   max: 0.1730E+01   D at   71  1   RLX: 0.867
       a = 21.250      CL =  0.8756
      Cm = -0.0011     CD =  0.19261   =>   CDf =  0.00592    CDp =  0.18669

 MRCHDU: Convergence failed at  59  side 1    Res =  0.2467E+01
 MRCHDU: Convergence failed at  60  side 1    Res =  0.2638E+01
 MRCHDU: Convergence failed at  61  side 1    Res =  0.3746E+01
 MRCHDU: Convergence failed at  62  side 1    Res =  0.8926E+01
 MRCHDU: Convergence failed at  63  side 1    Res =  0.1520E+02
 MRCHDU: Convergence failed at  64  side 1    Res =  0.3427E+01
 MRCHDU: Convergence failed at  65  side 1    Res =  0.3850E+01
 MRCHDU: Convergence failed at  66  side 1    Res =  0.5359E+01
 MRCHDU: Convergence failed at  67  side 1    Res =  0.2027E+01
 MRCHDU: Convergence failed at  68  side 1    Res =  0.1090E+03
 Side 1  free  transition at x/c =  0.0820   51
 Side 2 forced transition at x/c =  1.0000   60

  18   rms: 0.2775E+00   max: 0.1796E+01   D at   68  1   RLX: 0.835
       a = 21.250      CL =  1.0653
      Cm =  0.0055     CD =  0.13599   =>   CDf =  0.00486    CDp =  0.13113

 Side 1  free  transition at x/c =  0.0789   52
 Side 2 forced transition at x/c =  1.0000   59
 idif Ue xi dudx           1  8.99217129E-02  7.96687603E-03   11.286947    
 Uenew xinew           2  2.85826474E-02  2.53236294E-03

  19   rms: 0.7249E+00   max: 0.4041E+01   D at   65  1   RLX: 0.371
       a = 21.250      CL =  0.9157
      Cm = -0.0179     CD =  0.18619   =>   CDf =  0.00525    CDp =  0.18094

 MRCHDU: Convergence failed at  62  side 1    Res =  0.8858E+00
 MRCHDU: Convergence failed at  63  side 1    Res =  0.1219E+01
 MRCHDU: Convergence failed at  64  side 1    Res =  0.1706E+01
 Side 1  free  transition at x/c =  0.0784   51
 Side 2 forced transition at x/c =  1.0000   60
 idif Ue xi dudx           1  6.47752285E-02  5.57410717E-03   11.620736    
 Uenew xinew           2  4.96075815E-03  4.26888466E-04

  20   rms: 0.2608E+00   max: 0.1957E+01   D at   64  1   RLX: 0.766
       a = 21.250      CL =  0.8495
      Cm = -0.0091     CD =  0.19370   =>   CDf =  0.00498    CDp =  0.18871

 Side 1  free  transition at x/c =  0.0770   49
 Side 2 forced transition at x/c =  1.0000   61

  21   rms: 0.3528E+00   max: 0.1238E+01   D at    2  2   RLX: 0.429
       a = 21.250      CL =  0.9079
      Cm = -0.0013     CD =  0.15309   =>   CDf =  0.00460    CDp =  0.14849

 Side 1  free  transition at x/c =  0.0820   51
 Side 2 forced transition at x/c =  1.0000   60

  22   rms: 0.3407E+00   max: -.8863E-01   U at   82  2   RLX: 0.790
       a = 21.250      CL =  1.0827
      Cm =  0.0362     CD =  0.11998   =>   CDf =  0.00502    CDp =  0.11496

 Side 1  free  transition at x/c =  0.0827   53
 Side 2 forced transition at x/c =  1.0000   58

  23   rms: 0.7677E-01   max: 0.5085E+00   D at   67  1
       a = 21.250      CL =  1.0912
      Cm =  0.0283     CD =  0.12926   =>   CDf =  0.00561    CDp =  0.12365

 Side 1  free  transition at x/c =  0.0812   53
 Side 2 forced transition at x/c =  1.0000   58

  24   rms: 0.4033E+01   max: -.1557E+02   D at   68  1   RLX: 0.032
       a = 21.250      CL =  1.2026
      Cm =  0.0298     CD =  0.10509   =>   CDf =  0.00514    CDp =  0.09995

 Side 1  free  transition at x/c =  0.0816   54
 Side 2 forced transition at x/c =  1.0000   57
 idif Ue xi dudx           1  9.71312299E-02  9.56988335E-03   10.149677    
 Uenew xinew           2  3.54970954E-02  3.49736214E-03

  25   rms: 0.1723E+00   max: 0.8093E+00   D at   73  1
       a = 21.250      CL =  1.0644
      Cm =  0.0246     CD =  0.13838   =>   CDf =  0.00607    CDp =  0.13231

 Side 1  free  transition at x/c =  0.0815   53
 Side 2 forced transition at x/c =  1.0000   58

  26   rms: 0.2756E+00   max: -.1127E+01   D at   66  1   RLX: 0.444
       a = 21.250      CL =  1.1571
      Cm =  0.0320     CD =  0.10968   =>   CDf =  0.00506    CDp =  0.10463

 Side 1  free  transition at x/c =  0.0818   54
 Side 2 forced transition at x/c =  1.0000   57
 idif Ue xi dudx           1  0.10756738      1.04963779E-02   10.248048    
 Uenew xinew           2  4.53358963E-02  4.42385674E-03

  27   rms: 0.2073E+00   max: 0.1068E+01   D at   73  1   RLX: 0.772
       a = 21.250      CL =  1.0500
      Cm =  0.0200     CD =  0.14193   =>   CDf =  0.00593    CDp =  0.13600

 Side 1  free  transition at x/c =  0.0817   53
 Side 2 forced transition at x/c =  1.0000   58

  28   rms: 0.1775E+00   max: -.7768E+00   D at   65  1   RLX: 0.644
       a = 21.250      CL =  1.1260
      Cm =  0.0307     CD =  0.11510   =>   CDf =  0.00522    CDp =  0.10988

 Side 1  free  transition at x/c =  0.0820   53
 Side 2 forced transition at x/c =  1.0000   58
 idif Ue xi dudx           1  0.10981192      1.03131533E-02   10.647755    
 Uenew xinew           2  4.86653931E-02  4.57048416E-03

  29   rms: 0.3084E+00   max: 0.1458E+01   D at   71  1
       a = 21.250      CL =  0.9209
      Cm =  0.0079     CD =  0.17460   =>   CDf =  0.00581    CDp =  0.16879

 MRCHDU: Convergence failed at  62  side 1    Res =  0.1086E+01
 MRCHDU: Convergence failed at  63  side 1    Res =  0.2578E+01
 MRCHDU: Convergence failed at  64  side 1    Res =  0.1331E+02
 MRCHDU: Convergence failed at  65  side 1    Res =  0.2231E+01
 MRCHDU: Convergence failed at  66  side 1    Res =  0.1865E+01
 MRCHDU: Convergence failed at  67  side 1    Res =  0.5158E+01
 MRCHDU: Convergence failed at  68  side 1    Res =  0.5830E+01
 MRCHDU: Convergence failed at  69  side 1    Res =  0.1914E+01
 MRCHDU: Convergence failed at  70  side 1    Res =  0.2497E+01
 Side 1  free  transition at x/c =  0.0821   52
 Side 2 forced transition at x/c =  1.0000   59

  30   rms: 0.2400E+00   max: 0.1264E+01   D at   70  1   RLX: 0.833
       a = 21.250      CL =  1.0935
      Cm =  0.0109     CD =  0.12824   =>   CDf =  0.00486    CDp =  0.12338

 Side 1  free  transition at x/c =  0.0816   53
 Side 2 forced transition at x/c =  1.0000   58
 idif Ue xi dudx           1  6.74847215E-02  6.39343262E-03   10.555319    
 Uenew xinew           2  6.86901622E-03  6.50763512E-04

  31   rms: 0.1078E+00   max: 0.1050E+01   D at   68  1
       a = 21.250      CL =  1.0068
      Cm =  0.0197     CD =  0.14533   =>   CDf =  0.00548    CDp =  0.13985

 MRCHDU: Convergence failed at  66  side 1    Res =  0.1566E+01
 MRCHDU: Convergence failed at  67  side 1    Res =  0.1651E+01
 Side 1  free  transition at x/c =  0.0804   52
 Side 2 forced transition at x/c =  1.0000   59

  32   rms: 0.3668E+00   max: -.1542E+01   D at   62  1   RLX: 0.324
       a = 21.250      CL =  1.1294
      Cm =  0.0080     CD =  0.12164   =>   CDf =  0.00485    CDp =  0.11680

 Side 1  free  transition at x/c =  0.0824   53
 Side 2 forced transition at x/c =  1.0000   58
 idif Ue xi dudx           1  0.11450184      1.07141733E-02   10.686951    
 Uenew xinew           2  5.31302206E-02  4.97150421E-03

  33   rms: 0.4963E+00   max: 0.2821E+01   D at   68  1   RLX: 0.532
       a = 21.250      CL =  0.9262
      Cm =  0.0046     CD =  0.17328   =>   CDf =  0.00566    CDp =  0.16763

 MRCHDU: Convergence failed at  61  side 1    Res =  0.2639E+01
 MRCHDU: Convergence failed at  62  side 1    Res =  0.4822E+01
 MRCHDU: Convergence failed at  63  side 1    Res =  0.3117E+01
 MRCHDU: Convergence failed at  64  side 1    Res =  0.1183E+01
 MRCHDU: Convergence failed at  65  side 1    Res =  0.1920E+01
 MRCHDU: Convergence failed at  66  side 1    Res =  0.2252E+01
 MRCHDU: Convergence failed at  67  side 1    Res =  0.3085E+01
 MRCHDU: Convergence failed at  68  side 1    Res =  0.1496E+03
 Side 1  free  transition at x/c =  0.0820   52
 Side 2 forced transition at x/c =  1.0000   59

  34   rms: 0.2088E+00   max: 0.1554E+01   D at   68  1   RLX: 0.965
       a = 21.250      CL =  1.0206
      Cm =  0.0171     CD =  0.14009   =>   CDf =  0.00503    CDp =  0.13506

 Side 1  free  transition at x/c =  0.0784   52
 Side 2 forced transition at x/c =  1.0000   59

  35   rms: 0.4454E+00   max: -.1806E+01   D at   62  1   RLX: 0.277
       a = 21.250      CL =  1.1406
      Cm = -0.0002     CD =  0.12355   =>   CDf =  0.00470    CDp =  0.11886

 Side 1  free  transition at x/c =  0.0809   53
 Side 2 forced transition at x/c =  1.0000   58

  36   rms: 0.1656E+00   max: -.7570E+00   D at   64  1   RLX: 0.661
       a = 21.250      CL =  1.1569
      Cm =  0.0236     CD =  0.11589   =>   CDf =  0.00517    CDp =  0.11072

 Side 1  free  transition at x/c =  0.0820   53
 Side 2 forced transition at x/c =  1.0000   58
 idif Ue xi dudx           2  0.11957821      1.12570524E-02   10.622516    
 Uenew xinew           3  5.85766248E-02  5.51438332E-03

  37   rms: 0.3445E+00   max: 0.1490E+01   D at   69  1
       a = 21.250      CL =  0.9028
      Cm =  0.0054     CD =  0.17960   =>   CDf =  0.00601    CDp =  0.17359

 MRCHDU: Convergence failed at  60  side 1    Res =  0.9321E+00
 MRCHDU: Convergence failed at  61  side 1    Res =  0.1753E+01
 MRCHDU: Convergence failed at  62  side 1    Res =  0.6458E+01
 MRCHDU: Convergence failed at  63  side 1    Res =  0.5507E+01
 MRCHDU: Convergence failed at  64  side 1    Res =  0.2455E+01
 MRCHDU: Convergence failed at  65  side 1    Res =  0.2325E+01
 MRCHDU: Convergence failed at  66  side 1    Res =  0.4751E+01
 MRCHDU: Convergence failed at  67  side 1    Res =  0.1283E+02
 MRCHDU: Convergence failed at  68  side 1    Res =  0.1779E+01
 Side 1  free  transition at x/c =  0.0822   51
 Side 2 forced transition at x/c =  1.0000   60

  38   rms: 0.3804E+00   max: 0.5249E+01   D at    2  2   RLX: 0.207
       a = 21.250      CL =  1.1428
      Cm = -0.0542     CD =  0.14485   =>   CDf =  0.00487    CDp =  0.13998

 Side 1  free  transition at x/c =  0.0815   52
 Side 2 forced transition at x/c =  1.0000   59

  39   rms: 0.4085E+00   max: -.1315E+01   D at   59  1   RLX: 0.380
       a = 21.250      CL =  1.1372
      Cm = -0.0003     CD =  0.11880   =>   CDf =  0.00538    CDp =  0.11342

 Side 1  free  transition at x/c =  0.0829   53
 Side 2 forced transition at x/c =  1.0000   58

  40   rms: 0.2409E+00   max: -.5543E+00   D at   72  1   RLX: 0.858
       a = 21.250      CL =  1.2399
      Cm =  0.0396     CD =  0.09945   =>   CDf =  0.00560    CDp =  0.09385

 Side 1  free  transition at x/c =  0.0797   54
 Side 2 forced transition at x/c =  1.0000   57
 idif Ue xi dudx           1  7.36594796E-02  7.29143620E-03   10.102191    
 Uenew xinew           2  1.23137124E-02  1.21891499E-03

  41   rms: 0.1555E+00   max: 0.6906E+00   D at   71  1
       a = 21.250      CL =  1.1163
      Cm =  0.0304     CD =  0.12789   =>   CDf =  0.00623    CDp =  0.12165

 Side 1  free  transition at x/c =  0.0808   53
 Side 2 forced transition at x/c =  1.0000   58
 idif Ue xi dudx           2  0.13202314      1.24208927E-02   10.629119    
 Uenew xinew           3  7.09836334E-02  6.67822361E-03

  42   rms: 0.7183E+00   max: 0.2855E+01   D at   72  1   RLX: 0.525
       a = 21.250      CL =  0.8964
      Cm = -0.0046     CD =  0.18989   =>   CDf =  0.00592    CDp =  0.18397

 MRCHDU: Convergence failed at  59  side 1    Res =  0.9437E+00
 MRCHDU: Convergence failed at  60  side 1    Res =  0.1435E+01
 MRCHDU: Convergence failed at  61  side 1    Res =  0.2535E+01
 MRCHDU: Convergence failed at  62  side 1    Res =  0.6504E+01
 MRCHDU: Convergence failed at  63  side 1    Res =  0.9378E+01
 MRCHDU: Convergence failed at  64  side 1    Res =  0.2570E+01
 MRCHDU: Convergence failed at  65  side 1    Res =  0.7862E+01
 MRCHDU: Convergence failed at  66  side 1    Res =  0.2628E+01
 MRCHDU: Convergence failed at  67  side 1    Res =  0.2007E+01
 MRCHDU: Convergence failed at  68  side 1    Res =  0.9687E+01
 Side 1  free  transition at x/c =  0.0818   51
 Side 2 forced transition at x/c =  1.0000   60

  43   rms: 0.2645E+00   max: 0.2300E+01   D at   68  1   RLX: 0.652
       a = 21.250      CL =  1.0406
      Cm = -0.0164     CD =  0.14950   =>   CDf =  0.00486    CDp =  0.14464

 Side 1  free  transition at x/c =  0.0793   52
 Side 2 forced transition at x/c =  1.0000   59

  44   rms: 0.3173E+00   max: -.1174E+01   D at   60  1   RLX: 0.426
       a = 21.250      CL =  1.0544
      Cm =  0.0127     CD =  0.12836   =>   CDf =  0.00475    CDp =  0.12360

 Side 1  free  transition at x/c =  0.0823   53
 Side 2 forced transition at x/c =  1.0000   58

  45   rms: 0.3612E+00   max: 0.2484E+01   D at    2  1   RLX: 0.414
       a = 21.250      CL =  1.1291
      Cm =  0.0314     CD =  0.11536   =>   CDf =  0.00528    CDp =  0.11008

 Side 1  free  transition at x/c =  0.0827   53
 Side 2 forced transition at x/c =  1.0000   58

  46   rms: 0.1293E+00   max: 0.6947E+00   D at   70  1
       a = 21.250      CL =  1.0423
      Cm =  0.0231     CD =  0.13897   =>   CDf =  0.00566    CDp =  0.13331

 Side 1  free  transition at x/c =  0.0813   53
 Side 2 forced transition at x/c =  1.0000   58

  47   rms: 0.1766E+00   max: -.8042E+00   D at   65  1   RLX: 0.622
       a = 21.250      CL =  1.1244
      Cm =  0.0283     CD =  0.11688   =>   CDf =  0.00520    CDp =  0.11168

 Side 1  free  transition at x/c =  0.0819   53
 Side 2 forced transition at x/c =  1.0000   58
 idif Ue xi dudx           1  0.10655676      1.00039244E-02   10.651496    
 Uenew xinew           2  4.53887433E-02  4.26125526E-03

  48   rms: 0.2915E+00   max: 0.1328E+01   D at   70  1
       a = 21.250      CL =  0.9284
      Cm =  0.0086     CD =  0.17234   =>   CDf =  0.00577    CDp =  0.16656

 MRCHDU: Convergence failed at  61  side 1    Res =  0.8465E+00
 MRCHDU: Convergence failed at  62  side 1    Res =  0.1639E+01
 MRCHDU: Convergence failed at  63  side 1    Res =  0.6647E+01
 MRCHDU: Convergence failed at  64  side 1    Res =  0.2752E+01
 MRCHDU: Convergence failed at  65  side 1    Res =  0.2172E+01
 MRCHDU: Convergence failed at  66  side 1    Res =  0.2320E+01
 MRCHDU: Convergence failed at  67  side 1    Res =  0.1007E+02
 MRCHDU: Convergence failed at  68  side 1    Res =  0.4129E+01
 MRCHDU: Convergence failed at  69  side 1    Res =  0.1630E+01
 MRCHDU: Convergence failed at  70  side 1    Res =  0.6665E+01
 Side 1  free  transition at x/c =  0.0818   52
 Side 2 forced transition at x/c =  1.0000   59

  49   rms: 0.2652E+00   max: 0.1417E+01   D at   70  1   RLX: 0.861
       a = 21.250      CL =  1.1139
      Cm =  0.0121     CD =  0.12600   =>   CDf =  0.00488    CDp =  0.12112

 Side 1  free  transition at x/c =  0.0811   53
 Side 2 forced transition at x/c =  1.0000   58

  50   rms: 0.8555E-01   max: -.4221E+00   D at   61  1
       a = 21.250      CL =  1.1228
      Cm =  0.0328     CD =  0.11809   =>   CDf =  0.00534    CDp =  0.11274

 Side 1  free  transition at x/c =  0.0810   53
 Side 2 forced transition at x/c =  1.0000   58
 idif Ue xi dudx           2  0.12636332      1.18479729E-02   10.665396    
 Uenew xinew           3  6.51154816E-02  6.10530376E-03

  51   rms: 0.3600E+00   max: 0.1405E+01   D at   71  1
       a = 21.250      CL =  0.8910
      Cm =  0.0035     CD =  0.18567   =>   CDf =  0.00595    CDp =  0.17972

 MRCHDU: Convergence failed at  60  side 1    Res =  0.2009E+01
 MRCHDU: Convergence failed at  61  side 1    Res =  0.1940E+01
 MRCHDU: Convergence failed at  62  side 1    Res =  0.3458E+01
 MRCHDU: Convergence failed at  63  side 1    Res =  0.1987E+02
 MRCHDU: Convergence failed at  64  side 1    Res =  0.4771E+01
 MRCHDU: Convergence failed at  65  side 1    Res =  0.2611E+01
 MRCHDU: Convergence failed at  66  side 1    Res =  0.4488E+02
 MRCHDU: Convergence failed at  67  side 1    Res =  0.1416E+01
 MRCHDU: Convergence failed at  68  side 1    Res =  0.3182E+01
 Side 1  free  transition at x/c =  0.0820   51
 Side 2 forced transition at x/c =  1.0000   60

  52   rms: 0.2477E+00   max: 0.1532E+01   D at   68  1   RLX: 0.979
       a = 21.250      CL =  1.0487
      Cm =  0.0212     CD =  0.13242   =>   CDf =  0.00468    CDp =  0.12774

 Side 1  free  transition at x/c =  0.0796   53
 Side 2 forced transition at x/c =  1.0000   58

  53   rms: 0.1642E+00   max: -.7063E+00   D at   61  1   RLX: 0.708
       a = 21.250      CL =  1.1117
      Cm =  0.0225     CD =  0.12024   =>   CDf =  0.00504    CDp =  0.11519

 Side 1  free  transition at x/c =  0.0819   53
 Side 2 forced transition at x/c =  1.0000   58
 idif Ue xi dudx           2  0.13975932      1.29188299E-02   10.818264    
 Uenew xinew           3  7.76336044E-02  7.17616081E-03

  54   rms: 0.3483E+01   max: 0.1447E+02   D at   70  1   RLX: 0.104
       a = 21.250      CL =  0.9108
      Cm = -0.0132     CD =  0.19405   =>   CDf =  0.00584    CDp =  0.18821

 MRCHDU: Convergence failed at  59  side 1    Res =  0.3406E+01
 MRCHDU: Convergence failed at  60  side 1    Res =  0.3297E+01
 MRCHDU: Convergence failed at  61  side 1    Res =  0.5464E+01
 MRCHDU: Convergence failed at  62  side 1    Res =  0.3724E+02
 MRCHDU: Convergence failed at  63  side 1    Res =  0.5626E+01
 MRCHDU: Convergence failed at  64  side 1    Res =  0.1065E+02
 MRCHDU: Convergence failed at  65  side 1    Res =  0.2202E+01
 MRCHDU: Convergence failed at  66  side 1    Res =  0.1556E+01
 MRCHDU: Convergence failed at  67  side 1    Res =  0.2453E+01
 MRCHDU: Convergence failed at  68  side 1    Res =  0.1252E+02
 Side 1  free  transition at x/c =  0.0822   51
 Side 2 forced transition at x/c =  1.0000   60

  55   rms: 0.2778E+00   max: 0.1902E+01   D at   68  1   RLX: 0.789
       a = 21.250      CL =  1.0640
      Cm = -0.0008     CD =  0.13950   =>   CDf =  0.00485    CDp =  0.13465

 Side 1  free  transition at x/c =  0.0781   52
 Side 2 forced transition at x/c =  1.0000   59

  56   rms: 0.9384E+00   max: -.3915E+01   D at   63  1   RLX: 0.128
       a = 21.250      CL =  1.1589
      Cm = -0.0117     CD =  0.12579   =>   CDf =  0.00468    CDp =  0.12110

 Side 1  free  transition at x/c =  0.0803   53
 Side 2 forced transition at x/c =  1.0000   58

  57   rms: 0.2883E+00   max: -.1146E+01   D at   64  1   RLX: 0.436
       a = 21.250      CL =  1.1876
      Cm =  0.0140     CD =  0.11540   =>   CDf =  0.00514    CDp =  0.11026

 Side 1  free  transition at x/c =  0.0822   53
 Side 2 forced transition at x/c =  1.0000   58
 idif Ue xi dudx           1  0.10327636      9.70149040E-03   10.645412    
 Uenew xinew           2  4.21432853E-02  3.95882130E-03

  58   rms: 0.3076E+00   max: 0.1574E+01   D at   70  1   RLX: 0.953
       a = 21.250      CL =  0.9360
      Cm =  0.0091     CD =  0.16818   =>   CDf =  0.00581    CDp =  0.16237

 MRCHDU: Convergence failed at  62  side 1    Res =  0.9097E+00
 MRCHDU: Convergence failed at  63  side 1    Res =  0.1463E+01
 MRCHDU: Convergence failed at  64  side 1    Res =  0.3062E+01
 MRCHDU: Convergence failed at  65  side 1    Res =  0.2331E+01
 MRCHDU: Convergence failed at  66  side 1    Res =  0.1901E+01
 MRCHDU: Convergence failed at  67  side 1    Res =  0.2328E+01
 MRCHDU: Convergence failed at  68  side 1    Res =  0.4931E+01
 MRCHDU: Convergence failed at  69  side 1    Res =  0.1551E+02
 Side 1  free  transition at x/c =  0.0820   52
 Side 2 forced transition at x/c =  1.0000   59

  59   rms: 0.2081E+00   max: 0.1212E+01   D at   69  1
       a = 21.250      CL =  1.0619
      Cm =  0.0250     CD =  0.12880   =>   CDf =  0.00488    CDp =  0.12392

 Side 1  free  transition at x/c =  0.0804   53
 Side 2 forced transition at x/c =  1.0000   58

  60   rms: 0.1735E+00   max: -.7465E+00   D at   62  1   RLX: 0.670
       a = 21.250      CL =  1.1383
      Cm =  0.0267     CD =  0.11574   =>   CDf =  0.00515    CDp =  0.11059

 Side 1  free  transition at x/c =  0.0818   53
 Side 2 forced transition at x/c =  1.0000   58
 idif Ue xi dudx           1  0.11561586      1.08780861E-02   10.628327    
 Uenew xinew           2  5.45808934E-02  5.13541698E-03

  61   rms: 0.3278E+00   max: 0.1445E+01   D at   70  1
       a = 21.250      CL =  0.9114
      Cm =  0.0061     CD =  0.17787   =>   CDf =  0.00578    CDp =  0.17209

 MRCHDU: Convergence failed at  62  side 1    Res =  0.1788E+01
 MRCHDU: Convergence failed at  63  side 1    Res =  0.2513E+01
 MRCHDU: Convergence failed at  64  side 1    Res =  0.6926E+01
 MRCHDU: Convergence failed at  65  side 1    Res =  0.5626E+01
 MRCHDU: Convergence failed at  66  side 1    Res =  0.2469E+01
 MRCHDU: Convergence failed at  67  side 1    Res =  0.2277E+02
 MRCHDU: Convergence failed at  68  side 1    Res =  0.2544E+01
 MRCHDU: Convergence failed at  69  side 1    Res =  0.1568E+01
 Side 1  free  transition at x/c =  0.0820   52
 Side 2 forced transition at x/c =  1.0000   59

  62   rms: 0.2101E+00   max: 0.1344E+01   D at   69  1
       a = 21.250      CL =  1.0426
      Cm =  0.0230     CD =  0.13306   =>   CDf =  0.00484    CDp =  0.12821

 Side 1  free  transition at x/c =  0.0799   53
 Side 2 forced transition at x/c =  1.0000   58

  63   rms: 0.1613E+00   max: -.7399E+00   D at   62  1   RLX: 0.676
       a = 21.250      CL =  1.1102
      Cm =  0.0217     CD =  0.12112   =>   CDf =  0.00504    CDp =  0.11608

 Side 1  free  transition at x/c =  0.0819   53
 Side 2 forced transition at x/c =  1.0000   58

  64   rms: 0.3743E+01   max: -.1510E+02   D at   70  1   RLX: 0.033
       a = 21.250      CL =  1.2142
      Cm =  0.0256     CD =  0.11038   =>   CDf =  0.00514    CDp =  0.10523

 Side 1  free  transition at x/c =  0.0823   54
 Side 2 forced transition at x/c =  1.0000   57
 idif Ue xi dudx           1  0.10682272      1.05181932E-02   10.155995    
 Uenew xinew           2  4.51502241E-02  4.44567204E-03

  65   rms: 0.1911E+00   max: 0.8345E+00   D at   73  1
       a = 21.250      CL =  1.0434
      Cm =  0.0226     CD =  0.14107   =>   CDf =  0.00606    CDp =  0.13501

 MRCHDU: Convergence failed at  70  side 1    Res =  0.2477E+00
 Side 1  free  transition at x/c =  0.0817   53
 Side 2 forced transition at x/c =  1.0000   58

  66   rms: 0.2572E+00   max: -.1091E+01   D at   65  1   RLX: 0.458
       a = 21.250      CL =  1.1401
      Cm =  0.0264     CD =  0.11384   =>   CDf =  0.00523    CDp =  0.10861

 Side 1  free  transition at x/c =  0.0823   53
 Side 2 forced transition at x/c =  1.0000   58
 idif Ue xi dudx           1  6.98596463E-02  6.60371780E-03   10.578835    
 Uenew xinew           2  9.10889264E-03  8.61048698E-04

  67   rms: 0.1929E+00   max: 0.1098E+01   D at   71  1
       a = 21.250      CL =  0.9985
      Cm =  0.0181     CD =  0.15103   =>   CDf =  0.00585    CDp =  0.14518

 Side 1  free  transition at x/c =  0.0816   52
 Side 2 forced transition at x/c =  1.0000   59

  68   rms: 0.1288E+00   max: -.6066E+00   D at   62  1   RLX: 0.824
       a = 21.250      CL =  1.0740
      Cm =  0.0263     CD =  0.12445   =>   CDf =  0.00487    CDp =  0.11958

 Side 1  free  transition at x/c =  0.0822   53
 Side 2 forced transition at x/c =  1.0000   58

  69   rms: 0.5093E+00   max: -.2038E+01   D at   67  1   RLX: 0.245
       a = 21.250      CL =  1.1732
      Cm =  0.0310     CD =  0.11162   =>   CDf =  0.00511    CDp =  0.10651

 Side 1  free  transition at x/c =  0.0824   54
 Side 2 forced transition at x/c =  1.0000   57
 idif Ue xi dudx           1  0.10731517      1.05077028E-02   10.213000    
 Uenew xinew           2  4.52965125E-02  4.43518162E-03

  70   rms: 0.1704E+00   max: 0.8074E+00   D at   72  1
       a = 21.250      CL =  1.0428
      Cm =  0.0226     CD =  0.14087   =>   CDf =  0.00599    CDp =  0.13488

 Side 1  free  transition at x/c =  0.0816   53
 Side 2 forced transition at x/c =  1.0000   58

  71   rms: 0.1772E+00   max: -.7604E+00   D at   65  1   RLX: 0.658
       a = 21.250      CL =  1.1279
      Cm =  0.0306     CD =  0.11499   =>   CDf =  0.00521    CDp =  0.10978

 Side 1  free  transition at x/c =  0.0820   53
 Side 2 forced transition at x/c =  1.0000   58
 idif Ue xi dudx           1  0.11073995      1.04010105E-02   10.647038    
 Uenew xinew           2  4.95975353E-02  4.65834141E-03

  72   rms: 0.3138E+00   max: 0.1469E+01   D at   71  1
       a = 21.250      CL =  0.9194
      Cm =  0.0076     CD =  0.17551   =>   CDf =  0.00581    CDp =  0.16971

 MRCHDU: Convergence failed at  62  side 1    Res =  0.1100E+01
 MRCHDU: Convergence failed at  63  side 1    Res =  0.2488E+01
 MRCHDU: Convergence failed at  64  side 1    Res =  0.3292E+02
 MRCHDU: Convergence failed at  65  side 1    Res =  0.2283E+01
 MRCHDU: Convergence failed at  66  side 1    Res =  0.1892E+01
 MRCHDU: Convergence failed at  67  side 1    Res =  0.5431E+01
 MRCHDU: Convergence failed at  68  side 1    Res =  0.5476E+01
 MRCHDU: Convergence failed at  69  side 1    Res =  0.1948E+01
 MRCHDU: Convergence failed at  70  side 1    Res =  0.2823E+01
 Side 1  free  transition at x/c =  0.0821   52
 Side 2 forced transition at x/c =  1.0000   59

  73   rms: 0.2434E+00   max: 0.1244E+01   D at   70  1   RLX: 0.806
       a = 21.250      CL =  1.0967
      Cm =  0.0087     CD =  0.12836   =>   CDf =  0.00486    CDp =  0.12350

 Side 1  free  transition at x/c =  0.0817   53
 Side 2 forced transition at x/c =  1.0000   58

  74   rms: 0.6983E-01   max: 0.4325E+00   D at   68  1
       a = 21.250      CL =  1.0909
      Cm =  0.0294     CD =  0.12408   =>   CDf =  0.00528    CDp =  0.11880

 Side 1  free  transition at x/c =  0.0809   53
 Side 2 forced transition at x/c =  1.0000   58

  75   rms: 0.8211E+00   max: -.3188E+01   D at   66  1   RLX: 0.157
       a = 21.250      CL =  1.2045
      Cm =  0.0288     CD =  0.10705   =>   CDf =  0.00512    CDp =  0.10193

 Side 1  free  transition at x/c =  0.0813   54
 Side 2 forced transition at x/c =  1.0000   57
 idif Ue xi dudx           1  0.10315952      1.01665258E-02   10.146979    
 Uenew xinew           2  4.15417813E-02  4.09400463E-03

  76   rms: 0.1855E+00   max: 0.8377E+00   D at   73  1
       a = 21.250      CL =  1.0515
      Cm =  0.0231     CD =  0.14109   =>   CDf =  0.00604    CDp =  0.13505

 Side 1  free  transition at x/c =  0.0815   53
 Side 2 forced transition at x/c =  1.0000   58

  77   rms: 0.2025E+00   max: -.8764E+00   D at   65  1   RLX: 0.570
       a = 21.250      CL =  1.1379
      Cm =  0.0309     CD =  0.11319   =>   CDf =  0.00524    CDp =  0.10795

 Side 1  free  transition at x/c =  0.0819   53
 Side 2 forced transition at x/c =  1.0000   58
 idif Ue xi dudx           1  6.68883622E-02  6.33919239E-03   10.551558    
 Uenew xinew           2  6.29425049E-03  5.96523285E-04

  78   rms: 0.1923E+00   max: 0.9788E+00   D at   71  1
       a = 21.250      CL =  1.0050
      Cm =  0.0183     CD =  0.15065   =>   CDf =  0.00585    CDp =  0.14480

 Side 1  free  transition at x/c =  0.0816   52
 Side 2 forced transition at x/c =  1.0000   59

  79   rms: 0.1294E+00   max: -.6123E+00   D at   62  1   RLX: 0.817
       a = 21.250      CL =  1.0782
      Cm =  0.0264     CD =  0.12380   =>   CDf =  0.00487    CDp =  0.11893

 Side 1  free  transition at x/c =  0.0822   53
 Side 2 forced transition at x/c =  1.0000   58

  80   rms: 0.6606E+00   max: -.2635E+01   D at   67  1   RLX: 0.190
       a = 21.250      CL =  1.1793
      Cm =  0.0306     CD =  0.11098   =>   CDf =  0.00512    CDp =  0.10586

 Side 1  free  transition at x/c =  0.0824   54
 Side 2 forced transition at x/c =  1.0000   57
 idif Ue xi dudx           1  0.10496468      1.03169680E-02   10.173985    
 Uenew xinew           2  4.31829393E-02  4.24444675E-03

  81   rms: 0.1679E+00   max: 0.7862E+00   D at   73  1
       a = 21.250      CL =  1.0476
      Cm =  0.0232     CD =  0.13983   =>   CDf =  0.00601    CDp =  0.13381

 Side 1  free  transition at x/c =  0.0816   53
 Side 2 forced transition at x/c =  1.0000   58

  82   rms: 0.1906E+00   max: -.8040E+00   D at   65  1   RLX: 0.622
       a = 21.250      CL =  1.1354
      Cm =  0.0311     CD =  0.11378   =>   CDf =  0.00523    CDp =  0.10856

 Side 1  free  transition at x/c =  0.0820   53
 Side 2 forced transition at x/c =  1.0000   58
 idif Ue xi dudx           1  8.42223987E-02  7.91537762E-03   10.640351    
 Uenew xinew           2  2.31183823E-02  2.17270851E-03

  83   rms: 0.2414E+00   max: 0.1175E+01   D at   71  1
       a = 21.250      CL =  0.9704
      Cm =  0.0140     CD =  0.15994   =>   CDf =  0.00584    CDp =  0.15410

 MRCHDU: Convergence failed at  64  side 1    Res =  0.4877E+01
 MRCHDU: Convergence failed at  65  side 1    Res =  0.2490E+01
 MRCHDU: Convergence failed at  66  side 1    Res =  0.1389E+01
 MRCHDU: Convergence failed at  67  side 1    Res =  0.1496E+01
 MRCHDU: Convergence failed at  68  side 1    Res =  0.4413E+01
 MRCHDU: Convergence failed at  69  side 1    Res =  0.4464E+01
 MRCHDU: Convergence failed at  70  side 1    Res =  0.1062E+01
 Side 1  free  transition at x/c =  0.0818   52
 Side 2 forced transition at x/c =  1.0000   59

  84   rms: 0.1796E+00   max: 0.8967E+00   D at   70  1   RLX: 0.856
       a = 21.250      CL =  1.0907
      Cm =  0.0170     CD =  0.12698   =>   CDf =  0.00487    CDp =  0.12211

 Side 1  free  transition at x/c =  0.0819   53
 Side 2 forced transition at x/c =  1.0000   58

  85   rms: 0.1958E+00   max: -.8463E+00   D at   64  1   RLX: 0.591
       a = 21.250      CL =  1.1520
      Cm =  0.0308     CD =  0.11268   =>   CDf =  0.00527    CDp =  0.10741

 Side 1  free  transition at x/c =  0.0819   53
 Side 2 forced transition at x/c =  1.0000   58
 idif Ue xi dudx           1  7.06385523E-02  6.69467449E-03   10.551455    
 Uenew xinew           2  1.00450413E-02  9.52005386E-04

  86   rms: 0.2161E+00   max: 0.1019E+01   D at   71  1
       a = 21.250      CL =  0.9968
      Cm =  0.0170     CD =  0.15316   =>   CDf =  0.00588    CDp =  0.14728

 MRCHDU: Convergence failed at  65  side 1    Res =  0.4684E+01
 MRCHDU: Convergence failed at  66  side 1    Res =  0.1354E+02
 MRCHDU: Convergence failed at  67  side 1    Res =  0.1617E+01
 MRCHDU: Convergence failed at  68  side 1    Res =  0.3188E+01
 MRCHDU: Convergence failed at  69  side 1    Res =  0.2218E+01
 MRCHDU: Convergence failed at  70  side 1    Res =  0.9994E+00
 Side 1  free  transition at x/c =  0.0818   52
 Side 2 forced transition at x/c =  1.0000   59

  87   rms: 0.1466E+00   max: 0.8117E+00   D at   70  1
       a = 21.250      CL =  1.0854
      Cm =  0.0281     CD =  0.12528   =>   CDf =  0.00491    CDp =  0.12037

 Side 1  free  transition at x/c =  0.0812   53
 Side 2 forced transition at x/c =  1.0000   58

  88   rms: 0.2772E+00   max: -.1161E+01   D at   66  1   RLX: 0.431
       a = 21.250      CL =  1.1804
      Cm =  0.0292     CD =  0.10972   =>   CDf =  0.00506    CDp =  0.10466

 Side 1  free  transition at x/c =  0.0816   54
 Side 2 forced transition at x/c =  1.0000   57
 idif Ue xi dudx           1  0.11531208      1.13224983E-02   10.184332    
 Uenew xinew           2  5.34675084E-02  5.24997711E-03

  89   rms: 0.1985E+00   max: 0.9058E+00   D at   72  1
       a = 21.250      CL =  1.0261
      Cm =  0.0202     CD =  0.14626   =>   CDf =  0.00595    CDp =  0.14032

 Side 1  free  transition at x/c =  0.0816   53
 Side 2 forced transition at x/c =  1.0000   58

  90   rms: 0.1457E+00   max: -.6502E+00   D at   64  1   RLX: 0.769
       a = 21.250      CL =  1.1054
      Cm =  0.0292     CD =  0.11885   =>   CDf =  0.00515    CDp =  0.11370

 Side 1  free  transition at x/c =  0.0821   53
 Side 2 forced transition at x/c =  1.0000   58
 idif Ue xi dudx           2  0.12971465      1.21520758E-02   10.674279    
 Uenew xinew           3  6.84157982E-02  6.40940666E-03

  91   rms: 0.4807E+00   max: 0.2088E+01   D at   70  1   RLX: 0.718
       a = 21.250      CL =  0.8934
      Cm =  0.0005     CD =  0.18576   =>   CDf =  0.00591    CDp =  0.17985

 MRCHDU: Convergence failed at  59  side 1    Res =  0.9782E+00
 MRCHDU: Convergence failed at  60  side 1    Res =  0.1807E+01
 MRCHDU: Convergence failed at  61  side 1    Res =  0.3982E+01
 MRCHDU: Convergence failed at  62  side 1    Res =  0.1057E+02
 MRCHDU: Convergence failed at  63  side 1    Res =  0.2447E+01
 MRCHDU: Convergence failed at  64  side 1    Res =  0.2697E+01
 MRCHDU: Convergence failed at  65  side 1    Res =  0.2110E+02
 MRCHDU: Convergence failed at  66  side 1    Res =  0.3467E+01
 MRCHDU: Convergence failed at  67  side 1    Res =  0.1810E+01
 MRCHDU: Convergence failed at  68  side 1    Res =  0.4929E+01
 Side 1  free  transition at x/c =  0.0822   51
 Side 2 forced transition at x/c =  1.0000   60

  92   rms: 0.2694E+00   max: 0.1835E+01   D at   68  1   RLX: 0.817
       a = 21.250      CL =  1.0686
      Cm =  0.0033     CD =  0.13699   =>   CDf =  0.00487    CDp =  0.13212

 Side 1  free  transition at x/c =  0.0790   52
 Side 2 forced transition at x/c =  1.0000   59
 idif Ue xi dudx           1  9.37495306E-02  8.35561752E-03   11.219940    
 Uenew xinew           2  3.27746160E-02  2.92110443E-03

  93   rms: 0.1154E+01   max: 0.6171E+01   D at   65  1   RLX: 0.243
       a = 21.250      CL =  0.9182
      Cm = -0.0222     CD =  0.18835   =>   CDf =  0.00525    CDp =  0.18310

 MRCHDU: Convergence failed at  62  side 1    Res =  0.9050E+00
 MRCHDU: Convergence failed at  63  side 1    Res =  0.1191E+01
 MRCHDU: Convergence failed at  64  side 1    Res =  0.1669E+01
 Side 1  free  transition at x/c =  0.0784   51
 Side 2 forced transition at x/c =  1.0000   60
 idif Ue xi dudx           1  6.62407130E-02  5.70082664E-03   11.619493    
 Uenew xinew           2  6.43264316E-03  5.53607941E-04

  94   rms: 0.2577E+00   max: 0.1969E+01   D at   64  1   RLX: 0.762
       a = 21.250      CL =  0.8470
      Cm = -0.0089     CD =  0.19395   =>   CDf =  0.00498    CDp =  0.18897

 Side 1  free  transition at x/c =  0.0769   49
 Side 2 forced transition at x/c =  1.0000   61

  95   rms: 0.4973E+00   max: -.1639E+01   D at   54  1   RLX: 0.305
       a = 21.250      CL =  0.9145
      Cm = -0.0032     CD =  0.15103   =>   CDf =  0.00460    CDp =  0.14643

 Side 1  free  transition at x/c =  0.0815   51
 Side 2 forced transition at x/c =  1.0000   60

  96   rms: 0.3475E+00   max: -.8934E-01   U at   82  2   RLX: 0.808
       a = 21.250      CL =  1.0949
      Cm =  0.0367     CD =  0.11833   =>   CDf =  0.00510    CDp =  0.11323

 Side 1  free  transition at x/c =  0.0821   53
 Side 2 forced transition at x/c =  1.0000   58

  97   rms: 0.8653E-01   max: 0.5579E+00   D at   67  1
       a = 21.250      CL =  1.0914
      Cm =  0.0281     CD =  0.13048   =>   CDf =  0.00569    CDp =  0.12479

 Side 1  free  transition at x/c =  0.0811   53
 Side 2 forced transition at x/c =  1.0000   58

  98   rms: 0.3997E+01   max: -.1548E+02   D at   68  1   RLX: 0.032
       a = 21.250      CL =  1.2022
      Cm =  0.0296     CD =  0.10478   =>   CDf =  0.00514    CDp =  0.09964

 Side 1  free  transition at x/c =  0.0815   54
 Side 2 forced transition at x/c =  1.0000   57
 idif Ue xi dudx           1  9.72082615E-02  9.57703590E-03   10.150141    
 Uenew xinew           2  3.55713181E-02  3.50451469E-03

  99   rms: 0.1717E+00   max: 0.7989E+00   D at   73  1
       a = 21.250      CL =  1.0642
      Cm =  0.0246     CD =  0.13841   =>   CDf =  0.00606    CDp =  0.13235

 Side 1  free  transition at x/c =  0.0814   53
 Side 2 forced transition at x/c =  1.0000   58

 100   rms: 0.2677E+00   max: -.1097E+01   D at   66  1   RLX: 0.456
       a = 21.250      CL =  1.1568
      Cm =  0.0318     CD =  0.10986   =>   CDf =  0.00505    CDp =  0.10481

 Side 1  free  transition at x/c =  0.0818   54
 Side 2 forced transition at x/c =  1.0000   57
 idif Ue xi dudx           1  0.10267034      1.00171566E-02   10.249450    
 Uenew xinew           2  4.04303409E-02  3.94463539E-03

 101   rms: 0.2053E+00   max: 0.1046E+01   D at   73  1   RLX: 0.699
       a = 21.250      CL =  1.0633
      Cm =  0.0203     CD =  0.13922   =>   CDf =  0.00592    CDp =  0.13329

 Side 1  free  transition at x/c =  0.0817   53
 Side 2 forced transition at x/c =  1.0000   58

 102   rms: 0.2077E+00   max: -.8885E+00   D at   65  1   RLX: 0.563
       a = 21.250      CL =  1.1402
      Cm =  0.0311     CD =  0.11323   =>   CDf =  0.00526    CDp =  0.10797

 Side 1  free  transition at x/c =  0.0820   53
 Side 2 forced transition at x/c =  1.0000   58

 103   rms: 0.1737E+00   max: 0.8936E+00   D at   71  1
       a = 21.250      CL =  1.0191
      Cm =  0.0199     CD =  0.14670   =>   CDf =  0.00562    CDp =  0.14108

 Side 1  free  transition at x/c =  0.0815   53
 Side 2 forced transition at x/c =  1.0000   58

 104   rms: 0.1325E+00   max: -.6204E+00   D at   64  1   RLX: 0.806
       a = 21.250      CL =  1.0925
      Cm =  0.0277     CD =  0.12145   =>   CDf =  0.00511    CDp =  0.11634

 Side 1  free  transition at x/c =  0.0821   53
 Side 2 forced transition at x/c =  1.0000   58

 105   rms: 0.2603E+01   max: -.1039E+02   D at   69  1   RLX: 0.048
       a = 21.250      CL =  1.1995
      Cm =  0.0305     CD =  0.10939   =>   CDf =  0.00517    CDp =  0.10423

 Side 1  free  transition at x/c =  0.0823   54
 Side 2 forced transition at x/c =  1.0000   57
 idif Ue xi dudx           1  0.10100218      9.94729996E-03   10.153728    
 Uenew xinew           2  3.93434502E-02  3.87477875E-03

 106   rms: 0.1760E+00   max: 0.8461E+00   D at   73  1
       a = 21.250      CL =  1.0559
      Cm =  0.0240     CD =  0.13880   =>   CDf =  0.00608    CDp =  0.13272

 Side 1  free  transition at x/c =  0.0817   53
 Side 2 forced transition at x/c =  1.0000   58

 107   rms: 0.2371E+00   max: -.9692E+00   D at   66  1   RLX: 0.516
       a = 21.250      CL =  1.1484
      Cm =  0.0320     CD =  0.11128   =>   CDf =  0.00527    CDp =  0.10601

 Side 1  free  transition at x/c =  0.0819   53
 Side 2 forced transition at x/c =  1.0000   58

 108   rms: 0.1632E+00   max: 0.8686E+00   D at   72  1
       a = 21.250      CL =  1.0344
      Cm =  0.0217     CD =  0.14336   =>   CDf =  0.00565    CDp =  0.13771

 Side 1  free  transition at x/c =  0.0814   53
 Side 2 forced transition at x/c =  1.0000   58

 109   rms: 0.1523E+00   max: -.6861E+00   D at   64  1   RLX: 0.729
       a = 21.250      CL =  1.1130
      Cm =  0.0294     CD =  0.11762   =>   CDf =  0.00517    CDp =  0.11246

 Side 1  free  transition at x/c =  0.0820   53
 Side 2 forced transition at x/c =  1.0000   58
 idif Ue xi dudx           2  0.12582777      1.17963552E-02   10.666665    
 Uenew xinew           3  6.45726398E-02  6.05368614E-03

 110   rms: 0.4042E+00   max: 0.1771E+01   D at   70  1   RLX: 0.847
       a = 21.250      CL =  0.8966
      Cm =  0.0026     CD =  0.18411   =>   CDf =  0.00595    CDp =  0.17816

 MRCHDU: Convergence failed at  59  side 1    Res =  0.8757E+00
 MRCHDU: Convergence failed at  60  side 1    Res =  0.1388E+01
 MRCHDU: Convergence failed at  61  side 1    Res =  0.2940E+01
 MRCHDU: Convergence failed at  62  side 1    Res =  0.3823E+02
 MRCHDU: Convergence failed at  63  side 1    Res =  0.2839E+01
 MRCHDU: Convergence failed at  64  side 1    Res =  0.2215E+01
 MRCHDU: Convergence failed at  65  side 1    Res =  0.6409E+01
 MRCHDU: Convergence failed at  66  side 1    Res =  0.5321E+01
 MRCHDU: Convergence failed at  67  side 1    Res =  0.1779E+01
 MRCHDU: Convergence failed at  68  side 1    Res =  0.2956E+01
 MRCHDU: Convergence failed at  69  side 1    Res =  0.1437E+01
 Side 1  free  transition at x/c =  0.0821   51
 Side 2 forced transition at x/c =  1.0000   60

 111   rms: 0.3118E+00   max: 0.1707E+01   D at   69  1   RLX: 0.862
       a = 21.250      CL =  1.1141
      Cm =  0.0107     CD =  0.12678   =>   CDf =  0.00471    CDp =  0.12208

 Side 1  free  transition at x/c =  0.0798   53
 Side 2 forced transition at x/c =  1.0000   58

 112   rms: 0.1055E+00   max: -.4598E+00   D at   60  1
       a = 21.250      CL =  1.1254
[...]
       a = 22.250      CL =  1.0955
      Cm =  0.0207     CD =  0.13887   =>   CDf =  0.00487    CDp =  0.13400

 Side 1  free  transition at x/c =  0.0769   53
 Side 2 forced transition at x/c =  1.0000   57

 113   rms: 0.1297E+00   max: -.6536E+00   D at   63  1   RLX: 0.765
       a = 22.250      CL =  1.1588
      Cm =  0.0234     CD =  0.12505   =>   CDf =  0.00518    CDp =  0.11987

 Side 1  free  transition at x/c =  0.0776   54
 Side 2 forced transition at x/c =  1.0000   57
 idif Ue xi dudx           2  0.13131124      1.31698847E-02   9.9705687    
 Uenew xinew           3  7.07647502E-02  7.09736347E-03

 114   rms: 0.7787E+00   max: 0.3295E+01   D at   71  1   RLX: 0.455
       a = 22.250      CL =  0.9528
      Cm = -0.0101     CD =  0.19619   =>   CDf =  0.00599    CDp =  0.19020

 MRCHDU: Convergence failed at  60  side 1    Res =  0.1694E+01
 MRCHDU: Convergence failed at  61  side 1    Res =  0.3688E+01
 MRCHDU: Convergence failed at  62  side 1    Res =  0.9204E+01
 MRCHDU: Convergence failed at  63  side 1    Res =  0.1149E+02
 MRCHDU: Convergence failed at  64  side 1    Res =  0.3022E+01
 MRCHDU: Convergence failed at  65  side 1    Res =  0.3362E+01
 MRCHDU: Convergence failed at  66  side 1    Res =  0.5200E+01
 MRCHDU: Convergence failed at  67  side 1    Res =  0.1562E+01
 MRCHDU: Convergence failed at  68  side 1    Res =  0.2268E+01
 MRCHDU: Convergence failed at  69  side 1    Res =  0.1222E+03
 Side 1  free  transition at x/c =  0.0782   52
 Side 2 forced transition at x/c =  1.0000   59

 115   rms: 0.2831E+00   max: 0.1685E+01   D at   69  1   RLX: 0.890
       a = 22.250      CL =  1.1196
      Cm =  0.0083     CD =  0.13818   =>   CDf =  0.00464    CDp =  0.13354

 Side 1  free  transition at x/c =  0.0769   53
 Side 2 forced transition at x/c =  1.0000   57

 116   rms: 0.1213E+00   max: -.6224E+00   D at   61  1   RLX: 0.803
       a = 22.250      CL =  1.1456
      Cm =  0.0204     CD =  0.12829   =>   CDf =  0.00517    CDp =  0.12312

 Side 1  free  transition at x/c =  0.0777   54
 Side 2 forced transition at x/c =  1.0000   57
 idif Ue xi dudx           2  0.13442665      1.34449005E-02   9.9983377    
 Uenew xinew           3  7.37115368E-02  7.37237930E-03

 117   rms: 0.4671E+00   max: 0.2021E+01   D at   67  1   RLX: 0.742
       a = 22.250      CL =  0.9344
      Cm = -0.0055     CD =  0.19532   =>   CDf =  0.00590    CDp =  0.18942

 MRCHDU: Convergence failed at  61  side 1    Res =  0.2947E+01
 MRCHDU: Convergence failed at  62  side 1    Res =  0.4913E+01
 MRCHDU: Convergence failed at  63  side 1    Res =  0.4491E+02
 MRCHDU: Convergence failed at  64  side 1    Res =  0.5327E+01
 MRCHDU: Convergence failed at  65  side 1    Res =  0.2488E+01
 MRCHDU: Convergence failed at  66  side 1    Res =  0.2532E+01
 MRCHDU: Convergence failed at  67  side 1    Res =  0.1267E+01
 Side 1  free  transition at x/c =  0.0778   52
 Side 2 forced transition at x/c =  1.0000   59

 118   rms: 0.1933E+00   max: 0.1812E+01   D at   67  1   RLX: 0.828
       a = 22.250      CL =  1.0023
      Cm = -0.0033     CD =  0.16501   =>   CDf =  0.00479    CDp =  0.16023

 Side 1  free  transition at x/c =  0.0760   52
 Side 2 forced transition at x/c =  1.0000   58

 119   rms: 0.1457E+00   max: 0.7720E+00   D at    2  1   RLX: 0.824
       a = 22.250      CL =  1.0419
      Cm =  0.0110     CD =  0.14621   =>   CDf =  0.00489    CDp =  0.14132

 Side 1  free  transition at x/c =  0.0785   53
 Side 2 forced transition at x/c =  1.0000   58

 120   rms: 0.3222E+00   max: -.1330E+01   D at   63  1   RLX: 0.376
       a = 22.250      CL =  1.1296
      Cm =  0.0198     CD =  0.13093   =>   CDf =  0.00488    CDp =  0.12605

 Side 1  free  transition at x/c =  0.0789   54
 Side 2 forced transition at x/c =  1.0000   57
 idif Ue xi dudx           2  0.14438595      1.44038200E-02   10.024143    
 Uenew xinew           3  8.35141316E-02  8.33129883E-03

 121   rms: 0.3724E+01   max: 0.1616E+02   D at   69  1   RLX: 0.093
       a = 22.250      CL =  0.9523
      Cm = -0.0170     CD =  0.20222   =>   CDf =  0.00581    CDp =  0.19641

 MRCHDU: Convergence failed at  58  side 1    Res =  0.3894E+01
 MRCHDU: Convergence failed at  59  side 1    Res =  0.3743E+01
 MRCHDU: Convergence failed at  60  side 1    Res =  0.3338E+02
 MRCHDU: Convergence failed at  61  side 1    Res =  0.5206E+01
 MRCHDU: Convergence failed at  62  side 1    Res =  0.2452E+01
 MRCHDU: Convergence failed at  63  side 1    Res =  0.2674E+01
 MRCHDU: Convergence failed at  64  side 1    Res =  0.6894E+01
 MRCHDU: Convergence failed at  65  side 1    Res =  0.6826E+01
 MRCHDU: Convergence failed at  66  side 1    Res =  0.2225E+01
 MRCHDU: Convergence failed at  67  side 1    Res =  0.2734E+01
 MRCHDU: Convergence failed at  68  side 1    Res =  0.1952E+01
 Side 1  free  transition at x/c =  0.0791   52
 Side 2 forced transition at x/c =  1.0000   59

 122   rms: 0.3326E+00   max: 0.2254E+01   D at   68  1   RLX: 0.665
       a = 22.250      CL =  1.1633
      Cm = -0.0255     CD =  0.14708   =>   CDf =  0.00486    CDp =  0.14222

 Side 1  free  transition at x/c =  0.0766   52
 Side 2 forced transition at x/c =  1.0000   58

 123   rms: 0.2544E+00   max: -.8981E+00   D at   58  1   RLX: 0.557
       a = 22.250      CL =  1.1742
      Cm =  0.0106     CD =  0.12638   =>   CDf =  0.00514    CDp =  0.12124

 Side 1  free  transition at x/c =  0.0781   54
 Side 2 forced transition at x/c =  1.0000   57

 124   rms: 0.7645E-01   max: 0.6151E+00   D at   68  1
       a = 22.250      CL =  1.1498
      Cm =  0.0279     CD =  0.13001   =>   CDf =  0.00563    CDp =  0.12438

 Side 1  free  transition at x/c =  0.0768   53
 Side 2 forced transition at x/c =  1.0000   57

 125   rms: 0.1905E+01   max: -.7002E+01   D at   70  1   RLX: 0.071
       a = 22.250      CL =  1.2923
      Cm =  0.0199     CD =  0.10859   =>   CDf =  0.00517    CDp =  0.10342

 Side 1  free  transition at x/c =  0.0769   54
 Side 2 forced transition at x/c =  1.0000   56
 idif Ue xi dudx           2  0.11960700      1.25944614E-02   9.4967937    
 Uenew xinew           3  5.85344099E-02  6.16359711E-03

 126   rms: 0.2575E+00   max: 0.1157E+01   D at   75  1
       a = 22.250      CL =  1.0637
      Cm =  0.0164     CD =  0.15719   =>   CDf =  0.00647    CDp =  0.15072

 MRCHDU: Convergence failed at  69  side 1    Res =  0.9259E+00
 MRCHDU: Convergence failed at  70  side 1    Res =  0.2298E+01
 Side 1  free  transition at x/c =  0.0776   53
 Side 2 forced transition at x/c =  1.0000   58

 127   rms: 0.7796E+00   max: -.8995E+01   T at    2  2   RLX: 0.056
       a = 22.250      CL =  1.0988
      Cm =  0.0004     CD =  0.14189   =>   CDf =  0.00524    CDp =  0.13665

 Side 1  free  transition at x/c =  0.0774   53
 Side 2 forced transition at x/c =  1.0000   58

 128   rms: 0.3108E+00   max: -.1266E+01   D at   64  1   RLX: 0.395
       a = 22.250      CL =  1.1416
      Cm =  0.0226     CD =  0.12357   =>   CDf =  0.00491    CDp =  0.11866

 Side 1  free  transition at x/c =  0.0781   54
 Side 2 forced transition at x/c =  1.0000   57
 idif Ue xi dudx           2  0.13230723      1.32941008E-02   9.9523268    
 Uenew xinew           3  7.18715191E-02  7.22157955E-03

 129   rms: 0.1223E+01   max: 0.5481E+01   D at   72  1   RLX: 0.274
       a = 22.250      CL =  0.9580
      Cm = -0.0106     CD =  0.19344   =>   CDf =  0.00591    CDp =  0.18753

 MRCHDU: Convergence failed at  60  side 1    Res =  0.1639E+01
 MRCHDU: Convergence failed at  61  side 1    Res =  0.2939E+01
 MRCHDU: Convergence failed at  62  side 1    Res =  0.8463E+01
 MRCHDU: Convergence failed at  63  side 1    Res =  0.1510E+01
 MRCHDU: Convergence failed at  64  side 1    Res =  0.2642E+01
 MRCHDU: Convergence failed at  65  side 1    Res =  0.1410E+02
 MRCHDU: Convergence failed at  66  side 1    Res =  0.4462E+01
 MRCHDU: Convergence failed at  67  side 1    Res =  0.1968E+01
 MRCHDU: Convergence failed at  68  side 1    Res =  0.1755E+01
 MRCHDU: Convergence failed at  69  side 1    Res =  0.2869E+01
 MRCHDU: Convergence failed at  70  side 1    Res =  0.3750E+01
 Side 1  free  transition at x/c =  0.0785   52
 Side 2 forced transition at x/c =  1.0000   59

 130   rms: 0.3168E+00   max: 0.1794E+01   D at   70  1   RLX: 0.810
       a = 22.250      CL =  1.1564
      Cm =  0.0006     CD =  0.13553   =>   CDf =  0.00466    CDp =  0.13088

 Side 1  free  transition at x/c =  0.0772   54
 Side 2 forced transition at x/c =  1.0000   57

 131   rms: 0.1342E+00   max: -.5967E+00   D at   61  1   RLX: 0.838
       a = 22.250      CL =  1.1773
      Cm =  0.0260     CD =  0.12263   =>   CDf =  0.00536    CDp =  0.11727

 Side 1  free  transition at x/c =  0.0771   53
 Side 2 forced transition at x/c =  1.0000   57
 idif Ue xi dudx           2  0.12031898      1.21431351E-02   9.9083948    
 Uenew xinew           3  6.01500385E-02  6.07061386E-03

 132   rms: 0.3374E+00   max: 0.1347E+01   D at   68  1
       a = 22.250      CL =  0.9476
      Cm =  0.0019     CD =  0.18808   =>   CDf =  0.00607    CDp =  0.18202

 MRCHDU: Convergence failed at  62  side 1    Res =  0.1848E+01
 MRCHDU: Convergence failed at  63  side 1    Res =  0.2719E+01
 MRCHDU: Convergence failed at  64  side 1    Res =  0.7634E+01
 MRCHDU: Convergence failed at  65  side 1    Res =  0.8143E+01
 MRCHDU: Convergence failed at  66  side 1    Res =  0.2274E+01
 MRCHDU: Convergence failed at  67  side 1    Res =  0.5513E+01
 MRCHDU: Convergence failed at  68  side 1    Res =  0.1132E+01
 MRCHDU: Convergence failed at  69  side 1    Res =  0.1980E+02
 Side 1  free  transition at x/c =  0.0778   52
 Side 2 forced transition at x/c =  1.0000   59

 133   rms: 0.2409E+00   max: 0.1712E+01   T at    2  2   RLX: 0.565
       a = 22.250      CL =  1.1199
      Cm = -0.0152     CD =  0.14449   =>   CDf =  0.00485    CDp =  0.13965

 Side 1  free  transition at x/c =  0.0773   53
 Side 2 forced transition at x/c =  1.0000   58

 134   rms: 0.2184E+00   max: -.7762E+00   D at   62  1   RLX: 0.644
       a = 22.250      CL =  1.1466
      Cm =  0.0243     CD =  0.12506   =>   CDf =  0.00505    CDp =  0.12001

 Side 1  free  transition at x/c =  0.0776   54
 Side 2 forced transition at x/c =  1.0000   57
 idif Ue xi dudx           1  0.11597852      1.16690397E-02   9.9389944    
 Uenew xinew           2  5.56237660E-02  5.59651852E-03

 135   rms: 0.3394E+00   max: 0.1753E+01   D at   70  1   RLX: 0.856
       a = 22.250      CL =  0.9606
      Cm =  0.0025     CD =  0.18247   =>   CDf =  0.00576    CDp =  0.17672

 MRCHDU: Convergence failed at  64  side 1    Res =  0.7341E+01
 MRCHDU: Convergence failed at  65  side 1    Res =  0.1297E+02
 MRCHDU: Convergence failed at  66  side 1    Res =  0.1255E+02
 MRCHDU: Convergence failed at  67  side 1    Res =  0.3781E+01
 MRCHDU: Convergence failed at  68  side 1    Res =  0.2487E+01
 MRCHDU: Convergence failed at  69  side 1    Res =  0.1079E+02
 Side 1  free  transition at x/c =  0.0778   53
 Side 2 forced transition at x/c =  1.0000   58

 136   rms: 0.1528E+00   max: 0.1290E+01   D at   69  1
       a = 22.250      CL =  1.0307
      Cm =  0.0138     CD =  0.15199   =>   CDf =  0.00501    CDp =  0.14698

 Side 1  free  transition at x/c =  0.0765   52
 Side 2 forced transition at x/c =  1.0000   58

 137   rms: 0.1029E+00   max: -.5318E+00   D at   61  1   RLX: 0.940
       a = 22.250      CL =  1.0782
      Cm =  0.0184     CD =  0.13895   =>   CDf =  0.00477    CDp =  0.13418

 Side 1  free  transition at x/c =  0.0782   54
 Side 2 forced transition at x/c =  1.0000   57

 138   rms: 0.4454E+00   max: -.1773E+01   D at   66  1   RLX: 0.282
       a = 22.250      CL =  1.1819
      Cm =  0.0219     CD =  0.12367   =>   CDf =  0.00522    CDp =  0.11845

 Side 1  free  transition at x/c =  0.0785   54
 Side 2 forced transition at x/c =  1.0000   57
 idif Ue xi dudx           2  0.11836090      1.20131969E-02   9.8525734    
 Uenew xinew           3  5.85309453E-02  5.94067574E-03

 139   rms: 0.4950E+00   max: 0.2219E+01   D at   71  1   RLX: 0.676
       a = 22.250      CL =  0.9702
      Cm = -0.0037     CD =  0.18785   =>   CDf =  0.00603    CDp =  0.18182

 MRCHDU: Convergence failed at  60  side 1    Res =  0.8900E+00
 MRCHDU: Convergence failed at  61  side 1    Res =  0.1903E+01
 MRCHDU: Convergence failed at  62  side 1    Res =  0.6361E+01
 MRCHDU: Convergence failed at  63  side 1    Res =  0.5939E+01
 MRCHDU: Convergence failed at  64  side 1    Res =  0.2394E+01
 MRCHDU: Convergence failed at  65  side 1    Res =  0.2334E+01
 MRCHDU: Convergence failed at  66  side 1    Res =  0.5179E+01
 MRCHDU: Convergence failed at  67  side 1    Res =  0.8894E+01
 MRCHDU: Convergence failed at  68  side 1    Res =  0.2327E+01
 MRCHDU: Convergence failed at  69  side 1    Res =  0.2984E+01
 Side 1  free  transition at x/c =  0.0785   52
 Side 2 forced transition at x/c =  1.0000   59

 140   rms: 0.3517E+00   max: 0.3736E+01   T at    2  2   RLX: 0.276
       a = 22.250      CL =  1.2406
      Cm = -0.0657     CD =  0.14726   =>   CDf =  0.00486    CDp =  0.14239

 Side 1  free  transition at x/c =  0.0779   53
 Side 2 forced transition at x/c =  1.0000   58

 141   rms: 0.3790E+00   max: -.1059E+01   D at   60  1   RLX: 0.472
       a = 22.250      CL =  1.2389
      Cm = -0.0031     CD =  0.11854   =>   CDf =  0.00554    CDp =  0.11301

 Side 1  free  transition at x/c =  0.0779   54
 Side 2 forced transition at x/c =  1.0000   57

 142   rms: 0.1878E+00   max: 0.4302E+00   D at   71  1   RLX: 0.929
       a = 22.250      CL =  1.2878
      Cm =  0.0391     CD =  0.10555   =>   CDf =  0.00564    CDp =  0.09991

 MRCHDU: Convergence failed at  73  side 1    Res =  0.1141E+01
 MRCHDU: Convergence failed at  74  side 1    Res =  0.7790E+01
 MRCHDU: Convergence failed at  75  side 1    Res =  0.1522E+01
 MRCHDU: Convergence failed at  76  side 1    Res =  0.8504E+00
 Side 1  free  transition at x/c =  0.0762   54
 Side 2 forced transition at x/c =  1.0000   56
 idif Ue xi dudx           1  7.11713061E-02  7.55906105E-03   9.4153633    
 Uenew xinew           2  1.06223822E-02  1.12819672E-03

 143   rms: 0.1951E+00   max: 0.1356E+01   D at   76  1
       a = 22.250      CL =  1.1730
      Cm =  0.0303     CD =  0.13276   =>   CDf =  0.00630    CDp =  0.12645

 MRCHDU: Convergence failed at  73  side 1    Res =  0.8298E+00
 MRCHDU: Convergence failed at  74  side 1    Res =  0.1483E+01
 MRCHDU: Convergence failed at  75  side 1    Res =  0.1984E+01
 MRCHDU: Convergence failed at  76  side 1    Res =  0.8861E+01
 Side 1  free  transition at x/c =  0.0765   53
 Side 2 forced transition at x/c =  1.0000   57

 144   rms: 0.1898E+00   max: 0.1557E+01   D at   76  1   RLX: 0.963
       a = 22.250      CL =  1.1213
      Cm =  0.0189     CD =  0.14825   =>   CDf =  0.00555    CDp =  0.14270

 Side 1  free  transition at x/c =  0.0754   53
 Side 2 forced transition at x/c =  1.0000   57

 145   rms: 0.1404E+00   max: -.7400E+00   D at   64  1   RLX: 0.676
       a = 22.250      CL =  1.1713
      Cm =  0.0124     CD =  0.12763   =>   CDf =  0.00497    CDp =  0.12265

 Side 1  free  transition at x/c =  0.0776   54
 Side 2 forced transition at x/c =  1.0000   57

 146   rms: 0.1697E+01   max: -.6658E+01   D at   69  1   RLX: 0.075
       a = 22.250      CL =  1.2704
      Cm =  0.0197     CD =  0.11147   =>   CDf =  0.00512    CDp =  0.10635

 Side 1  free  transition at x/c =  0.0778   55
 Side 2 forced transition at x/c =  1.0000   56
 idif Ue xi dudx           2  0.13970797      1.46557093E-02   9.5326653    
 Uenew xinew           3  7.84046948E-02  8.22484493E-03

 147   rms: 0.3087E+00   max: 0.1353E+01   D at   74  1
       a = 22.250      CL =  1.0213
      Cm =  0.0106     CD =  0.17002   =>   CDf =  0.00633    CDp =  0.16370

 MRCHDU: Convergence failed at  65  side 1    Res =  0.3284E+01
 MRCHDU: Convergence failed at  66  side 1    Res =  0.2456E+02
 MRCHDU: Convergence failed at  67  side 1    Res =  0.3663E+01
 MRCHDU: Convergence failed at  68  side 1    Res =  0.1979E+01
 MRCHDU: Convergence failed at  69  side 1    Res =  0.2178E+01
 MRCHDU: Convergence failed at  70  side 1    Res =  0.2820E+02
 MRCHDU: Convergence failed at  71  side 1    Res =  0.2678E+01
 MRCHDU: Convergence failed at  72  side 1    Res =  0.1383E+01
 Side 1  free  transition at x/c =  0.0780   53
 Side 2 forced transition at x/c =  1.0000   58

 148   rms: 0.2108E+00   max: 0.1110E+01   D at   72  1   RLX: 0.776
       a = 22.250      CL =  1.1694
      Cm =  0.0092     CD =  0.12918   =>   CDf =  0.00491    CDp =  0.12428

 Side 1  free  transition at x/c =  0.0775   54
 Side 2 forced transition at x/c =  1.0000   57

 149   rms: 0.6022E+00   max: -.2370E+01   D at   69  1   RLX: 0.211
       a = 22.250      CL =  1.2466
      Cm =  0.0229     CD =  0.11298   =>   CDf =  0.00511    CDp =  0.10787

 Side 1  free  transition at x/c =  0.0775   55
 Side 2 forced transition at x/c =  1.0000   56
 idif Ue xi dudx           1  0.11008126      1.15190744E-02   9.5564327    
 Uenew xinew           2  4.86251377E-02  5.08821011E-03

 150   rms: 0.1935E+00   max: 0.1055E+01   D at   74  1
       a = 22.250      CL =  1.0853
      Cm =  0.0200     CD =  0.14875   =>   CDf =  0.00606    CDp =  0.14269

 MRCHDU: Convergence failed at  68  side 1    Res =  0.2914E+01
 MRCHDU: Convergence failed at  69  side 1    Res =  0.7447E+01
 MRCHDU: Convergence failed at  70  side 1    Res =  0.1435E+01
 Side 1  free  transition at x/c =  0.0773   54
 Side 2 forced transition at x/c =  1.0000   57
 idif Ue xi dudx           1  0.11258522      1.13784075E-02   9.8946371    
 Uenew xinew           2  5.24998195E-02  5.30588627E-03

 151   rms: 0.2473E+00   max: 0.1493E+01   D at   70  1
       a = 22.250      CL =  0.9653
      Cm =  0.0053     CD =  0.18012   =>   CDf =  0.00554    CDp =  0.17457

 MRCHDU: Convergence failed at  69  side 1    Res =  0.3062E+01
 Side 1  free  transition at x/c =  0.0768   52
 Side 2 forced transition at x/c =  1.0000   58

 152   rms: 0.1333E+00   max: -.5623E+00   D at   60  1   RLX: 0.889
       a = 22.250      CL =  1.0501
      Cm =  0.0147     CD =  0.14539   =>   CDf =  0.00494    CDp =  0.14045

 Side 1  free  transition at x/c =  0.0782   53
 Side 2 forced transition at x/c =  1.0000   58

 153   rms: 0.3037E+00   max: -.1268E+01   D at   63  1   RLX: 0.394
       a = 22.250      CL =  1.1432
      Cm =  0.0206     CD =  0.12816   =>   CDf =  0.00489    CDp =  0.12327

 Side 1  free  transition at x/c =  0.0786   54
 Side 2 forced transition at x/c =  1.0000   57
 idif Ue xi dudx           2  0.13967200      1.39244795E-02   10.030680    
 Uenew xinew           3  7.87604749E-02  7.85195827E-03

 154   rms: 0.2817E+01   max: 0.1210E+02   D at   70  1   RLX: 0.124
       a = 22.250      CL =  0.9583
      Cm = -0.0164     CD =  0.19997   =>   CDf =  0.00586    CDp =  0.19410

 MRCHDU: Convergence failed at  59  side 1    Res =  0.2184E+01
 MRCHDU: Convergence failed at  60  side 1    Res =  0.4229E+01
 MRCHDU: Convergence failed at  61  side 1    Res =  0.1419E+02
 MRCHDU: Convergence failed at  62  side 1    Res =  0.3291E+01
 MRCHDU: Convergence failed at  63  side 1    Res =  0.2070E+01
 MRCHDU: Convergence failed at  64  side 1    Res =  0.3376E+01
 MRCHDU: Convergence failed at  65  side 1    Res =  0.3765E+03
 MRCHDU: Convergence failed at  66  side 1    Res =  0.3109E+01
 MRCHDU: Convergence failed at  67  side 1    Res =  0.1947E+01
 MRCHDU: Convergence failed at  68  side 1    Res =  0.5407E+01
 Side 1  free  transition at x/c =  0.0790   52
 Side 2 forced transition at x/c =  1.0000   59

 155   rms: 0.2888E+00   max: 0.2032E+01   D at   68  1   RLX: 0.738
       a = 22.250      CL =  1.1212
      Cm = -0.0130     CD =  0.14757   =>   CDf =  0.00484    CDp =  0.14273
 VISCAL:  Convergence failed

.OPERva   c>  
 Polar accumulation disabled

.OPERv   c>  
 XFOIL   c>  
 XFOIL   c>  