
 ===================================================
  XFOIL Version 6.99
  Copyright (C) 2000   Mark Drela, Harold Youngren

  This software comes with ABSOLUTELY NO WARRANTY,
    subject to the GNU General Public License.

  Caveat computor
 ===================================================

 File  xfoil.def  not found

   QUIT    Exit program

  .OPER    Direct operating point(s)
  .MDES    Complex mapping design routine
  .QDES    Surface speed design routine
  .GDES    Geometry design routine

   SAVE f  Write airfoil to labeled coordinate file
   PSAV f  Write airfoil to plain coordinate file
   ISAV f  Write airfoil to ISES coordinate file
   MSAV f  Write airfoil to MSES coordinate file
   REVE    Reverse written-airfoil node ordering

   LOAD f  Read buffer airfoil from coordinate file
   NACA i  Set NACA 4,5-digit airfoil and buffer airfoil
   INTE    Set buffer airfoil by interpolating two airfoils
   NORM    Buffer airfoil normalization toggle
   XYCM rr Change CM reference location, currently  0.25000 0.00000

   BEND    Display structural properties of current airfoil

   PCOP    Set current-airfoil panel nodes directly from buffer airfoil points
   PANE    Set current-airfoil panel nodes ( 160 ) based on curvature
  .PPAR    Show/change paneling

  .PLOP    Plotting options

   WDEF f  Write  current-settings file
   RDEF f  Reread current-settings file
   NAME s  Specify new airfoil name
   NINC    Increment name version number

   Z       Zoom    | (available in all menus)
   U       Unzoom  | 

 XFOIL   c>  
 Labeled airfoil file.  Name:  GOE 81 AIRFOIL                                  

 Number of input coordinate points:  33
 Counterclockwise ordering
 Max thickness =     0.074326  at x =   0.300
 Max camber    =     0.061129  at x =   0.399

  LE  x,y  =  -0.00045   0.00288  |   Chord =   1.00046
  TE  x,y  =   1.00000   0.00000  |

 Current airfoil nodes set from buffer airfoil nodes (  33 )

 WARNING: Poor input coordinate distribution
          Excessive panel angle   80.4  at i =  17
          Repaneling with PANE and/or PPAR suggested
           (doing GDES,CADD before repaneling _may_
            improve excessively coarse LE spacing

 XFOIL   c>  
 XFOIL   c>  
 Blunt trailing edge.  Gap =  0.00270

 Paneling parameters used...
   Number of panel nodes       160
   Panel bunching parameter    1.000
   TE/LE panel density ratio   0.150
   Refined-area/LE panel density ratio    0.200
   Top    side refined area x/c limits  1.000 1.000
   Bottom side refined area x/c limits  1.000 1.000

 XFOIL   c>  
.OPERi   c>  
 Xtr/c     =  1.0000    top    side
 Xtr/c     =  1.0000    bottom side
 Ncrit     =    9.00   ( 0.070 % turb. level )
 Vacc      =  0.0100

 Klag  =  5.6000     Uxwt  =    1.00
 A     =  6.7000     B     =  0.7500       KCt = 0.01485
 CtiniK=  1.8000     CtiniX=  3.3000

..VPAR   c>  
..VPAR   c>  
.OPERi   c>  
 M  =    0.0000
 Re =    500000

.OPERv   c>  
.OPERv   c>  
.OPERv   c>  
 Polar  1 newly created for accumulation
 Airfoil archived with polar: GOE 81 AIRFOIL                                  

Enter  polar save filename  OR  <return> for no file   s>  
 New polar save file available

Enter  polar dump filename  OR  <return> for no file   s>  
 Polar dump file will NOT be written

 Polar accumulation enabled

.OPERva   c>   Calculating unit vorticity distributions ...
 Calculating wake trajectory ...
 Calculating source influence matrix ...

 Solving BL system ...

 Initializing BL ...
    side            1  ...
 MRCHUE: Inverse mode at  46     Hk =   4.251
 MRCHUE: Inverse mode at  47     Hk =   4.972
 MRCHUE: Inverse mode at  48     Hk =   5.682
 MRCHUE: Inverse mode at  49     Hk =   6.384
 MRCHUE: Inverse mode at  50     Hk =   7.075
 MRCHUE: Inverse mode at  51     Hk =   7.756
 MRCHUE: Inverse mode at  52     Hk =   8.427
 MRCHUE: Inverse mode at  53     Hk =   9.088
 MRCHUE: Inverse mode at  54     Hk =   6.532
 MRCHUE: Inverse mode at  55     Hk =   4.565
 MRCHUE: Inverse mode at  56     Hk =   3.261
    side            2  ...
 MRCHUE: Inverse mode at  19     Hk =   3.800
 MRCHUE: Convergence failed at  20  side 2    Res =  0.1607E+01
 MRCHUE: Convergence failed at  21  side 2    Res =  0.1526E+01
 MRCHUE: Convergence failed at  22  side 2    Res =  0.2372E+01
 MRCHUE: Convergence failed at  23  side 2    Res =  0.7197E+00
 MRCHUE: Inverse mode at  24     Hk =   6.195
 MRCHUE: Inverse mode at  25     Hk =   2.500

 MRCHDU: Convergence failed at  20  side 2    Res =  0.2597E+01
 MRCHDU: Convergence failed at  21  side 2    Res =  0.4256E+01
 MRCHDU: Convergence failed at  22  side 2    Res =  0.1462E+02
 MRCHDU: Convergence failed at  23  side 2    Res =  0.5371E+02
 MRCHDU: Convergence failed at  24  side 2    Res =  0.3458E+02
 MRCHDU: Convergence failed at  25  side 2    Res =  0.2895E+02
 MRCHDU: Convergence failed at  26  side 2    Res =  0.2667E+02
 MRCHDU: Convergence failed at  27  side 2    Res =  0.8935E+01
 MRCHDU: Convergence failed at  28  side 2    Res =  0.1232E+02
 MRCHDU: Convergence failed at  29  side 2    Res =  0.2572E+02
 MRCHDU: Convergence failed at  30  side 2    Res =  0.2332E+02
 MRCHDU: Convergence failed at  31  side 2    Res =  0.9897E+01
 MRCHDU: Convergence failed at  32  side 2    Res =  0.1054E+02
 MRCHDU: Convergence failed at  33  side 2    Res =  0.6102E+02
 MRCHDU: Convergence failed at  34  side 2    Res =  0.3589E+02
 MRCHDU: Convergence failed at  35  side 2    Res =  0.2502E+02
 MRCHDU: Convergence failed at  36  side 2    Res =  0.3416E+02
 MRCHDU: Convergence failed at  37  side 2    Res =  0.4498E+02
 MRCHDU: Convergence failed at  38  side 2    Res =  0.5767E+02
 MRCHDU: Convergence failed at  39  side 2    Res =  0.7197E+02
 MRCHDU: Convergence failed at  40  side 2    Res =  0.1893E+02
 MRCHDU: Convergence failed at  41  side 2    Res =  0.1598E+02
 MRCHDU: Convergence failed at  42  side 2    Res =  0.1217E+03
 MRCHDU: Convergence failed at  43  side 2    Res =  0.1379E+03
 MRCHDU: Convergence failed at  44  side 2    Res =  0.1469E+03
 MRCHDU: Convergence failed at  45  side 2    Res =  0.1957E+03
 MRCHDU: Convergence failed at  46  side 2    Res =  0.1799E+03
 MRCHDU: Convergence failed at  47  side 2    Res =  0.3263E+03
 MRCHDU: Convergence failed at  48  side 2    Res =  0.1598E+02
 MRCHDU: Convergence failed at  49  side 2    Res =  0.1595E+02
 MRCHDU: Convergence failed at  50  side 2    Res =  0.1593E+02
 MRCHDU: Convergence failed at  51  side 2    Res =  0.3550E+03
 MRCHDU: Convergence failed at  52  side 2    Res =  0.4422E+03
 MRCHDU: Convergence failed at  53  side 2    Res =  0.1392E+02
 MRCHDU: Convergence failed at  54  side 2    Res =  0.1390E+04
 MRCHDU: Convergence failed at  55  side 2    Res =  0.5889E+03
 MRCHDU: Convergence failed at  56  side 2    Res =  0.1122E+02
 MRCHDU: Convergence failed at  57  side 2    Res =  0.2357E+03
 MRCHDU: Convergence failed at  58  side 2    Res =  0.4101E+04
 MRCHDU: Convergence failed at  59  side 2    Res =  0.1103E+02
 MRCHDU: Convergence failed at  60  side 2    Res =  0.1067E+02
 MRCHDU: Convergence failed at  61  side 2    Res =  0.1474E+03
 MRCHDU: Convergence failed at  62  side 2    Res =  0.1797E+03
 MRCHDU: Convergence failed at  63  side 2    Res =  0.2376E+03
 MRCHDU: Convergence failed at  64  side 2    Res =  0.2995E+03
 MRCHDU: Convergence failed at  65  side 2    Res =  0.2581E+03
 MRCHDU: Convergence failed at  66  side 2    Res =  0.2692E+03
 MRCHDU: Convergence failed at  67  side 2    Res =  0.2118E+03
 MRCHDU: Convergence failed at  68  side 2    Res =  0.2117E+03
 MRCHDU: Convergence failed at  69  side 2    Res =  0.2451E+03
 MRCHDU: Convergence failed at  70  side 2    Res =  0.2751E+03
 MRCHDU: Convergence failed at  71  side 2    Res =  0.4250E+03
 MRCHDU: Convergence failed at  72  side 2    Res =  0.5187E+03
 MRCHDU: Convergence failed at  73  side 2    Res =  0.1059E+05
 MRCHDU: Convergence failed at  74  side 2    Res =  0.3963E+03
 MRCHDU: Convergence failed at  75  side 2    Res =  0.1056E+02
 MRCHDU: Convergence failed at  76  side 2    Res =  0.1826E+03
 MRCHDU: Convergence failed at  77  side 2    Res =  0.1465E+04
 MRCHDU: Convergence failed at  78  side 2    Res =  0.3979E+03
 MRCHDU: Convergence failed at  79  side 2    Res =  0.3143E+03
 MRCHDU: Convergence failed at  80  side 2    Res =  0.4850E+03
 MRCHDU: Convergence failed at  81  side 2    Res =  0.3497E+04
 MRCHDU: Convergence failed at  82  side 2    Res =  0.4349E+03
 MRCHDU: Convergence failed at  83  side 2    Res =  0.2068E+03
 MRCHDU: Convergence failed at  84  side 2    Res =  0.1569E+02
 MRCHDU: Convergence failed at  85  side 2    Res =  0.2142E+02
 MRCHDU: Convergence failed at  86  side 2    Res =  0.1696E+02
 MRCHDU: Convergence failed at  87  side 2    Res =  0.1297E+02
 Side 1  free  transition at x/c =  0.6907   54
 Side 2  free  transition at x/c =  0.0500   25

   1   rms: 0.1777E+01   max: -.1421E+01   U at   87  2   RLX: 0.258
       a = -4.000      CL = -2.7857
      Cm =  0.6730     CD =  0.00601   =>   CDf =  0.00436    CDp =  0.00165

 Side 1  free  transition at x/c =  0.6997   54
 Side 2  free  transition at x/c =  0.0469   25

   2   rms: 0.2908E+01   max: 0.4780E+02   C at   25  2   RLX: 0.027
       a = -4.000      CL = -2.6553
      Cm =  0.6374     CD =  0.00871   =>   CDf =  0.01898    CDp = -0.01026

 Side 1  free  transition at x/c =  0.7007   54
 Side 2  free  transition at x/c =  0.0396   24

   3   rms: 0.1353E+01   max: 0.6036E+01   T at   24  2   RLX: 0.175
       a = -4.000      CL = -2.0111
      Cm =  0.4631     CD =  0.00902   =>   CDf =  0.01853    CDp = -0.00951

 MRCHDU: Convergence failed at  24  side 2    Res =  0.1972E+01
 MRCHDU: Convergence failed at  25  side 2    Res =  0.4074E+02
 MRCHDU: Convergence failed at  26  side 2    Res =  0.1267E+02
 MRCHDU: Convergence failed at  27  side 2    Res =  0.1421E+02
 MRCHDU: Convergence failed at  28  side 2    Res =  0.1449E+02
 MRCHDU: Convergence failed at  29  side 2    Res =  0.1496E+02
 MRCHDU: Convergence failed at  30  side 2    Res =  0.2489E+02
 MRCHDU: Convergence failed at  31  side 2    Res =  0.3187E+02
 MRCHDU: Convergence failed at  32  side 2    Res =  0.4150E+02
 MRCHDU: Convergence failed at  33  side 2    Res =  0.7329E+02
 MRCHDU: Convergence failed at  34  side 2    Res =  0.1898E+03
 MRCHDU: Convergence failed at  35  side 2    Res =  0.4047E+03
 MRCHDU: Convergence failed at  36  side 2    Res =  0.1261E+03
 MRCHDU: Convergence failed at  37  side 2    Res =  0.8455E+02
 MRCHDU: Convergence failed at  38  side 2    Res =  0.6913E+02
 MRCHDU: Convergence failed at  39  side 2    Res =  0.6009E+02
 MRCHDU: Convergence failed at  40  side 2    Res =  0.5514E+02
 MRCHDU: Convergence failed at  41  side 2    Res =  0.5177E+02
 MRCHDU: Convergence failed at  42  side 2    Res =  0.4920E+02
 MRCHDU: Convergence failed at  43  side 2    Res =  0.4690E+02
 MRCHDU: Convergence failed at  44  side 2    Res =  0.4472E+02
 MRCHDU: Convergence failed at  45  side 2    Res =  0.4267E+02
 MRCHDU: Convergence failed at  46  side 2    Res =  0.4074E+02
 MRCHDU: Convergence failed at  47  side 2    Res =  0.3891E+02
 MRCHDU: Convergence failed at  48  side 2    Res =  0.3550E+02
 MRCHDU: Convergence failed at  49  side 2    Res =  0.3407E+02
 MRCHDU: Convergence failed at  50  side 2    Res =  0.3274E+02
 MRCHDU: Convergence failed at  51  side 2    Res =  0.3153E+02
 MRCHDU: Convergence failed at  52  side 2    Res =  0.3041E+02
 MRCHDU: Convergence failed at  53  side 2    Res =  0.2936E+02
 MRCHDU: Convergence failed at  54  side 2    Res =  0.2838E+02
 MRCHDU: Convergence failed at  55  side 2    Res =  0.2746E+02
 MRCHDU: Convergence failed at  56  side 2    Res =  0.2659E+02
 MRCHDU: Convergence failed at  57  side 2    Res =  0.2582E+02
 MRCHDU: Convergence failed at  58  side 2    Res =  0.2515E+02
 MRCHDU: Convergence failed at  59  side 2    Res =  0.2311E+02
 MRCHDU: Convergence failed at  60  side 2    Res =  0.2271E+02
 MRCHDU: Convergence failed at  61  side 2    Res =  0.2243E+02
 MRCHDU: Convergence failed at  62  side 2    Res =  0.2219E+02
 MRCHDU: Convergence failed at  63  side 2    Res =  0.2198E+02
 MRCHDU: Convergence failed at  64  side 2    Res =  0.2180E+02
 MRCHDU: Convergence failed at  65  side 2    Res =  0.2163E+02
 MRCHDU: Convergence failed at  66  side 2    Res =  0.2148E+02
 MRCHDU: Convergence failed at  67  side 2    Res =  0.2132E+02
 MRCHDU: Convergence failed at  68  side 2    Res =  0.2117E+02
 MRCHDU: Convergence failed at  69  side 2    Res =  0.2099E+02
 MRCHDU: Convergence failed at  70  side 2    Res =  0.2079E+02
 MRCHDU: Convergence failed at  71  side 2    Res =  0.2060E+02
 MRCHDU: Convergence failed at  72  side 2    Res =  0.2043E+02
 MRCHDU: Convergence failed at  73  side 2    Res =  0.2028E+02
 MRCHDU: Convergence failed at  74  side 2    Res =  0.2008E+02
 MRCHDU: Convergence failed at  75  side 2    Res =  0.1988E+02
 MRCHDU: Convergence failed at  76  side 2    Res =  0.1971E+02
 MRCHDU: Convergence failed at  77  side 2    Res =  0.1956E+02
 MRCHDU: Convergence failed at  78  side 2    Res =  0.1945E+02
 MRCHDU: Convergence failed at  79  side 2    Res =  0.1938E+02
 MRCHDU: Convergence failed at  80  side 2    Res =  0.1934E+02
 MRCHDU: Convergence failed at  81  side 2    Res =  0.1930E+02
 MRCHDU: Convergence failed at  82  side 2    Res =  0.1917E+02
 MRCHDU: Convergence failed at  83  side 2    Res =  0.1891E+02
 MRCHDU: Convergence failed at  84  side 2    Res =  0.1843E+02
 MRCHDU: Convergence failed at  85  side 2    Res =  0.1826E+02
 MRCHDU: Convergence failed at  86  side 2    Res =  0.1814E+02
 MRCHDU: Convergence failed at  87  side 2    Res =  0.1798E+02
 Side 1  free  transition at x/c =  0.7093   55
 Side 2  free  transition at x/c =  0.0342   24

   4   rms: 0.2381E+01   max: 0.5551E+01   T at   24  2   RLX: 0.228
       a = -4.000      CL = -2.4562
      Cm =  0.6076     CD =  0.00552   =>   CDf =  0.00324    CDp =  0.00228

 MRCHDU: Convergence failed at  54  side 2    Res =  0.2839E+00
 MRCHDU: Convergence failed at  55  side 2    Res =  0.3015E+00
 MRCHDU: Convergence failed at  56  side 2    Res =  0.3154E+00
 MRCHDU: Convergence failed at  57  side 2    Res =  0.3250E+00
 MRCHDU: Convergence failed at  58  side 2    Res =  0.3418E+00
 MRCHDU: Convergence failed at  59  side 2    Res =  0.3609E+00
 MRCHDU: Convergence failed at  60  side 2    Res =  0.3805E+00
 MRCHDU: Convergence failed at  61  side 2    Res =  0.4015E+00
 MRCHDU: Convergence failed at  62  side 2    Res =  0.4221E+00
 MRCHDU: Convergence failed at  63  side 2    Res =  0.4419E+00
 MRCHDU: Convergence failed at  64  side 2    Res =  0.4616E+00
 MRCHDU: Convergence failed at  65  side 2    Res =  0.4805E+00
 MRCHDU: Convergence failed at  66  side 2    Res =  0.4991E+00
 MRCHDU: Convergence failed at  67  side 2    Res =  0.5168E+00
 MRCHDU: Convergence failed at  68  side 2    Res =  0.5337E+00
 MRCHDU: Convergence failed at  69  side 2    Res =  0.5502E+00
 MRCHDU: Convergence failed at  70  side 2    Res =  0.5659E+00
 MRCHDU: Convergence failed at  71  side 2    Res =  0.5810E+00
 MRCHDU: Convergence failed at  72  side 2    Res =  0.5962E+00
 MRCHDU: Convergence failed at  73  side 2    Res =  0.6108E+00
 MRCHDU: Convergence failed at  74  side 2    Res =  0.6250E+00
 MRCHDU: Convergence failed at  75  side 2    Res =  0.6396E+00
 MRCHDU: Convergence failed at  76  side 2    Res =  0.6551E+00
 MRCHDU: Convergence failed at  77  side 2    Res =  0.6715E+00
 MRCHDU: Convergence failed at  78  side 2    Res =  0.6903E+00
 MRCHDU: Convergence failed at  79  side 2    Res =  0.7082E+00
 MRCHDU: Convergence failed at  80  side 2    Res =  0.7286E+00
 MRCHDU: Convergence failed at  81  side 2    Res =  0.7509E+00
 MRCHDU: Convergence failed at  82  side 2    Res =  0.7750E+00
 MRCHDU: Convergence failed at  83  side 2    Res =  0.8009E+00
 MRCHDU: Convergence failed at  84  side 2    Res =  0.8264E+00
 MRCHDU: Convergence failed at  85  side 2    Res =  0.8523E+00
 MRCHDU: Convergence failed at  86  side 2    Res =  0.8786E+00
 MRCHDU: Convergence failed at  87  side 2    Res =  0.9105E+00
 Side 1  free  transition at x/c =  0.7178   55
 Side 2  free  transition at x/c =  0.0357   24

   5   rms: 0.1149E+02   max: -.7175E+02   T at   24  2   RLX: 0.007
       a = -4.000      CL = -1.3293
      Cm =  0.2678     CD =  0.04244   =>   CDf =  0.00389    CDp =  0.03855

 Side 1  free  transition at x/c =  0.7180   55
 Side 2  free  transition at x/c =  0.0394   24

   6   rms: 0.9573E+00   max: -.9241E+01   T at   24  2   RLX: 0.054
       a = -4.000      CL = -1.1299
      Cm =  0.1936     CD =  0.05770   =>   CDf =  0.00385    CDp =  0.05385

 Side 1  free  transition at x/c =  0.7209   56
 Side 2  free  transition at x/c =  0.0420   25

   7   rms: 0.1363E+01   max: 0.8903E+01   T at   25  2   RLX: 0.168
       a = -4.000      CL = -0.8321
      Cm =  0.1008     CD =  0.04893   =>   CDf =  0.00375    CDp =  0.04518

 MRCHDU: Convergence failed at  25  side 2    Res =  0.1319E+02
 MRCHDU: Convergence failed at  26  side 2    Res =  0.9599E+03
 MRCHDU: Convergence failed at  27  side 2    Res =  0.3751E+02
 MRCHDU: Convergence failed at  28  side 2    Res =  0.3000E+02
 MRCHDU: Convergence failed at  29  side 2    Res =  0.1733E+02
 MRCHDU: Convergence failed at  30  side 2    Res =  0.3290E+02
 MRCHDU: Convergence failed at  31  side 2    Res =  0.1973E+03
 MRCHDU: Convergence failed at  32  side 2    Res =  0.5801E+02
 MRCHDU: Convergence failed at  33  side 2    Res =  0.2519E+02
 MRCHDU: Convergence failed at  34  side 2    Res =  0.2705E+02
 MRCHDU: Convergence failed at  35  side 2    Res =  0.4706E+02
 MRCHDU: Convergence failed at  36  side 2    Res =  0.1246E+03
 MRCHDU: Convergence failed at  37  side 2    Res =  0.3210E+03
 MRCHDU: Convergence failed at  38  side 2    Res =  0.8474E+02
 MRCHDU: Convergence failed at  39  side 2    Res =  0.5190E+02
 MRCHDU: Convergence failed at  40  side 2    Res =  0.4060E+02
 MRCHDU: Convergence failed at  41  side 2    Res =  0.3412E+02
 MRCHDU: Convergence failed at  42  side 2    Res =  0.2797E+02
 MRCHDU: Convergence failed at  43  side 2    Res =  0.2944E+02
 MRCHDU: Convergence failed at  44  side 2    Res =  0.3083E+02
 MRCHDU: Convergence failed at  45  side 2    Res =  0.3227E+02
 MRCHDU: Convergence failed at  46  side 2    Res =  0.3397E+02
 MRCHDU: Convergence failed at  47  side 2    Res =  0.3370E+02
 MRCHDU: Convergence failed at  48  side 2    Res =  0.4263E+02
 MRCHDU: Convergence failed at  49  side 2    Res =  0.3746E+02
 MRCHDU: Convergence failed at  50  side 2    Res =  0.4526E+02
 MRCHDU: Convergence failed at  51  side 2    Res =  0.4284E+02
 MRCHDU: Convergence failed at  52  side 2    Res =  0.4739E+02
 MRCHDU: Convergence failed at  53  side 2    Res =  0.5599E+02
 MRCHDU: Convergence failed at  54  side 2    Res =  0.6501E+02
 MRCHDU: Convergence failed at  55  side 2    Res =  0.8455E+02
 MRCHDU: Convergence failed at  56  side 2    Res =  0.1149E+03
 MRCHDU: Convergence failed at  57  side 2    Res =  0.1924E+03
 MRCHDU: Convergence failed at  58  side 2    Res =  0.5042E+03
 MRCHDU: Convergence failed at  59  side 2    Res =  0.6589E+03
 MRCHDU: Convergence failed at  60  side 2    Res =  0.2166E+03
 MRCHDU: Convergence failed at  61  side 2    Res =  0.1183E+03
 MRCHDU: Convergence failed at  62  side 2    Res =  0.9020E+02
 MRCHDU: Convergence failed at  63  side 2    Res =  0.6776E+02
 MRCHDU: Convergence failed at  64  side 2    Res =  0.1276E+03
 MRCHDU: Convergence failed at  65  side 2    Res =  0.1377E+03
 MRCHDU: Convergence failed at  66  side 2    Res =  0.1476E+03
 MRCHDU: Convergence failed at  67  side 2    Res =  0.1635E+03
 MRCHDU: Convergence failed at  68  side 2    Res =  0.1839E+03
 MRCHDU: Convergence failed at  69  side 2    Res =  0.2197E+03
 MRCHDU: Convergence failed at  70  side 2    Res =  0.4080E+03
 MRCHDU: Convergence failed at  71  side 2    Res =  0.2592E+03
 MRCHDU: Convergence failed at  72  side 2    Res =  0.7191E+03
 MRCHDU: Convergence failed at  73  side 2    Res =  0.4474E+03
 MRCHDU: Convergence failed at  74  side 2    Res =  0.7572E+03
 MRCHDU: Convergence failed at  75  side 2    Res =  0.2205E+04
 MRCHDU: Convergence failed at  76  side 2    Res =  0.3042E+04
 MRCHDU: Convergence failed at  77  side 2    Res =  0.2087E+04
 MRCHDU: Convergence failed at  78  side 2    Res =  0.3381E+05
 MRCHDU: Convergence failed at  79  side 2    Res =  0.4964E+03
 MRCHDU: Convergence failed at  80  side 2    Res =  0.2838E+03
 MRCHDU: Convergence failed at  81  side 2    Res =  0.1783E+04
 MRCHDU: Convergence failed at  82  side 2    Res =  0.5358E+03
 MRCHDU: Convergence failed at  83  side 2    Res =  0.1566E+04
 MRCHDU: Convergence failed at  84  side 2    Res =  0.2809E+05
 MRCHDU: Convergence failed at  85  side 2    Res =  0.4054E+06
 MRCHDU: Convergence failed at  86  side 2    Res =  0.1983E+04
 MRCHDU: Convergence failed at  87  side 2    Res =  0.1405E+03
 Side 1  free  transition at x/c =  0.7298   56
 Side 2  free  transition at x/c =  0.0412   24

   8   rms: 0.2522E+01   max: 0.2964E+02   T at   24  2   RLX: 0.020
       a = -4.000      CL = -3.0212
      Cm =  0.7544     CD =  0.00554   =>   CDf =  0.00308    CDp =  0.00246

 Side 1  free  transition at x/c =  0.7306   56
 Side 2  free  transition at x/c =  0.0438   25

   9   rms: 0.8154E+01   max: 0.1382E+03   T at   25  2   RLX: 0.011
       a = -4.000      CL = -2.3142
      Cm =  0.5160     CD =  0.06163   =>   CDf =  0.00368    CDp =  0.05796

 Side 1  free  transition at x/c =  0.7328   56
 Side 2  free  transition at x/c =  0.0403   24
 idif Ue xi dudx           1  0.19575089      4.41658497E-03   44.321777    
 Uenew xinew           2  5.26666008E-02  1.18827820E-03

  10   rms: 0.3493E+01   max: 0.3543E+02   T at   25  2   RLX: 0.030
       a = -4.000      CL = -2.3220
      Cm =  0.5059     CD =  0.06356   =>   CDf =  0.00358    CDp =  0.05998

 Side 1  free  transition at x/c =  0.7413   56
 Side 2  free  transition at x/c =  0.0408   25

  11   rms: 0.1867E+01   max: -.8848E+01   C at   56  1   RLX: 0.057
       a = -4.000      CL = -2.4988
      Cm =  0.5424     CD =  0.07352   =>   CDf =  0.00358    CDp =  0.06994

 Side 1  free  transition at x/c =  0.7514   57
 Side 2  free  transition at x/c =  0.0399   25

  12   rms: 0.1061E+01   max: 0.2759E+01   D at  101  2   RLX: 0.120
       a = -4.000      CL = -2.0911
      Cm =  0.4269     CD =  0.07742   =>   CDf =  0.00363    CDp =  0.07379

 Side 1  free  transition at x/c =  0.7752   58
 Side 2  free  transition at x/c =  0.0392   25

  13   rms: 0.1040E+01   max: -.6742E+01   C at   58  1   RLX: 0.074
       a = -4.000      CL = -1.8924
      Cm =  0.3776     CD =  0.09069   =>   CDf =  0.00337    CDp =  0.08732

 Side 1  free  transition at x/c =  0.7792   58
 Side 2  free  transition at x/c =  0.0389   25

  14   rms: 0.9372E+00   max: -.1615E+01   C at  102  2   RLX: 0.257
       a = -4.000      CL = -1.3241
      Cm =  0.2464     CD =  0.08337   =>   CDf =  0.00352    CDp =  0.07985

 Side 1  free  transition at x/c =  0.8116   60
 Side 2  free  transition at x/c =  0.0341   25

  15   rms: 0.9045E+00   max: 0.6016E+01   T at   25  2   RLX: 0.249
       a = -4.000      CL = -1.0827
      Cm =  0.1860     CD =  0.08562   =>   CDf =  0.00332    CDp =  0.08230

 MRCHDU: Convergence failed at  62  side 1    Res =  0.5356E+01
 Side 1  free  transition at x/c =  0.8385   62
 Side 2  free  transition at x/c =  0.0333   24

  16   rms: 0.2733E+01   max: -.1271E+02   T at   25  2   RLX: 0.039
       a = -4.000      CL = -1.1227
      Cm =  0.2063     CD =  0.13048   =>   CDf =  0.00317    CDp =  0.12732

 Side 1  free  transition at x/c =  0.8394   63
 Side 2  free  transition at x/c =  0.0331   23

  17   rms: 0.3623E+01   max: -.3226E+02   T at   24  2   RLX: 0.015
       a = -4.000      CL = -1.1055
      Cm =  0.2065     CD =  0.13363   =>   CDf =  0.00317    CDp =  0.13047

 Side 1  free  transition at x/c =  0.8392   63
 Side 2  free  transition at x/c =  0.0327   23

  18   rms: 0.1043E+01   max: -.1385E+02   T at   24  2   RLX: 0.036
       a = -4.000      CL = -1.0655
      Cm =  0.1988     CD =  0.13110   =>   CDf =  0.00316    CDp =  0.12795

 Side 1  free  transition at x/c =  0.8403   63
 Side 2  free  transition at x/c =  0.0320   23

  19   rms: 0.6814E+00   max: 0.3674E+01   T at   23  2   RLX: 0.168
       a = -4.000      CL = -0.8585
      Cm =  0.1515     CD =  0.11253   =>   CDf =  0.00315    CDp =  0.10938

 Side 1  free  transition at x/c =  0.8493   64
 Side 2  free  transition at x/c =  0.0302   23

  20   rms: 0.5827E+00   max: 0.2108E+01   T at   23  2   RLX: 0.390
       a = -4.000      CL = -0.4648
      Cm =  0.0576     CD =  0.08207   =>   CDf =  0.00309    CDp =  0.07899

 Side 1  free  transition at x/c =  0.8576   65
 Side 2  free  transition at x/c =  0.0280   22

  21   rms: 0.4807E+00   max: 0.4550E+01   T at   23  2   RLX: 0.282
       a = -4.000      CL = -0.3334
      Cm =  0.0268     CD =  0.10253   =>   CDf =  0.00300    CDp =  0.09954

 Side 1  free  transition at x/c =  0.8603   66
 Side 2  free  transition at x/c =  0.0275   21

  22   rms: 0.4928E+00   max: -.1100E+01   T at   23  2   RLX: 0.455
       a = -4.000      CL = -0.1972
      Cm =  0.0066     CD =  0.08720   =>   CDf =  0.00294    CDp =  0.08426

 Side 1  free  transition at x/c =  0.8697   66
 Side 2  free  transition at x/c =  0.0274   21

  23   rms: 0.3600E+00   max: -.1268E+01   D at  106  2   RLX: 0.394
       a = -4.000      CL = -0.0950
      Cm = -0.0232     CD =  0.08702   =>   CDf =  0.00284    CDp =  0.08418

 Side 1  free  transition at x/c =  0.8681   66
 Side 2  free  transition at x/c =  0.0269   21

  24   rms: 0.3224E+00   max: -.1444E+01   D at  106  2   RLX: 0.346
       a = -4.000      CL = -0.0638
      Cm = -0.0382     CD =  0.08221   =>   CDf =  0.00278    CDp =  0.07943

 Side 1  free  transition at x/c =  0.8640   66
 Side 2  free  transition at x/c =  0.0258   21

  25   rms: 0.3011E+00   max: -.1374E+01   D at  105  2   RLX: 0.364
       a = -4.000      CL = -0.0260
      Cm = -0.0516     CD =  0.07400   =>   CDf =  0.00275    CDp =  0.07125

 Side 1  free  transition at x/c =  0.8529   65
 Side 2  free  transition at x/c =  0.0255   21

  26   rms: 0.2786E+00   max: -.1320E+01   D at  105  2   RLX: 0.379
       a = -4.000      CL =  0.0146
      Cm = -0.0660     CD =  0.06467   =>   CDf =  0.00275    CDp =  0.06192

 Side 1  free  transition at x/c =  0.8382   64
 Side 2  free  transition at x/c =  0.0255   21

  27   rms: 0.2457E+00   max: -.1038E+01   D at  105  2   RLX: 0.482
       a = -4.000      CL =  0.0607
      Cm = -0.0817     CD =  0.05508   =>   CDf =  0.00277    CDp =  0.05231

 Side 1  free  transition at x/c =  0.8198   63
 Side 2  free  transition at x/c =  0.0259   21

  28   rms: 0.2267E+00   max: -.8188E+00   D at  102  2   RLX: 0.611
       a = -4.000      CL =  0.1067
      Cm = -0.1002     CD =  0.04587   =>   CDf =  0.00279    CDp =  0.04307

 Side 1  free  transition at x/c =  0.8019   62
 Side 2  free  transition at x/c =  0.0266   21

  29   rms: 0.1912E+00   max: -.1078E+01   T at   21  2   RLX: 0.464
       a = -4.000      CL =  0.1419
      Cm = -0.1084     CD =  0.04680   =>   CDf =  0.00293    CDp =  0.04387

 Side 1  free  transition at x/c =  0.7962   61
 Side 2  free  transition at x/c =  0.0265   21

  30   rms: 0.6705E-01   max: -.4065E+00   D at   21  2
       a = -4.000      CL =  0.1782
      Cm = -0.1099     CD =  0.04159   =>   CDf =  0.00314    CDp =  0.03846

 Side 1  free  transition at x/c =  0.7897   61
 Side 2  free  transition at x/c =  0.0275   21

  31   rms: 0.2257E+00   max: -.7272E+00   D at   22  2   RLX: 0.688
       a = -4.000      CL =  0.1702
      Cm = -0.1083     CD =  0.05284   =>   CDf =  0.00301    CDp =  0.04983

 Side 1  free  transition at x/c =  0.7897   61
 Side 2  free  transition at x/c =  0.0275   21

  32   rms: 0.1516E+00   max: 0.8614E+00   D at   44  2
       a = -4.000      CL =  0.2185
      Cm = -0.1164     CD =  0.04124   =>   CDf =  0.00407    CDp =  0.03717

 Side 1  free  transition at x/c =  0.7915   61
 Side 2  free  transition at x/c =  0.0274   21

  33   rms: 0.3781E+00   max: 0.1578E+01   D at   42  2   RLX: 0.950
       a = -4.000      CL =  0.1987
      Cm = -0.1146     CD =  0.04288   =>   CDf =  0.00407    CDp =  0.03881

 Side 1  free  transition at x/c =  0.7900   61
 Side 2  free  transition at x/c =  0.0274   21

  34   rms: 0.2079E+00   max: 0.1373E+01   D at   40  2
       a = -4.000      CL =  0.2090
      Cm = -0.1156     CD =  0.04078   =>   CDf =  0.00406    CDp =  0.03672

 MRCHDU: Convergence failed at  40  side 2    Res =  0.1266E+01
 MRCHDU: Convergence failed at  44  side 2    Res =  0.4623E+01
 MRCHDU: Convergence failed at  45  side 2    Res =  0.3371E+01
 MRCHDU: Convergence failed at  46  side 2    Res =  0.3384E+01
 MRCHDU: Convergence failed at  47  side 2    Res =  0.8526E+01
 Side 1  free  transition at x/c =  0.7912   61
 Side 2  free  transition at x/c =  0.0275   21

  35   rms: 0.6678E-01   max: -.2470E+00   D at   61  2
       a = -4.000      CL =  0.2019
      Cm = -0.1155     CD =  0.03978   =>   CDf =  0.00331    CDp =  0.03647

 Side 1  free  transition at x/c =  0.7912   61
 Side 2  free  transition at x/c =  0.0275   21

  36   rms: 0.1407E-01   max: -.7618E-01   D at   60  2
       a = -4.000      CL =  0.2030
      Cm = -0.1143     CD =  0.04061   =>   CDf =  0.00346    CDp =  0.03715

 Side 1  free  transition at x/c =  0.7912   61
 Side 2  free  transition at x/c =  0.0275   21

  37   rms: 0.7372E-03   max: -.4446E-02   D at   60  2
       a = -4.000      CL =  0.2035
      Cm = -0.1143     CD =  0.04067   =>   CDf =  0.00350    CDp =  0.03717

 Side 1  free  transition at x/c =  0.7912   61
 Side 2  free  transition at x/c =  0.0275   21

  38   rms: 0.2494E-04   max: -.8201E-04   D at   86  2
       a = -4.000      CL =  0.2035
      Cm = -0.1143     CD =  0.04067   =>   CDf =  0.00351    CDp =  0.03717
 plradd ia,ip,cpol            1           0  4.58531734E-03

 Point added to stored polar  1
 Point written to save file  goe81_Re500k.base.pol                           
 Dump file unspecified or not available
 Calculating wake trajectory ...
 Calculating source influence matrix ...

 Solving BL system ...

 Side 1  free  transition at x/c =  0.7912   61
 Side 2  free  transition at x/c =  0.0275   21

   1   rms: 0.1002E+00   max: -.2823E+00   D at   16  2
       a = -3.500      CL =  0.2633
      Cm = -0.1188     CD =  0.03496   =>   CDf =  0.00351    CDp =  0.03145

 Side 1  free  transition at x/c =  0.7670   60
 Side 2  free  transition at x/c =  0.0277   22

   2   rms: 0.5685E+00   max: 0.1887E+01   D at   39  2   RLX: 0.795
       a = -3.500      CL =  0.2588
      Cm = -0.1159     CD =  0.04095   =>   CDf =  0.00455    CDp =  0.03641

 MRCHDU: Convergence failed at  25  side 2    Res =  0.1902E+01
 MRCHDU: Convergence failed at  28  side 2    Res =  0.1965E+01
 Side 1  free  transition at x/c =  0.7677   61
 Side 2  free  transition at x/c =  0.0270   20
 idif Ue xi dudx           1  0.17083317      2.82883644E-03   60.389908    
 Uenew xinew           2  2.84362007E-02  4.70876694E-04

   3   rms: 0.6201E+00   max: 0.3498E+01   D at   22  2   RLX: 0.376
       a = -3.500      CL =  0.2785
      Cm = -0.1197     CD =  0.01300   =>   CDf =  0.00682    CDp =  0.00618

 MRCHDU: Convergence failed at  23  side 2    Res =  0.9580E+01
 MRCHDU: Convergence failed at  24  side 2    Res =  0.3282E+01
 MRCHDU: Convergence failed at  25  side 2    Res =  0.2531E+02
 MRCHDU: Convergence failed at  26  side 2    Res =  0.9099E+01
 MRCHDU: Convergence failed at  27  side 2    Res =  0.1239E+02
 MRCHDU: Convergence failed at  28  side 2    Res =  0.1377E+02
 MRCHDU: Convergence failed at  29  side 2    Res =  0.1696E+02
 MRCHDU: Convergence failed at  30  side 2    Res =  0.9096E+02
 MRCHDU: Convergence failed at  31  side 2    Res =  0.9101E+02
 MRCHDU: Convergence failed at  32  side 2    Res =  0.3134E+02
 MRCHDU: Convergence failed at  33  side 2    Res =  0.3039E+02
 MRCHDU: Convergence failed at  34  side 2    Res =  0.2121E+02
 MRCHDU: Convergence failed at  35  side 2    Res =  0.2858E+02
 MRCHDU: Convergence failed at  36  side 2    Res =  0.2738E+02
 MRCHDU: Convergence failed at  37  side 2    Res =  0.2987E+02
 MRCHDU: Convergence failed at  38  side 2    Res =  0.6395E+02
 MRCHDU: Convergence failed at  39  side 2    Res =  0.1486E+03
 MRCHDU: Convergence failed at  40  side 2    Res =  0.1419E+03
 MRCHDU: Convergence failed at  41  side 2    Res =  0.9535E+02
 MRCHDU: Convergence failed at  42  side 2    Res =  0.5329E+02
 MRCHDU: Convergence failed at  43  side 2    Res =  0.5560E+02
 MRCHDU: Convergence failed at  44  side 2    Res =  0.5889E+02
 MRCHDU: Convergence failed at  45  side 2    Res =  0.6039E+02
 MRCHDU: Convergence failed at  46  side 2    Res =  0.6073E+02
 MRCHDU: Convergence failed at  47  side 2    Res =  0.6782E+02
 MRCHDU: Convergence failed at  48  side 2    Res =  0.6821E+02
 MRCHDU: Convergence failed at  49  side 2    Res =  0.2406E+03
 MRCHDU: Convergence failed at  50  side 2    Res =  0.2429E+03
 MRCHDU: Convergence failed at  51  side 2    Res =  0.2290E+03
 MRCHDU: Convergence failed at  52  side 2    Res =  0.2086E+03
 MRCHDU: Convergence failed at  53  side 2    Res =  0.1787E+03
 MRCHDU: Convergence failed at  54  side 2    Res =  0.1477E+03
 MRCHDU: Convergence failed at  55  side 2    Res =  0.1222E+03
 MRCHDU: Convergence failed at  56  side 2    Res =  0.2670E+02
 MRCHDU: Convergence failed at  57  side 2    Res =  0.2582E+02
 MRCHDU: Convergence failed at  58  side 2    Res =  0.2514E+02
 MRCHDU: Convergence failed at  59  side 2    Res =  0.2461E+02
 MRCHDU: Convergence failed at  60  side 2    Res =  0.2434E+02
 MRCHDU: Convergence failed at  61  side 2    Res =  0.2424E+02
 MRCHDU: Convergence failed at  62  side 2    Res =  0.2426E+02
 MRCHDU: Convergence failed at  63  side 2    Res =  0.2443E+02
 MRCHDU: Convergence failed at  64  side 2    Res =  0.2464E+02
 MRCHDU: Convergence failed at  65  side 2    Res =  0.2492E+02
 MRCHDU: Convergence failed at  66  side 2    Res =  0.2522E+02
 MRCHDU: Convergence failed at  67  side 2    Res =  0.2548E+02
 MRCHDU: Convergence failed at  68  side 2    Res =  0.2569E+02
 MRCHDU: Convergence failed at  69  side 2    Res =  0.2585E+02
 MRCHDU: Convergence failed at  70  side 2    Res =  0.2589E+02
 MRCHDU: Convergence failed at  71  side 2    Res =  0.2594E+02
 MRCHDU: Convergence failed at  72  side 2    Res =  0.2580E+02
 MRCHDU: Convergence failed at  73  side 2    Res =  0.2549E+02
 MRCHDU: Convergence failed at  74  side 2    Res =  0.2509E+02
 MRCHDU: Convergence failed at  75  side 2    Res =  0.2487E+02
 MRCHDU: Convergence failed at  76  side 2    Res =  0.2447E+02
 MRCHDU: Convergence failed at  77  side 2    Res =  0.2425E+02
 MRCHDU: Convergence failed at  78  side 2    Res =  0.2414E+02
 MRCHDU: Convergence failed at  79  side 2    Res =  0.2434E+02
 MRCHDU: Convergence failed at  80  side 2    Res =  0.2466E+02
 MRCHDU: Convergence failed at  81  side 2    Res =  0.2482E+02
 MRCHDU: Convergence failed at  82  side 2    Res =  0.2450E+02
 MRCHDU: Convergence failed at  83  side 2    Res =  0.2386E+02
 MRCHDU: Convergence failed at  84  side 2    Res =  0.2271E+02
 MRCHDU: Convergence failed at  85  side 2    Res =  0.2222E+02
 MRCHDU: Convergence failed at  86  side 2    Res =  0.2201E+02
 Side 1  free  transition at x/c =  0.7705   60
 Side 2  free  transition at x/c =  0.0270   21

   4   rms: 0.1187E+01   max: 0.4210E+01   D at   35  2   RLX: 0.356
       a = -3.500      CL = -0.5901
      Cm =  0.1414     CD =  0.01081   =>   CDf =  0.00293    CDp =  0.00788

 MRCHDU: Convergence failed at  55  side 2    Res =  0.3588E+00
 MRCHDU: Convergence failed at  56  side 2    Res =  0.3634E+00
 MRCHDU: Convergence failed at  57  side 2    Res =  0.3691E+00
 MRCHDU: Convergence failed at  58  side 2    Res =  0.3755E+00
 MRCHDU: Convergence failed at  59  side 2    Res =  0.3814E+00
 MRCHDU: Convergence failed at  60  side 2    Res =  0.3875E+00
 MRCHDU: Convergence failed at  61  side 2    Res =  0.3934E+00
 MRCHDU: Convergence failed at  62  side 2    Res =  0.3999E+00
 MRCHDU: Convergence failed at  63  side 2    Res =  0.4060E+00
 MRCHDU: Convergence failed at  64  side 2    Res =  0.4130E+00
 MRCHDU: Convergence failed at  65  side 2    Res =  0.4203E+00
 MRCHDU: Convergence failed at  66  side 2    Res =  0.4275E+00
 MRCHDU: Convergence failed at  67  side 2    Res =  0.4352E+00
 MRCHDU: Convergence failed at  68  side 2    Res =  0.4432E+00
 MRCHDU: Convergence failed at  69  side 2    Res =  0.4514E+00
 MRCHDU: Convergence failed at  70  side 2    Res =  0.4595E+00
 MRCHDU: Convergence failed at  71  side 2    Res =  0.4674E+00
 MRCHDU: Convergence failed at  72  side 2    Res =  0.4758E+00
 MRCHDU: Convergence failed at  73  side 2    Res =  0.4840E+00
 MRCHDU: Convergence failed at  74  side 2    Res =  0.4921E+00
 MRCHDU: Convergence failed at  75  side 2    Res =  0.5011E+00
 MRCHDU: Convergence failed at  76  side 2    Res =  0.5096E+00
 MRCHDU: Convergence failed at  77  side 2    Res =  0.5189E+00
 MRCHDU: Convergence failed at  78  side 2    Res =  0.5283E+00
 MRCHDU: Convergence failed at  79  side 2    Res =  0.5385E+00
 MRCHDU: Convergence failed at  80  side 2    Res =  0.5494E+00
 MRCHDU: Convergence failed at  81  side 2    Res =  0.5619E+00
 MRCHDU: Convergence failed at  82  side 2    Res =  0.5752E+00
 MRCHDU: Convergence failed at  83  side 2    Res =  0.5892E+00
 MRCHDU: Convergence failed at  84  side 2    Res =  0.6031E+00
 MRCHDU: Convergence failed at  85  side 2    Res =  0.6158E+00
 MRCHDU: Convergence failed at  86  side 2    Res =  0.6315E+00
 MRCHDU: Convergence failed at  90  side 2    Res =  0.7316E+01
 MRCHDU: Convergence failed at  91  side 2    Res =  0.2484E+01
 MRCHDU: Convergence failed at  92  side 2    Res =  0.3849E+02
 MRCHDU: Convergence failed at  93  side 2    Res =  0.2297E+01
 Side 1  free  transition at x/c =  0.7750   60
 Side 2  free  transition at x/c =  0.0272   21

   5   rms: 0.2863E+00   max: -.6813E+00   D at   87  2   RLX: 0.612
       a = -3.500      CL =  0.0921
      Cm = -0.0637     CD =  0.04262   =>   CDf =  0.00306    CDp =  0.03957

 Side 1  free  transition at x/c =  0.7768   61
 Side 2  free  transition at x/c =  0.0274   20
 idif Ue xi dudx           1  0.18011902      3.03399563E-03   59.366936    
 Uenew xinew           2  4.01341803E-02  6.76035881E-04

   6   rms: 0.2821E+00   max: -.8614E+00   D at   85  2   RLX: 0.580
       a = -3.500      CL =  0.1395
      Cm = -0.0977     CD =  0.04708   =>   CDf =  0.00295    CDp =  0.04412

 Side 1  free  transition at x/c =  0.7726   60
 Side 2  free  transition at x/c =  0.0275   21

   7   rms: 0.2570E+00   max: -.7530E+00   D at   82  2   RLX: 0.664
       a = -3.500      CL =  0.2131
      Cm = -0.1182     CD =  0.03883   =>   CDf =  0.00310    CDp =  0.03572

 Side 1  free  transition at x/c =  0.7700   60
 Side 2  free  transition at x/c =  0.0358   23

   8   rms: 0.7522E+00   max: 0.3494E+01   D at   31  2   RLX: 0.429
       a = -3.500      CL =  0.2499
      Cm = -0.1212     CD =  0.02210   =>   CDf =  0.00614    CDp =  0.01595

 Side 1  free  transition at x/c =  0.7704   60
 Side 2  free  transition at x/c =  0.0319   22

   9   rms: 0.7818E+00   max: 0.2765E+01   D at   30  2   RLX: 0.542
       a = -3.500      CL =  0.2524
      Cm = -0.1200     CD =  0.03139   =>   CDf =  0.00476    CDp =  0.02663

 Side 1  free  transition at x/c =  0.7689   61
 Side 2  free  transition at x/c =  0.0284   21

  10   rms: 0.1798E+00   max: 0.7425E+00   D at   35  2   RLX: 0.863
       a = -3.500      CL =  0.2539
      Cm = -0.1180     CD =  0.03475   =>   CDf =  0.00403    CDp =  0.03071

 Side 1  free  transition at x/c =  0.7690   61
 Side 2  free  transition at x/c =  0.0282   21

  11   rms: 0.4606E-01   max: 0.2086E+00   D at   37  2
       a = -3.500      CL =  0.2490
      Cm = -0.1172     CD =  0.03498   =>   CDf =  0.00380    CDp =  0.03118

 Side 1  free  transition at x/c =  0.7692   61
 Side 2  free  transition at x/c =  0.0283   21

  12   rms: 0.2930E-02   max: 0.3106E-01   D at   42  2
       a = -3.500      CL =  0.2484
      Cm = -0.1171     CD =  0.03484   =>   CDf =  0.00368    CDp =  0.03116

 Side 1  free  transition at x/c =  0.7692   61
 Side 2  free  transition at x/c =  0.0283   21

  13   rms: 0.7163E-04   max: 0.7799E-03   D at   44  2
       a = -3.500      CL =  0.2484
      Cm = -0.1171     CD =  0.03484   =>   CDf =  0.00368    CDp =  0.03116
 plradd ia,ip,cpol            2           0  4.58531734E-03

 Point added to stored polar  1
 Point written to save file  goe81_Re500k.base.pol                           
 Dump file unspecified or not available
 Calculating wake trajectory ...
 Calculating source influence matrix ...

 Solving BL system ...

 Side 1  free  transition at x/c =  0.7692   61
 Side 2  free  transition at x/c =  0.0283   21

   1   rms: 0.9981E-01   max: -.5915E+00   T at   21  2   RLX: 0.845
       a = -3.000      CL =  0.2876
      Cm = -0.1184     CD =  0.03173   =>   CDf =  0.00368    CDp =  0.02806

 Side 1  free  transition at x/c =  0.7514   60
 Side 2  free  transition at x/c =  0.0290   21

   2   rms: 0.8802E-01   max: -.2789E+00   D at   58  2
       a = -3.000      CL =  0.2993
      Cm = -0.1197     CD =  0.03095   =>   CDf =  0.00364    CDp =  0.02731

 Side 1  free  transition at x/c =  0.7486   59
 Side 2  free  transition at x/c =  0.0294   21

   3   rms: 0.1289E-01   max: -.5952E-01   T at   21  2
       a = -3.000      CL =  0.3018
      Cm = -0.1196     CD =  0.03122   =>   CDf =  0.00387    CDp =  0.02735

 Side 1  free  transition at x/c =  0.7480   59
 Side 2  free  transition at x/c =  0.0296   21

   4   rms: 0.9716E-03   max: -.3885E-02   D at   43  2
       a = -3.000      CL =  0.3020
      Cm = -0.1196     CD =  0.03124   =>   CDf =  0.00391    CDp =  0.02733

 Side 1  free  transition at x/c =  0.7481   59
 Side 2  free  transition at x/c =  0.0296   21

   5   rms: 0.2442E-04   max: -.1764E-03   D at   43  2
       a = -3.000      CL =  0.3020
      Cm = -0.1196     CD =  0.03124   =>   CDf =  0.00391    CDp =  0.02733
 plradd ia,ip,cpol            3           0  6.30219374E-03

 Point added to stored polar  1
 Point written to save file  goe81_Re500k.base.pol                           
 Dump file unspecified or not available
 Calculating wake trajectory ...
 Calculating source influence matrix ...

 Solving BL system ...

 Side 1  free  transition at x/c =  0.7481   59
 Side 2  free  transition at x/c =  0.0296   21

   1   rms: 0.9492E-01   max: -.5592E+00   T at   21  2   RLX: 0.894
       a = -2.500      CL =  0.3543
      Cm = -0.1223     CD =  0.02771   =>   CDf =  0.00389    CDp =  0.02381

 Side 1  free  transition at x/c =  0.7303   59
 Side 2  free  transition at x/c =  0.0314   20

   2   rms: 0.6222E-01   max: -.2050E+00   D at   50  2
       a = -2.500      CL =  0.3637
      Cm = -0.1227     CD =  0.02744   =>   CDf =  0.00407    CDp =  0.02337

 Side 1  free  transition at x/c =  0.7309   59
 Side 2  free  transition at x/c =  0.0323   20

   3   rms: 0.3304E-01   max: -.2346E+00   T at   20  2
       a = -2.500      CL =  0.3675
      Cm = -0.1227     CD =  0.02751   =>   CDf =  0.00420    CDp =  0.02331

 Side 1  free  transition at x/c =  0.7308   59
 Side 2  free  transition at x/c =  0.0329   20

   4   rms: 0.2151E+00   max: -.1509E+01   T at   20  2   RLX: 0.331
       a = -2.500      CL =  0.3749
      Cm = -0.1230     CD =  0.02877   =>   CDf =  0.00422    CDp =  0.02455

 Side 1  free  transition at x/c =  0.7310   59
 Side 2  free  transition at x/c =  0.0321   20

   5   rms: 0.5556E+00   max: 0.2111E+01   D at   33  2   RLX: 0.711
       a = -2.500      CL =  0.3696
      Cm = -0.1230     CD =  0.02774   =>   CDf =  0.00518    CDp =  0.02256

 Side 1  free  transition at x/c =  0.7301   59
 Side 2  free  transition at x/c =  0.0313   20

   6   rms: 0.3954E+00   max: 0.2676E+01   D at   31  2   RLX: 0.561
       a = -2.500      CL =  0.3790
      Cm = -0.1219     CD =  0.02298   =>   CDf =  0.00571    CDp =  0.01727

 MRCHDU: Convergence failed at  31  side 2    Res =  0.1871E+01
 Side 1  free  transition at x/c =  0.7307   59
 Side 2  free  transition at x/c =  0.0322   20

   7   rms: 0.9687E-01   max: 0.7365E+00   D at   30  2
       a = -2.500      CL =  0.3686
      Cm = -0.1227     CD =  0.02753   =>   CDf =  0.00451    CDp =  0.02302

 Side 1  free  transition at x/c =  0.7309   59
 Side 2  free  transition at x/c =  0.0329   20

   8   rms: 0.4395E-01   max: 0.2619E+00   D at   31  2
       a = -2.500      CL =  0.3632
      Cm = -0.1224     CD =  0.02767   =>   CDf =  0.00428    CDp =  0.02338

 Side 1  free  transition at x/c =  0.7307   59
 Side 2  free  transition at x/c =  0.0324   20

   9   rms: 0.4998E-01   max: -.2409E+00   T at   20  2
       a = -2.500      CL =  0.3682
      Cm = -0.1228     CD =  0.02754   =>   CDf =  0.00415    CDp =  0.02339

 Side 1  free  transition at x/c =  0.7308   59
 Side 2  free  transition at x/c =  0.0330   20

  10   rms: 0.5535E-01   max: -.3137E+00   T at   20  2
       a = -2.500      CL =  0.3746
      Cm = -0.1229     CD =  0.02780   =>   CDf =  0.00424    CDp =  0.02356

 Side 1  free  transition at x/c =  0.7309   59
 Side 2  free  transition at x/c =  0.0329   20

  11   rms: 0.2680E+00   max: 0.8576E+00   D at   39  2
       a = -2.500      CL =  0.3679
      Cm = -0.1226     CD =  0.02925   =>   CDf =  0.00482    CDp =  0.02443

 Side 1  free  transition at x/c =  0.7304   59
 Side 2  free  transition at x/c =  0.0323   20

  12   rms: 0.1420E+00   max: 0.6480E+00   D at   37  2
       a = -2.500      CL =  0.3675
      Cm = -0.1232     CD =  0.02753   =>   CDf =  0.00469    CDp =  0.02284

 Side 1  free  transition at x/c =  0.7308   59
 Side 2  free  transition at x/c =  0.0326   20

  13   rms: 0.3162E-01   max: -.3079E+00   T at   20  2
       a = -2.500      CL =  0.3703
      Cm = -0.1226     CD =  0.02769   =>   CDf =  0.00430    CDp =  0.02339

 Side 1  free  transition at x/c =  0.7309   59
 Side 2  free  transition at x/c =  0.0330   20

  14   rms: 0.4688E-01   max: 0.1921E+00   D at   21  2
       a = -2.500      CL =  0.3694
      Cm = -0.1225     CD =  0.02790   =>   CDf =  0.00440    CDp =  0.02350

 Side 1  free  transition at x/c =  0.7308   59
 Side 2  free  transition at x/c =  0.0330   20

  15   rms: 0.1439E-01   max: -.8504E-01   T at   20  2
       a = -2.500      CL =  0.3708
      Cm = -0.1227     CD =  0.02775   =>   CDf =  0.00435    CDp =  0.02339

 Side 1  free  transition at x/c =  0.7309   59
 Side 2  free  transition at x/c =  0.0332   20

  16   rms: 0.5161E-02   max: 0.2438E-01   T at   21  2
       a = -2.500      CL =  0.3710
      Cm = -0.1227     CD =  0.02775   =>   CDf =  0.00436    CDp =  0.02339

 Side 1  free  transition at x/c =  0.7309   59
 Side 2  free  transition at x/c =  0.0332   20

  17   rms: 0.6680E-03   max: -.2280E-02   D at   43  2
       a = -2.500      CL =  0.3711
      Cm = -0.1227     CD =  0.02774   =>   CDf =  0.00435    CDp =  0.02339

 Side 1  free  transition at x/c =  0.7309   59
 Side 2  free  transition at x/c =  0.0332   20

  18   rms: 0.1567E-04   max: 0.6874E-04   D at   48  2
       a = -2.500      CL =  0.3711
      Cm = -0.1227     CD =  0.02774   =>   CDf =  0.00436    CDp =  0.02339
 plradd ia,ip,cpol            4           0  6.30219374E-03

 Point added to stored polar  1
 Point written to save file  goe81_Re500k.base.pol                           
 Dump file unspecified or not available
 Calculating wake trajectory ...
 Calculating source influence matrix ...

 Solving BL system ...

 Side 1  free  transition at x/c =  0.7309   59
 Side 2  free  transition at x/c =  0.0332   20

   1   rms: 0.2947E+00   max: -.1949E+01   T at   20  2   RLX: 0.257
       a = -2.000      CL =  0.3944
      Cm = -0.1234     CD =  0.02711   =>   CDf =  0.00436    CDp =  0.02275

 Side 1  free  transition at x/c =  0.7263   59
 Side 2  free  transition at x/c =  0.0321   20

   2   rms: 0.7057E+00   max: 0.2604E+01   D at   29  2   RLX: 0.576
       a = -2.000      CL =  0.4144
      Cm = -0.1242     CD =  0.02327   =>   CDf =  0.00557    CDp =  0.01770

 Side 1  free  transition at x/c =  0.7184   58
 Side 2  free  transition at x/c =  0.0324   20

   3   rms: 0.4487E+00   max: 0.2672E+01   D at   27  2   RLX: 0.561
       a = -2.000      CL =  0.4286
      Cm = -0.1227     CD =  0.02103   =>   CDf =  0.00608    CDp =  0.01495

 MRCHDU: Convergence failed at  27  side 2    Res =  0.4113E+01
 Side 1  free  transition at x/c =  0.7164   58
 Side 2  free  transition at x/c =  0.0331   20

   4   rms: 0.6809E-01   max: 0.4941E+00   D at   28  2
       a = -2.000      CL =  0.4307
      Cm = -0.1235     CD =  0.02551   =>   CDf =  0.00475    CDp =  0.02075

 Side 1  free  transition at x/c =  0.7145   58
 Side 2  free  transition at x/c =  0.0373   21

   5   rms: 0.5027E+00   max: 0.2758E+01   D at   25  2   RLX: 0.544
       a = -2.000      CL =  0.4402
      Cm = -0.1258     CD =  0.01531   =>   CDf =  0.00670    CDp =  0.00861

 MRCHDU: Convergence failed at  25  side 2    Res =  0.1013E+01
 MRCHDU: Convergence failed at  26  side 2    Res =  0.2046E+01
 MRCHDU: Convergence failed at  27  side 2    Res =  0.6890E+02
 MRCHDU: Convergence failed at  28  side 2    Res =  0.9185E+01
 MRCHDU: Convergence failed at  29  side 2    Res =  0.3397E+01
 MRCHDU: Convergence failed at  30  side 2    Res =  0.2674E+01
 MRCHDU: Convergence failed at  31  side 2    Res =  0.2645E+01
 MRCHDU: Convergence failed at  32  side 2    Res =  0.2846E+01
 MRCHDU: Convergence failed at  33  side 2    Res =  0.3115E+01
 MRCHDU: Convergence failed at  34  side 2    Res =  0.3387E+01
 MRCHDU: Convergence failed at  35  side 2    Res =  0.3645E+01
 MRCHDU: Convergence failed at  36  side 2    Res =  0.3883E+01
 MRCHDU: Convergence failed at  37  side 2    Res =  0.4091E+01
 MRCHDU: Convergence failed at  38  side 2    Res =  0.4264E+01
 MRCHDU: Convergence failed at  39  side 2    Res =  0.4402E+01
 MRCHDU: Convergence failed at  40  side 2    Res =  0.2756E+01
 MRCHDU: Convergence failed at  41  side 2    Res =  0.3027E+01
 MRCHDU: Convergence failed at  42  side 2    Res =  0.3180E+01
 MRCHDU: Convergence failed at  43  side 2    Res =  0.3341E+01
 MRCHDU: Convergence failed at  44  side 2    Res =  0.3718E+01
 MRCHDU: Convergence failed at  45  side 2    Res =  0.3929E+01
 MRCHDU: Convergence failed at  46  side 2    Res =  0.4150E+01
 MRCHDU: Convergence failed at  47  side 2    Res =  0.4386E+01
 MRCHDU: Convergence failed at  48  side 2    Res =  0.4633E+01
 MRCHDU: Convergence failed at  49  side 2    Res =  0.4882E+01
 MRCHDU: Convergence failed at  50  side 2    Res =  0.5134E+01
 MRCHDU: Convergence failed at  51  side 2    Res =  0.5374E+01
 MRCHDU: Convergence failed at  52  side 2    Res =  0.6301E+01
 MRCHDU: Convergence failed at  53  side 2    Res =  0.7459E+01
 MRCHDU: Convergence failed at  54  side 2    Res =  0.7752E+01
 MRCHDU: Convergence failed at  55  side 2    Res =  0.8015E+01
 MRCHDU: Convergence failed at  56  side 2    Res =  0.8280E+01
 MRCHDU: Convergence failed at  57  side 2    Res =  0.8572E+01
 MRCHDU: Convergence failed at  58  side 2    Res =  0.8940E+01
 MRCHDU: Convergence failed at  59  side 2    Res =  0.9418E+01
 MRCHDU: Convergence failed at  60  side 2    Res =  0.1001E+02
 MRCHDU: Convergence failed at  61  side 2    Res =  0.1541E+02
 MRCHDU: Convergence failed at  62  side 2    Res =  0.1726E+02
 MRCHDU: Convergence failed at  63  side 2    Res =  0.1970E+02
 MRCHDU: Convergence failed at  64  side 2    Res =  0.2294E+02
 MRCHDU: Convergence failed at  65  side 2    Res =  0.2700E+02
 MRCHDU: Convergence failed at  66  side 2    Res =  0.3225E+02
 MRCHDU: Convergence failed at  67  side 2    Res =  0.3832E+02
 MRCHDU: Convergence failed at  68  side 2    Res =  0.4571E+02
 MRCHDU: Convergence failed at  69  side 2    Res =  0.5674E+02
 MRCHDU: Convergence failed at  70  side 2    Res =  0.6871E+02
 MRCHDU: Convergence failed at  71  side 2    Res =  0.7352E+02
 MRCHDU: Convergence failed at  72  side 2    Res =  0.7096E+02
 MRCHDU: Convergence failed at  73  side 2    Res =  0.7033E+02
 MRCHDU: Convergence failed at  74  side 2    Res =  0.6882E+02
 MRCHDU: Convergence failed at  75  side 2    Res =  0.7622E+02
 MRCHDU: Convergence failed at  76  side 2    Res =  0.9967E+02
 MRCHDU: Convergence failed at  77  side 2    Res =  0.2538E+03
 MRCHDU: Convergence failed at  78  side 2    Res =  0.3289E+03
 MRCHDU: Convergence failed at  79  side 2    Res =  0.2953E+02
 MRCHDU: Convergence failed at  80  side 2    Res =  0.5762E+03
 MRCHDU: Convergence failed at  81  side 2    Res =  0.1110E+03
 MRCHDU: Convergence failed at  82  side 2    Res =  0.4919E+02
 MRCHDU: Convergence failed at  83  side 2    Res =  0.1801E+02
 MRCHDU: Convergence failed at  84  side 2    Res =  0.1403E+02
 Side 1  free  transition at x/c =  0.7157   58
 Side 2  free  transition at x/c =  0.0376   21

   6   rms: 0.4053E+00   max: 0.1556E+01   D at   24  2   RLX: 0.964
       a = -2.000      CL =  0.3995
      Cm = -0.1121     CD =  0.01707   =>   CDf =  0.00350    CDp =  0.01356

 Side 1  free  transition at x/c =  0.7178   58
 Side 2  free  transition at x/c =  0.0343   21

   7   rms: 0.9395E-01   max: -.6163E+00   D at   46  2   RLX: 0.811
       a = -2.000      CL =  0.4266
      Cm = -0.1235     CD =  0.02360   =>   CDf =  0.00469    CDp =  0.01891

 Side 1  free  transition at x/c =  0.7155   58
 Side 2  free  transition at x/c =  0.0343   21

   8   rms: 0.3457E-01   max: -.4149E+00   D at   46  2
       a = -2.000      CL =  0.4315
      Cm = -0.1252     CD =  0.02300   =>   CDf =  0.00475    CDp =  0.01825

 Side 1  free  transition at x/c =  0.7152   58
 Side 2  free  transition at x/c =  0.0344   21

   9   rms: 0.1212E-01   max: -.1739E+00   D at   46  2
       a = -2.000      CL =  0.4309
      Cm = -0.1252     CD =  0.02300   =>   CDf =  0.00476    CDp =  0.01824

 Side 1  free  transition at x/c =  0.7152   58
 Side 2  free  transition at x/c =  0.0344   21

  10   rms: 0.1447E-02   max: -.2572E-01   D at   46  2
       a = -2.000      CL =  0.4309
      Cm = -0.1252     CD =  0.02300   =>   CDf =  0.00476    CDp =  0.01823

 Side 1  free  transition at x/c =  0.7152   58
 Side 2  free  transition at x/c =  0.0344   21

  11   rms: 0.2550E-04   max: -.5098E-03   D at   46  2
       a = -2.000      CL =  0.4309
      Cm = -0.1252     CD =  0.02300   =>   CDf =  0.00476    CDp =  0.01823
 plradd ia,ip,cpol            5           0  8.26685969E-03

 Point added to stored polar  1
 Point written to save file  goe81_Re500k.base.pol                           
 Dump file unspecified or not available
 Calculating wake trajectory ...
 Calculating source influence matrix ...

 Solving BL system ...

 Side 1  free  transition at x/c =  0.7152   58
 Side 2  free  transition at x/c =  0.0344   21

   1   rms: 0.1149E+00   max: -.6838E+00   T at   21  2   RLX: 0.731
       a = -1.500      CL =  0.4688
      Cm = -0.1264     CD =  0.02093   =>   CDf =  0.00473    CDp =  0.01621

 Side 1  free  transition at x/c =  0.6992   58
 Side 2  free  transition at x/c =  0.0352   20

   2   rms: 0.1050E+00   max: -.3371E+00   D at   43  2
       a = -1.500      CL =  0.4856
      Cm = -0.1268     CD =  0.02056   =>   CDf =  0.00466    CDp =  0.01590

 Side 1  free  transition at x/c =  0.6968   58
 Side 2  free  transition at x/c =  0.0358   20

   3   rms: 0.2263E-01   max: -.1082E+00   D at   42  2
       a = -1.500      CL =  0.4852
      Cm = -0.1263     CD =  0.02071   =>   CDf =  0.00490    CDp =  0.01582

 Side 1  free  transition at x/c =  0.6968   58
 Side 2  free  transition at x/c =  0.0361   20

   4   rms: 0.1338E-02   max: -.8048E-02   D at   42  2
       a = -1.500      CL =  0.4851
      Cm = -0.1263     CD =  0.02071   =>   CDf =  0.00496    CDp =  0.01575

 Side 1  free  transition at x/c =  0.6968   58
 Side 2  free  transition at x/c =  0.0361   20

   5   rms: 0.1100E-04   max: -.6970E-04   D at   31  2
       a = -1.500      CL =  0.4851
      Cm = -0.1263     CD =  0.02072   =>   CDf =  0.00497    CDp =  0.01575
 plradd ia,ip,cpol            6           0  8.26685969E-03

 Point added to stored polar  1
 Point written to save file  goe81_Re500k.base.pol                           
 Dump file unspecified or not available
 Calculating wake trajectory ...
 Calculating source influence matrix ...

 Solving BL system ...

 Side 1  free  transition at x/c =  0.6968   58
 Side 2  free  transition at x/c =  0.0361   20

   1   rms: 0.1041E+00   max: -.5972E+00   T at   20  2   RLX: 0.837
       a = -1.000      CL =  0.5330
      Cm = -0.1271     CD =  0.01877   =>   CDf =  0.00497    CDp =  0.01380

 Side 1  free  transition at x/c =  0.6804   57
 Side 2  free  transition at x/c =  0.0383   20

   2   rms: 0.7240E-01   max: -.2981E+00   T at   20  2
       a = -1.000      CL =  0.5443
      Cm = -0.1271     CD =  0.01848   =>   CDf =  0.00511    CDp =  0.01338

 Side 1  free  transition at x/c =  0.6792   57
 Side 2  free  transition at x/c =  0.0401   20

   3   rms: 0.4269E+00   max: -.4318E+01   T at   20  2   RLX: 0.116
       a = -1.000      CL =  0.5467
      Cm = -0.1266     CD =  0.01977   =>   CDf =  0.00523    CDp =  0.01454

 Side 1  free  transition at x/c =  0.6793   57
 Side 2  free  transition at x/c =  0.0404   20

   4   rms: 0.1065E+00   max: 0.4365E+00   D at   21  2
       a = -1.000      CL =  0.5440
      Cm = -0.1263     CD =  0.01960   =>   CDf =  0.00548    CDp =  0.01412

 Side 1  free  transition at x/c =  0.6789   57
 Side 2  free  transition at x/c =  0.0402   20

   5   rms: 0.6836E-01   max: 0.2699E+00   D at   33  2
       a = -1.000      CL =  0.5451
      Cm = -0.1266     CD =  0.01888   =>   CDf =  0.00556    CDp =  0.01331

 Side 1  free  transition at x/c =  0.6792   57
 Side 2  free  transition at x/c =  0.0410   20

   6   rms: 0.1052E+00   max: -.5588E+00   T at   21  2   RLX: 0.895
       a = -1.000      CL =  0.5418
      Cm = -0.1272     CD =  0.01799   =>   CDf =  0.00525    CDp =  0.01274

 Side 1  free  transition at x/c =  0.6792   57
 Side 2  free  transition at x/c =  0.0396   20

   7   rms: 0.1210E+00   max: -.4453E+00   D at   39  2
       a = -1.000      CL =  0.5477
      Cm = -0.1272     CD =  0.01860   =>   CDf =  0.00496    CDp =  0.01364

 Side 1  free  transition at x/c =  0.6792   57
 Side 2  free  transition at x/c =  0.0411   20

   8   rms: 0.9317E-01   max: -.4013E+00   D at   38  2
       a = -1.000      CL =  0.5480
      Cm = -0.1265     CD =  0.01940   =>   CDf =  0.00515    CDp =  0.01425

 Side 1  free  transition at x/c =  0.6791   57
 Side 2  free  transition at x/c =  0.0411   20

   9   rms: 0.1202E+00   max: 0.4296E+00   D at   29  2
       a = -1.000      CL =  0.5458
      Cm = -0.1263     CD =  0.01941   =>   CDf =  0.00568    CDp =  0.01373

 Side 1  free  transition at x/c =  0.6791   57
 Side 2  free  transition at x/c =  0.0411   20

  10   rms: 0.2973E-01   max: 0.9513E-01   D at   37  2
       a = -1.000      CL =  0.5461
      Cm = -0.1263     CD =  0.01929   =>   CDf =  0.00551    CDp =  0.01377

 Side 1  free  transition at x/c =  0.6792   57
 Side 2  free  transition at x/c =  0.0412   20

  11   rms: 0.1827E-02   max: -.1206E-01   T at   20  2
       a = -1.000      CL =  0.5463
      Cm = -0.1263     CD =  0.01930   =>   CDf =  0.00546    CDp =  0.01384

 Side 1  free  transition at x/c =  0.6791   57
 Side 2  free  transition at x/c =  0.0412   20

  12   rms: 0.3365E-04   max: -.2995E-03   T at   20  2
       a = -1.000      CL =  0.5463
      Cm = -0.1263     CD =  0.01930   =>   CDf =  0.00547    CDp =  0.01383
 plradd ia,ip,cpol            7           0  8.26685969E-03

 Point added to stored polar  1
 Point written to save file  goe81_Re500k.base.pol                           
 Dump file unspecified or not available
 Calculating wake trajectory ...
 Calculating source influence matrix ...

 Solving BL system ...

 Side 1  free  transition at x/c =  0.6791   57
 Side 2  free  transition at x/c =  0.0412   20

   1   rms: 0.1151E+00   max: -.1109E+01   T at   20  2   RLX: 0.451
       a = -0.500      CL =  0.5738
      Cm = -0.1261     CD =  0.01934   =>   CDf =  0.00540    CDp =  0.01394

 Side 1  free  transition at x/c =  0.6713   57
 Side 2  free  transition at x/c =  0.0394   19

   2   rms: 0.4023E+00   max: 0.1695E+01   D at   20  2   RLX: 0.849
       a = -0.500      CL =  0.5979
      Cm = -0.1268     CD =  0.01768   =>   CDf =  0.00619    CDp =  0.01149

 Side 1  free  transition at x/c =  0.6628   57
 Side 2  free  transition at x/c =  0.0431   20

   3   rms: 0.1300E+00   max: 0.1218E+01   D at   24  2   RLX: 0.530
       a = -0.500      CL =  0.6047
      Cm = -0.1268     CD =  0.01373   =>   CDf =  0.00659    CDp =  0.00714

 MRCHDU: Convergence failed at  24  side 2    Res =  0.1054E+01
 MRCHDU: Convergence failed at  25  side 2    Res =  0.1386E+01
 MRCHDU: Convergence failed at  26  side 2    Res =  0.2677E+01
 MRCHDU: Convergence failed at  27  side 2    Res =  0.9192E+01
 MRCHDU: Convergence failed at  28  side 2    Res =  0.1578E+02
 MRCHDU: Convergence failed at  29  side 2    Res =  0.5966E+01
 MRCHDU: Convergence failed at  30  side 2    Res =  0.4795E+01
 MRCHDU: Convergence failed at  31  side 2    Res =  0.4445E+01
 MRCHDU: Convergence failed at  32  side 2    Res =  0.4318E+01
 MRCHDU: Convergence failed at  33  side 2    Res =  0.4277E+01
 MRCHDU: Convergence failed at  34  side 2    Res =  0.4026E+01
 MRCHDU: Convergence failed at  35  side 2    Res =  0.3948E+01
 MRCHDU: Convergence failed at  36  side 2    Res =  0.3938E+01
 MRCHDU: Convergence failed at  37  side 2    Res =  0.3859E+01
 MRCHDU: Convergence failed at  38  side 2    Res =  0.3810E+01
 MRCHDU: Convergence failed at  39  side 2    Res =  0.2862E+01
 MRCHDU: Convergence failed at  40  side 2    Res =  0.3148E+01
 MRCHDU: Convergence failed at  41  side 2    Res =  0.3696E+01
 MRCHDU: Convergence failed at  42  side 2    Res =  0.4153E+01
 MRCHDU: Convergence failed at  43  side 2    Res =  0.5074E+01
 MRCHDU: Convergence failed at  44  side 2    Res =  0.6576E+01
 MRCHDU: Convergence failed at  45  side 2    Res =  0.1055E+02
 MRCHDU: Convergence failed at  46  side 2    Res =  0.1440E+02
 MRCHDU: Convergence failed at  47  side 2    Res =  0.3033E+02
 MRCHDU: Convergence failed at  48  side 2    Res =  0.6121E+03
 MRCHDU: Convergence failed at  49  side 2    Res =  0.3584E+02
 MRCHDU: Convergence failed at  50  side 2    Res =  0.2410E+02
 MRCHDU: Convergence failed at  51  side 2    Res =  0.1948E+02
 MRCHDU: Convergence failed at  52  side 2    Res =  0.1703E+02
 MRCHDU: Convergence failed at  53  side 2    Res =  0.1549E+02
 MRCHDU: Convergence failed at  54  side 2    Res =  0.1430E+02
 MRCHDU: Convergence failed at  55  side 2    Res =  0.1317E+02
 MRCHDU: Convergence failed at  56  side 2    Res =  0.1201E+02
 MRCHDU: Convergence failed at  57  side 2    Res =  0.1079E+02
 MRCHDU: Convergence failed at  58  side 2    Res =  0.9675E+01
 MRCHDU: Convergence failed at  59  side 2    Res =  0.7846E+01
 MRCHDU: Convergence failed at  60  side 2    Res =  0.7154E+01
 MRCHDU: Convergence failed at  61  side 2    Res =  0.6566E+01
 MRCHDU: Convergence failed at  62  side 2    Res =  0.6060E+01
 MRCHDU: Convergence failed at  63  side 2    Res =  0.5157E+01
 MRCHDU: Convergence failed at  64  side 2    Res =  0.4870E+01
 MRCHDU: Convergence failed at  65  side 2    Res =  0.4652E+01
 MRCHDU: Convergence failed at  66  side 2    Res =  0.4480E+01
 MRCHDU: Convergence failed at  67  side 2    Res =  0.4320E+01
 MRCHDU: Convergence failed at  68  side 2    Res =  0.4215E+01
 MRCHDU: Convergence failed at  69  side 2    Res =  0.4176E+01
 MRCHDU: Convergence failed at  70  side 2    Res =  0.4182E+01
 MRCHDU: Convergence failed at  71  side 2    Res =  0.4173E+01
 MRCHDU: Convergence failed at  72  side 2    Res =  0.4171E+01
 MRCHDU: Convergence failed at  73  side 2    Res =  0.4112E+01
 MRCHDU: Convergence failed at  74  side 2    Res =  0.3788E+01
 MRCHDU: Convergence failed at  75  side 2    Res =  0.3607E+01
 MRCHDU: Convergence failed at  76  side 2    Res =  0.3408E+01
 MRCHDU: Convergence failed at  77  side 2    Res =  0.3286E+01
 MRCHDU: Convergence failed at  78  side 2    Res =  0.3313E+01
 MRCHDU: Convergence failed at  79  side 2    Res =  0.3468E+01
 MRCHDU: Convergence failed at  80  side 2    Res =  0.3655E+01
 MRCHDU: Convergence failed at  81  side 2    Res =  0.4062E+01
 MRCHDU: Convergence failed at  82  side 2    Res =  0.4363E+01
 Side 1  free  transition at x/c =  0.6634   57
 Side 2  free  transition at x/c =  0.0450   20

   4   rms: 0.3043E+00   max: -.7902E+00   D at   78  2   RLX: 0.633
       a = -0.500      CL =  0.4665
      Cm = -0.0935     CD =  0.01414   =>   CDf =  0.00364    CDp =  0.01050

 Side 1  free  transition at x/c =  0.6646   57
 Side 2  free  transition at x/c =  0.0436   20

   5   rms: 0.1479E+00   max: 0.6532E+00   D at   32  2
       a = -0.500      CL =  0.6047
      Cm = -0.1281     CD =  0.01582   =>   CDf =  0.00669    CDp =  0.00912

 Side 1  free  transition at x/c =  0.6633   57
 Side 2  free  transition at x/c =  0.0444   20

   6   rms: 0.3045E-01   max: -.2141E+00   D at   33  2
       a = -0.500      CL =  0.6027
      Cm = -0.1276     CD =  0.01610   =>   CDf =  0.00563    CDp =  0.01048

 Side 1  free  transition at x/c =  0.6632   57
 Side 2  free  transition at x/c =  0.0443   20

   7   rms: 0.3036E-02   max: -.3308E-01   D at   33  2
       a = -0.500      CL =  0.6025
      Cm = -0.1276     CD =  0.01615   =>   CDf =  0.00572    CDp =  0.01042

 Side 1  free  transition at x/c =  0.6632   57
 Side 2  free  transition at x/c =  0.0443   20

   8   rms: 0.5635E-04   max: -.7839E-03   D at   33  2
       a = -0.500      CL =  0.6025
      Cm = -0.1276     CD =  0.01615   =>   CDf =  0.00573    CDp =  0.01042
 plradd ia,ip,cpol            8           0  0.22026549    

 Point added to stored polar  1
 Point written to save file  goe81_Re500k.base.pol                           
 Dump file unspecified or not available
 Calculating wake trajectory ...
 Calculating source influence matrix ...

 Solving BL system ...

 Side 1  free  transition at x/c =  0.6632   57
 Side 2  free  transition at x/c =  0.0443   20

   1   rms: 0.1067E+00   max: -.8007E+00   T at   20  2   RLX: 0.624
       a =  0.000      CL =  0.6370
      Cm = -0.1278     CD =  0.01531   =>   CDf =  0.00573    CDp =  0.00958

 Side 1  free  transition at x/c =  0.6530   56
 Side 2  free  transition at x/c =  0.0468   20

   2   rms: 0.9098E-01   max: -.6205E+00   T at   20  2   RLX: 0.806
       a =  0.000      CL =  0.6548
      Cm = -0.1278     CD =  0.01523   =>   CDf =  0.00563    CDp =  0.00960

 Side 1  free  transition at x/c =  0.6481   57
 Side 2  free  transition at x/c =  0.0505   19

   3   rms: 0.2033E+00   max: -.7391E+00   T at   20  2   RLX: 0.676
       a =  0.000      CL =  0.6560
      Cm = -0.1282     CD =  0.01571   =>   CDf =  0.00559    CDp =  0.01012

 Side 1  free  transition at x/c =  0.6477   57
 Side 2  free  transition at x/c =  0.0497   19

   4   rms: 0.1636E+00   max: -.7183E+00   T at   20  2   RLX: 0.696
       a =  0.000      CL =  0.6560
      Cm = -0.1285     CD =  0.01540   =>   CDf =  0.00554    CDp =  0.00986

 Side 1  free  transition at x/c =  0.6475   57
 Side 2  free  transition at x/c =  0.0484   19

   5   rms: 0.1715E+00   max: -.9856E+00   T at   19  2   RLX: 0.507
       a =  0.000      CL =  0.6575
      Cm = -0.1282     CD =  0.01643   =>   CDf =  0.00550    CDp =  0.01093

 Side 1  free  transition at x/c =  0.6475   57
 Side 2  free  transition at x/c =  0.0503   19

   6   rms: 0.1957E+00   max: -.8773E+00   D at   34  2   RLX: 0.570
       a =  0.000      CL =  0.6604
      Cm = -0.1277     CD =  0.01919   =>   CDf =  0.00540    CDp =  0.01378

 Side 1  free  transition at x/c =  0.6473   57
 Side 2  free  transition at x/c =  0.0501   19

   7   rms: 0.3465E+00   max: 0.1726E+01   D at   23  2   RLX: 0.869
       a =  0.000      CL =  0.6593
      Cm = -0.1271     CD =  0.01613   =>   CDf =  0.00637    CDp =  0.00977

 Side 1  free  transition at x/c =  0.6471   57
 Side 2  free  transition at x/c =  0.0507   19

   8   rms: 0.1533E-01   max: -.1769E+00   T at   19  2
       a =  0.000      CL =  0.6602
      Cm = -0.1270     CD =  0.01639   =>   CDf =  0.00610    CDp =  0.01029

 Side 1  free  transition at x/c =  0.6472   57
 Side 2  free  transition at x/c =  0.0509   19

   9   rms: 0.9998E-01   max: 0.3305E+00   D at   20  2
       a =  0.000      CL =  0.6600
      Cm = -0.1271     CD =  0.01623   =>   CDf =  0.00624    CDp =  0.00999

 Side 1  free  transition at x/c =  0.6472   57
 Side 2  free  transition at x/c =  0.0509   19

  10   rms: 0.4458E-01   max: 0.1506E+00   T at   20  2
       a =  0.000      CL =  0.6601
      Cm = -0.1271     CD =  0.01622   =>   CDf =  0.00615    CDp =  0.01007

 Side 1  free  transition at x/c =  0.6472   57
 Side 2  free  transition at x/c =  0.0509   19

  11   rms: 0.3114E-01   max: 0.1074E+00   T at   20  2
       a =  0.000      CL =  0.6602
      Cm = -0.1270     CD =  0.01624   =>   CDf =  0.00614    CDp =  0.01009

 Side 1  free  transition at x/c =  0.6472   57
 Side 2  free  transition at x/c =  0.0509   19

  12   rms: 0.2866E-01   max: 0.9432E-01   T at   20  2
       a =  0.000      CL =  0.6602
      Cm = -0.1270     CD =  0.01625   =>   CDf =  0.00615    CDp =  0.01010

 Side 1  free  transition at x/c =  0.6472   57
 Side 2  free  transition at x/c =  0.0510   19

  13   rms: 0.2815E-01   max: 0.9078E-01   T at   20  2
       a =  0.000      CL =  0.6602
      Cm = -0.1270     CD =  0.01625   =>   CDf =  0.00615    CDp =  0.01010

 Side 1  free  transition at x/c =  0.6472   57
 Side 2  free  transition at x/c =  0.0510   19

  14   rms: 0.2804E-01   max: 0.8989E-01   T at   20  2
       a =  0.000      CL =  0.6602
      Cm = -0.1270     CD =  0.01625   =>   CDf =  0.00615    CDp =  0.01010

 Side 1  free  transition at x/c =  0.6472   57
 Side 2  free  transition at x/c =  0.0510   19

  15   rms: 0.2801E-01   max: 0.8966E-01   T at   20  2
       a =  0.000      CL =  0.6602
      Cm = -0.1270     CD =  0.01625   =>   CDf =  0.00615    CDp =  0.01010

 Side 1  free  transition at x/c =  0.6472   57
 Side 2  free  transition at x/c =  0.0510   19

  16   rms: 0.2801E-01   max: 0.8962E-01   T at   20  2
       a =  0.000      CL =  0.6602
      Cm = -0.1270     CD =  0.01625   =>   CDf =  0.00615    CDp =  0.01010

 Side 1  free  transition at x/c =  0.6472   57
 Side 2  free  transition at x/c =  0.0510   19

  17   rms: 0.2800E-01   max: 0.8959E-01   T at   20  2
       a =  0.000      CL =  0.6602
      Cm = -0.1270     CD =  0.01625   =>   CDf =  0.00615    CDp =  0.01010

 Side 1  free  transition at x/c =  0.6472   57
 Side 2  free  transition at x/c =  0.0510   19

  18   rms: 0.2800E-01   max: 0.8959E-01   T at   20  2
       a =  0.000      CL =  0.6602
      Cm = -0.1270     CD =  0.01625   =>   CDf =  0.00615    CDp =  0.01010

 Side 1  free  transition at x/c =  0.6472   57
 Side 2  free  transition at x/c =  0.0510   19

  19   rms: 0.2800E-01   max: 0.8959E-01   T at   20  2
       a =  0.000      CL =  0.6602
      Cm = -0.1270     CD =  0.01625   =>   CDf =  0.00615    CDp =  0.01010

 Side 1  free  transition at x/c =  0.6472   57
 Side 2  free  transition at x/c =  0.0510   19

  20   rms: 0.2800E-01   max: 0.8958E-01   T at   20  2
       a =  0.000      CL =  0.6602
      Cm = -0.1270     CD =  0.01625   =>   CDf =  0.00615    CDp =  0.01010

 Side 1  free  transition at x/c =  0.6472   57
 Side 2  free  transition at x/c =  0.0510   19

  21   rms: 0.2800E-01   max: 0.8958E-01   T at   20  2
       a =  0.000      CL =  0.6602
      Cm = -0.1270     CD =  0.01625   =>   CDf =  0.00615    CDp =  0.01010

 Side 1  free  transition at x/c =  0.6472   57
 Side 2  free  transition at x/c =  0.0510   19

  22   rms: 0.2800E-01   max: 0.8960E-01   T at   20  2
       a =  0.000      CL =  0.6602
      Cm = -0.1270     CD =  0.01625   =>   CDf =  0.00615    CDp =  0.01010

 Side 1  free  transition at x/c =  0.6472   57
 Side 2  free  transition at x/c =  0.0510   19

  23   rms: 0.2800E-01   max: 0.8958E-01   T at   20  2
       a =  0.000      CL =  0.6602
      Cm = -0.1270     CD =  0.01625   =>   CDf =  0.00615    CDp =  0.01010

 Side 1  free  transition at x/c =  0.6472   57
 Side 2  free  transition at x/c =  0.0510   19

  24   rms: 0.2800E-01   max: 0.8958E-01   T at   20  2
       a =  0.000      CL =  0.6602
      Cm = -0.1270     CD =  0.01625   =>   CDf =  0.00615    CDp =  0.01010

 Side 1  free  transition at x/c =  0.6472   57
 Side 2  free  transition at x/c =  0.0510   19

  25   rms: 0.2800E-01   max: 0.8960E-01   T at   20  2
       a =  0.000      CL =  0.6602
      Cm = -0.1270     CD =  0.01625   =>   CDf =  0.00615    CDp =  0.01010

 Side 1  free  transition at x/c =  0.6472   57
 Side 2  free  transition at x/c =  0.0510   19

  26   rms: 0.2800E-01   max: 0.8958E-01   T at   20  2
       a =  0.000      CL =  0.6602
      Cm = -0.1270     CD =  0.01625   =>   CDf =  0.00615    CDp =  0.01010

 Side 1  free  transition at x/c =  0.6472   57
 Side 2  free  transition at x/c =  0.0510   19

  27   rms: 0.2800E-01   max: 0.8959E-01   T at   20  2
       a =  0.000      CL =  0.6602
      Cm = -0.1270     CD =  0.01625   =>   CDf =  0.00615    CDp =  0.01010

 Side 1  free  transition at x/c =  0.6472   57
 Side 2  free  transition at x/c =  0.0510   19

  28   rms: 0.2800E-01   max: 0.8960E-01   T at   20  2
       a =  0.000      CL =  0.6602
      Cm = -0.1270     CD =  0.01625   =>   CDf =  0.00615    CDp =  0.01010

 Side 1  free  transition at x/c =  0.6472   57
 Side 2  free  transition at x/c =  0.0510   19

  29   rms: 0.2800E-01   max: 0.8959E-01   T at   20  2
       a =  0.000      CL =  0.6602
      Cm = -0.1270     CD =  0.01625   =>   CDf =  0.00615    CDp =  0.01010

 Side 1  free  transition at x/c =  0.6472   57
 Side 2  free  transition at x/c =  0.0510   19

  30   rms: 0.2800E-01   max: 0.8959E-01   T at   20  2
       a =  0.000      CL =  0.6602
      Cm = -0.1270     CD =  0.01625   =>   CDf =  0.00615    CDp =  0.01010

 Side 1  free  transition at x/c =  0.6472   57
 Side 2  free  transition at x/c =  0.0510   19

  31   rms: 0.2800E-01   max: 0.8958E-01   T at   20  2
       a =  0.000      CL =  0.6602
      Cm = -0.1270     CD =  0.01625   =>   CDf =  0.00615    CDp =  0.01010

 Side 1  free  transition at x/c =  0.6472   57
 Side 2  free  transition at x/c =  0.0510   19

  32   rms: 0.2800E-01   max: 0.8958E-01   T at   20  2
       a =  0.000      CL =  0.6602
      Cm = -0.1270     CD =  0.01625   =>   CDf =  0.00615    CDp =  0.01010

 Side 1  free  transition at x/c =  0.6472   57
 Side 2  free  transition at x/c =  0.0510   19

  33   rms: 0.2800E-01   max: 0.8959E-01   T at   20  2
       a =  0.000      CL =  0.6602
      Cm = -0.1270     CD =  0.01625   =>   CDf =  0.00615    CDp =  0.01010

 Side 1  free  transition at x/c =  0.6472   57
 Side 2  free  transition at x/c =  0.0510   19

  34   rms: 0.2800E-01   max: 0.8959E-01   T at   20  2
       a =  0.000      CL =  0.6602
      Cm = -0.1270     CD =  0.01625   =>   CDf =  0.00615    CDp =  0.01010

 Side 1  free  transition at x/c =  0.6472   57
 Side 2  free  transition at x/c =  0.0510   19

  35   rms: 0.2800E-01   max: 0.8959E-01   T at   20  2
       a =  0.000      CL =  0.6602
      Cm = -0.1270     CD =  0.01625   =>   CDf =  0.00615    CDp =  0.01010

 Side 1  free  transition at x/c =  0.6472   57
 Side 2  free  transition at x/c =  0.0510   19

  36   rms: 0.2800E-01   max: 0.8960E-01   T at   20  2
       a =  0.000      CL =  0.6602
      Cm = -0.1270     CD =  0.01625   =>   CDf =  0.00615    CDp =  0.01010

 Side 1  free  transition at x/c =  0.6472   57
 Side 2  free  transition at x/c =  0.0510   19

  37   rms: 0.2800E-01   max: 0.8959E-01   T at   20  2
       a =  0.000      CL =  0.6602
      Cm = -0.1270     CD =  0.01625   =>   CDf =  0.00615    CDp =  0.01010

 Side 1  free  transition at x/c =  0.6472   57
 Side 2  free  transition at x/c =  0.0510   19

  38   rms: 0.2800E-01   max: 0.8960E-01   T at   20  2
       a =  0.000      CL =  0.6602
      Cm = -0.1270     CD =  0.01625   =>   CDf =  0.00615    CDp =  0.01010

 Side 1  free  transition at x/c =  0.6472   57
 Side 2  free  transition at x/c =  0.0510   19

  39   rms: 0.2800E-01   max: 0.8960E-01   T at   20  2
       a =  0.000      CL =  0.6602
      Cm = -0.1270     CD =  0.01625   =>   CDf =  0.00615    CDp =  0.01010

 Side 1  free  transition at x/c =  0.6472   57
 Side 2  free  transition at x/c =  0.0510   19

  40   rms: 0.2800E-01   max: 0.8959E-01   T at   20  2
       a =  0.000      CL =  0.6602
      Cm = -0.1270     CD =  0.01625   =>   CDf =  0.00615    CDp =  0.01010

 Side 1  free  transition at x/c =  0.6472   57
 Side 2  free  transition at x/c =  0.0510   19

  41   rms: 0.2800E-01   max: 0.8958E-01   T at   20  2
       a =  0.000      CL =  0.6602
      Cm = -0.1270     CD =  0.01625   =>   CDf =  0.00615    CDp =  0.01010

 Side 1  free  transition at x/c =  0.6472   57
 Side 2  free  transition at x/c =  0.0510   19

  42   rms: 0.2800E-01   max: 0.8958E-01   T at   20  2
       a =  0.000      CL =  0.6602
      Cm = -0.1270     CD =  0.01625   =>   CDf =  0.00615    CDp =  0.01010

 Side 1  free  transition at x/c =  0.6472   57
 Side 2  free  transition at x/c =  0.0510   19

  43   rms: 0.2800E-01   max: 0.8958E-01   T at   20  2
       a =  0.000      CL =  0.6602
      Cm = -0.1270     CD =  0.01625   =>   CDf =  0.00615    CDp =  0.01010

 Side 1  free  transition at x/c =  0.6472   57
 Side 2  free  transition at x/c =  0.0510   19

  44   rms: 0.2800E-01   max: 0.8958E-01   T at   20  2
       a =  0.000      CL =  0.6602
      Cm = -0.1270     CD =  0.01625   =>   CDf =  0.00615    CDp =  0.01010

 Side 1  free  transition at x/c =  0.6472   57
 Side 2  free  transition at x/c =  0.0510   19

  45   rms: 0.2800E-01   max: 0.8958E-01   T at   20  2
       a =  0.000      CL =  0.6602
      Cm = -0.1270     CD =  0.01625   =>   CDf =  0.00615    CDp =  0.01010

 Side 1  free  transition at x/c =  0.6472   57
 Side 2  free  transition at x/c =  0.0510   19

  46   rms: 0.2800E-01   max: 0.8959E-01   T at   20  2
       a =  0.000      CL =  0.6602
      Cm = -0.1270     CD =  0.01625   =>   CDf =  0.00615    CDp =  0.01010

 Side 1  free  transition at x/c =  0.6472   57
 Side 2  free  transition at x/c =  0.0510   19

  47   rms: 0.2800E-01   max: 0.8959E-01   T at   20  2
       a =  0.000      CL =  0.6602
      Cm = -0.1270     CD =  0.01625   =>   CDf =  0.00615    CDp =  0.01010

 Side 1  free  transition at x/c =  0.6472   57
 Side 2  free  transition at x/c =  0.0510   19

  48   rms: 0.2800E-01   max: 0.8958E-01   T at   20  2
       a =  0.000      CL =  0.6602
      Cm = -0.1270     CD =  0.01625   =>   CDf =  0.00615    CDp =  0.01010

 Side 1  free  transition at x/c =  0.6472   57
 Side 2  free  transition at x/c =  0.0510   19

  49   rms: 0.2800E-01   max: 0.8959E-01   T at   20  2
       a =  0.000      CL =  0.6602
      Cm = -0.1270     CD =  0.01625   =>   CDf =  0.00615    CDp =  0.01010

 Side 1  free  transition at x/c =  0.6472   57
[...]
      Cm = -0.0331     CD =  0.00000   =>   CDf =  0.00454    CDp = -0.00454

 MRCHDU: Convergence failed at  22  side 2    Res =  0.1942E-02
 MRCHDU: Convergence failed at  23  side 2    Res =  0.2775E-03
 MRCHDU: Convergence failed at  24  side 2    Res =  0.8371E-04
 MRCHDU: Convergence failed at  25  side 2    Res =  0.2882E-04
 MRCHDU: Convergence failed at  26  side 2    Res =  0.1833E-04
 MRCHDU: Convergence failed at  27  side 2    Res =  0.8707E-05
 MRCHDU: Convergence failed at  28  side 2    Res =  0.2158E-04
 MRCHDU: Convergence failed at  33  side 2    Res =  0.1465E-04
 MRCHDU: Convergence failed at  38  side 2    Res =  0.1007E-04
 MRCHDU: Convergence failed at  47  side 2    Res =  0.1411E-04
 MRCHDU: Convergence failed at  81  side 2    Res =  0.8107E-03
 MRCHDU: Convergence failed at  84  side 2    Res =  0.5622E-05
 MRCHDU: Convergence failed at  85  side 2    Res =  0.4937E-04
 MRCHDU: Convergence failed at  86  side 2    Res =  0.5265E-04
 MRCHDU: Convergence failed at  87  side 2    Res =  0.7268E-04
 MRCHDU: Convergence failed at  88  side 2    Res =  0.1015E-03
 MRCHDU: Convergence failed at  89  side 2    Res =  0.5642E-04
 MRCHDU: Convergence failed at  90  side 2    Res =  0.9392E-04
 MRCHDU: Convergence failed at  91  side 2    Res =  0.1461E-03
 MRCHDU: Convergence failed at  92  side 2    Res =  0.2512E-03
 MRCHDU: Convergence failed at  93  side 2    Res =  0.1075E-02
 MRCHDU: Convergence failed at  94  side 2    Res =  0.3781E-03
 MRCHDU: Convergence failed at  95  side 2    Res =  0.1998E-03
 MRCHDU: Convergence failed at  96  side 2    Res =  0.3397E-03
 MRCHDU: Convergence failed at  97  side 2    Res =  0.9656E-04
 MRCHDU: Convergence failed at  99  side 2    Res =  0.7482E-05
 MRCHDU: Convergence failed at 100  side 2    Res =  0.9693E-04
 Side 1  free  transition at x/c =  0.4273   45
 Side 2  free  transition at x/c =  0.0509   17

  75   rms: 0.7336E+06   max: 0.3660E+07   T at   48  2   RLX: 0.000
       a = 10.750      CL =  0.5422
      Cm = -0.0332     CD =  0.00000   =>   CDf =  0.00454    CDp = -0.00454

 MRCHDU: Convergence failed at  22  side 2    Res =  0.3880E-02
 MRCHDU: Convergence failed at  23  side 2    Res =  0.2915E-03
 MRCHDU: Convergence failed at  24  side 2    Res =  0.9114E-04
 MRCHDU: Convergence failed at  25  side 2    Res =  0.3223E-04
 MRCHDU: Convergence failed at  26  side 2    Res =  0.2006E-04
 MRCHDU: Convergence failed at  27  side 2    Res =  0.9943E-05
 MRCHDU: Convergence failed at  28  side 2    Res =  0.2320E-04
 MRCHDU: Convergence failed at  33  side 2    Res =  0.1704E-04
 MRCHDU: Convergence failed at  38  side 2    Res =  0.1098E-04
 MRCHDU: Convergence failed at  47  side 2    Res =  0.1511E-04
 MRCHDU: Convergence failed at  62  side 2    Res =  0.5114E-05
 MRCHDU: Convergence failed at  81  side 2    Res =  0.8022E-03
 MRCHDU: Convergence failed at  84  side 2    Res =  0.5620E-05
 MRCHDU: Convergence failed at  85  side 2    Res =  0.4937E-04
 MRCHDU: Convergence failed at  86  side 2    Res =  0.5264E-04
 MRCHDU: Convergence failed at  87  side 2    Res =  0.7267E-04
 MRCHDU: Convergence failed at  88  side 2    Res =  0.1015E-03
 MRCHDU: Convergence failed at  89  side 2    Res =  0.5641E-04
 MRCHDU: Convergence failed at  90  side 2    Res =  0.9390E-04
 MRCHDU: Convergence failed at  91  side 2    Res =  0.1460E-03
 MRCHDU: Convergence failed at  92  side 2    Res =  0.2509E-03
 MRCHDU: Convergence failed at  93  side 2    Res =  0.1067E-02
 MRCHDU: Convergence failed at  94  side 2    Res =  0.3704E-03
 MRCHDU: Convergence failed at  95  side 2    Res =  0.1950E-03
 MRCHDU: Convergence failed at  96  side 2    Res =  0.3291E-03
 MRCHDU: Convergence failed at  97  side 2    Res =  0.9574E-04
 MRCHDU: Convergence failed at  99  side 2    Res =  0.1462E-04
 MRCHDU: Convergence failed at 100  side 2    Res =  0.9937E-04
 Side 1  free  transition at x/c =  0.4272   45
 Side 2  free  transition at x/c =  0.0509   17

  76   rms: 0.1315E+06   max: -.3440E+07   T at   78  2   RLX: 0.000
       a = 10.750      CL =  0.5422
      Cm = -0.0332     CD =  0.00000   =>   CDf =  0.00454    CDp = -0.00454

 MRCHDU: Convergence failed at  22  side 2    Res =  0.4040E-02
 MRCHDU: Convergence failed at  23  side 2    Res =  0.2889E-03
 MRCHDU: Convergence failed at  24  side 2    Res =  0.8986E-04
 MRCHDU: Convergence failed at  25  side 2    Res =  0.3164E-04
 MRCHDU: Convergence failed at  26  side 2    Res =  0.1976E-04
 MRCHDU: Convergence failed at  27  side 2    Res =  0.9722E-05
 MRCHDU: Convergence failed at  28  side 2    Res =  0.2291E-04
 MRCHDU: Convergence failed at  33  side 2    Res =  0.1662E-04
 MRCHDU: Convergence failed at  38  side 2    Res =  0.1081E-04
 MRCHDU: Convergence failed at  47  side 2    Res =  0.1494E-04
 MRCHDU: Convergence failed at  81  side 2    Res =  0.7979E-03
 MRCHDU: Convergence failed at  84  side 2    Res =  0.5732E-05
 MRCHDU: Convergence failed at  85  side 2    Res =  0.4941E-04
 MRCHDU: Convergence failed at  86  side 2    Res =  0.5269E-04
 MRCHDU: Convergence failed at  87  side 2    Res =  0.7272E-04
 MRCHDU: Convergence failed at  88  side 2    Res =  0.1016E-03
 MRCHDU: Convergence failed at  89  side 2    Res =  0.5647E-04
 MRCHDU: Convergence failed at  90  side 2    Res =  0.9397E-04
 MRCHDU: Convergence failed at  91  side 2    Res =  0.1461E-03
 MRCHDU: Convergence failed at  92  side 2    Res =  0.2510E-03
 MRCHDU: Convergence failed at  93  side 2    Res =  0.1070E-02
 MRCHDU: Convergence failed at  94  side 2    Res =  0.3738E-03
 MRCHDU: Convergence failed at  95  side 2    Res =  0.1972E-03
 MRCHDU: Convergence failed at  96  side 2    Res =  0.3330E-03
 MRCHDU: Convergence failed at  97  side 2    Res =  0.9703E-04
 MRCHDU: Convergence failed at  99  side 2    Res =  0.1508E-04
 MRCHDU: Convergence failed at 100  side 2    Res =  0.1002E-03
 Side 1  free  transition at x/c =  0.4272   45
 Side 2  free  transition at x/c =  0.0509   17

  77   rms: 0.8029E+07   max: -.4060E+08   T at   48  2   RLX: 0.000
       a = 10.750      CL =  0.5421
      Cm = -0.0332     CD =  0.00000   =>   CDf =  0.00454    CDp = -0.00454

 MRCHDU: Convergence failed at  22  side 2    Res =  0.4368E-02
 MRCHDU: Convergence failed at  23  side 2    Res =  0.2849E-03
 MRCHDU: Convergence failed at  24  side 2    Res =  0.8784E-04
 MRCHDU: Convergence failed at  25  side 2    Res =  0.3070E-04
 MRCHDU: Convergence failed at  26  side 2    Res =  0.1929E-04
 MRCHDU: Convergence failed at  27  side 2    Res =  0.9374E-05
 MRCHDU: Convergence failed at  28  side 2    Res =  0.2245E-04
 MRCHDU: Convergence failed at  33  side 2    Res =  0.1597E-04
 MRCHDU: Convergence failed at  38  side 2    Res =  0.1054E-04
 MRCHDU: Convergence failed at  47  side 2    Res =  0.1467E-04
 MRCHDU: Convergence failed at  81  side 2    Res =  0.7992E-03
 MRCHDU: Convergence failed at  84  side 2    Res =  0.5733E-05
 MRCHDU: Convergence failed at  85  side 2    Res =  0.4941E-04
 MRCHDU: Convergence failed at  86  side 2    Res =  0.5269E-04
 MRCHDU: Convergence failed at  87  side 2    Res =  0.7272E-04
 MRCHDU: Convergence failed at  88  side 2    Res =  0.1016E-03
 MRCHDU: Convergence failed at  89  side 2    Res =  0.5647E-04
 MRCHDU: Convergence failed at  90  side 2    Res =  0.9397E-04
 MRCHDU: Convergence failed at  91  side 2    Res =  0.1461E-03
 MRCHDU: Convergence failed at  92  side 2    Res =  0.2511E-03
 MRCHDU: Convergence failed at  93  side 2    Res =  0.1072E-02
 MRCHDU: Convergence failed at  94  side 2    Res =  0.3751E-03
 MRCHDU: Convergence failed at  95  side 2    Res =  0.1979E-03
 MRCHDU: Convergence failed at  96  side 2    Res =  0.3346E-03
 MRCHDU: Convergence failed at  97  side 2    Res =  0.9698E-04
 MRCHDU: Convergence failed at  99  side 2    Res =  0.1338E-04
 MRCHDU: Convergence failed at 100  side 2    Res =  0.9936E-04
 Side 1  free  transition at x/c =  0.4272   45
 Side 2  free  transition at x/c =  0.0509   17

  78   rms: 0.1037E+07   max: 0.5253E+07   T at   48  2   RLX: 0.000
       a = 10.750      CL =  0.5425
      Cm = -0.0332     CD =  0.00000   =>   CDf =  0.00454    CDp = -0.00454

 MRCHDU: Convergence failed at  22  side 2    Res =  0.8858E-03
 MRCHDU: Convergence failed at  23  side 2    Res =  0.3217E-03
 MRCHDU: Convergence failed at  24  side 2    Res =  0.1067E-03
 MRCHDU: Convergence failed at  25  side 2    Res =  0.3952E-04
 MRCHDU: Convergence failed at  26  side 2    Res =  0.2367E-04
 MRCHDU: Convergence failed at  27  side 2    Res =  0.1260E-04
 MRCHDU: Convergence failed at  28  side 2    Res =  0.2649E-04
 MRCHDU: Convergence failed at  31  side 2    Res =  0.8144E-05
 MRCHDU: Convergence failed at  33  side 2    Res =  0.2236E-04
 MRCHDU: Convergence failed at  36  side 2    Res =  0.5519E-05
 MRCHDU: Convergence failed at  38  side 2    Res =  0.1294E-04
 MRCHDU: Convergence failed at  40  side 2    Res =  0.5551E-05
 MRCHDU: Convergence failed at  42  side 2    Res =  0.5222E-05
 MRCHDU: Convergence failed at  47  side 2    Res =  0.1712E-04
 MRCHDU: Convergence failed at  56  side 2    Res =  0.5821E-05
 MRCHDU: Convergence failed at  62  side 2    Res =  0.6144E-05
 MRCHDU: Convergence failed at  81  side 2    Res =  0.7888E-03
 MRCHDU: Convergence failed at  84  side 2    Res =  0.5690E-05
 MRCHDU: Convergence failed at  85  side 2    Res =  0.4939E-04
 MRCHDU: Convergence failed at  86  side 2    Res =  0.5267E-04
 MRCHDU: Convergence failed at  87  side 2    Res =  0.7269E-04
 MRCHDU: Convergence failed at  88  side 2    Res =  0.1015E-03
 MRCHDU: Convergence failed at  89  side 2    Res =  0.5644E-04
 MRCHDU: Convergence failed at  90  side 2    Res =  0.9392E-04
 MRCHDU: Convergence failed at  91  side 2    Res =  0.1460E-03
 MRCHDU: Convergence failed at  92  side 2    Res =  0.2506E-03
 MRCHDU: Convergence failed at  93  side 2    Res =  0.1058E-02
 MRCHDU: Convergence failed at  94  side 2    Res =  0.3634E-03
 MRCHDU: Convergence failed at  95  side 2    Res =  0.1916E-03
 MRCHDU: Convergence failed at  96  side 2    Res =  0.3206E-03
 MRCHDU: Convergence failed at  97  side 2    Res =  0.9762E-04
 MRCHDU: Convergence failed at  99  side 2    Res =  0.2864E-04
 MRCHDU: Convergence failed at 100  side 2    Res =  0.1066E-03
 Side 1  free  transition at x/c =  0.4272   45
 Side 2  free  transition at x/c =  0.0509   17

  79   rms: 0.4981E+06   max: 0.2587E+07   T at   48  2   RLX: 0.000
       a = 10.750      CL =  0.5429
      Cm = -0.0332     CD =  0.00000   =>   CDf =  0.00454    CDp = -0.00454

 MRCHDU: Convergence failed at  22  side 2    Res =  0.5463E-02
 MRCHDU: Convergence failed at  23  side 2    Res =  0.3433E-03
 MRCHDU: Convergence failed at  24  side 2    Res =  0.1193E-03
 MRCHDU: Convergence failed at  25  side 2    Res =  0.4565E-04
 MRCHDU: Convergence failed at  26  side 2    Res =  0.2678E-04
 MRCHDU: Convergence failed at  27  side 2    Res =  0.1487E-04
 MRCHDU: Convergence failed at  28  side 2    Res =  0.2938E-04
 MRCHDU: Convergence failed at  31  side 2    Res =  0.1297E-04
 MRCHDU: Convergence failed at  33  side 2    Res =  0.2492E-04
 MRCHDU: Convergence failed at  36  side 2    Res =  0.8324E-05
 MRCHDU: Convergence failed at  38  side 2    Res =  0.1495E-04
 MRCHDU: Convergence failed at  40  side 2    Res =  0.6972E-05
 MRCHDU: Convergence failed at  42  side 2    Res =  0.6666E-05
 MRCHDU: Convergence failed at  47  side 2    Res =  0.1871E-04
 MRCHDU: Convergence failed at  56  side 2    Res =  0.6750E-05
 MRCHDU: Convergence failed at  62  side 2    Res =  0.7133E-05
 MRCHDU: Convergence failed at  81  side 2    Res =  0.7770E-03
 MRCHDU: Convergence failed at  84  side 2    Res =  0.5700E-05
 MRCHDU: Convergence failed at  85  side 2    Res =  0.4939E-04
 MRCHDU: Convergence failed at  86  side 2    Res =  0.5267E-04
 MRCHDU: Convergence failed at  87  side 2    Res =  0.7269E-04
 MRCHDU: Convergence failed at  88  side 2    Res =  0.1015E-03
 MRCHDU: Convergence failed at  89  side 2    Res =  0.5643E-04
 MRCHDU: Convergence failed at  90  side 2    Res =  0.9389E-04
 MRCHDU: Convergence failed at  91  side 2    Res =  0.1459E-03
 MRCHDU: Convergence failed at  92  side 2    Res =  0.2503E-03
 MRCHDU: Convergence failed at  93  side 2    Res =  0.1047E-02
 MRCHDU: Convergence failed at  94  side 2    Res =  0.3532E-03
 MRCHDU: Convergence failed at  95  side 2    Res =  0.1852E-03
 MRCHDU: Convergence failed at  96  side 2    Res =  0.3067E-03
 MRCHDU: Convergence failed at  97  side 2    Res =  0.9560E-04
 MRCHDU: Convergence failed at  99  side 2    Res =  0.3616E-04
 MRCHDU: Convergence failed at 100  side 2    Res =  0.1083E-03
 Side 1  free  transition at x/c =  0.4271   45
 Side 2  free  transition at x/c =  0.0508   17

  80   rms: 0.2946E+06   max: -.1528E+07   T at   48  2   RLX: 0.000
       a = 10.750      CL =  0.5425
      Cm = -0.0331     CD =  0.00000   =>   CDf =  0.00454    CDp = -0.00454

 MRCHDU: Convergence failed at  22  side 2    Res =  0.1765E-01
 MRCHDU: Convergence failed at  23  side 2    Res =  0.2704E-03
 MRCHDU: Convergence failed at  24  side 2    Res =  0.8312E-04
 MRCHDU: Convergence failed at  25  side 2    Res =  0.2799E-04
 MRCHDU: Convergence failed at  26  side 2    Res =  0.1791E-04
 MRCHDU: Convergence failed at  27  side 2    Res =  0.7998E-05
 MRCHDU: Convergence failed at  28  side 2    Res =  0.2007E-04
 MRCHDU: Convergence failed at  33  side 2    Res =  0.1298E-04
 MRCHDU: Convergence failed at  38  side 2    Res =  0.8758E-05
 MRCHDU: Convergence failed at  47  side 2    Res =  0.1415E-04
 MRCHDU: Convergence failed at  81  side 2    Res =  0.7827E-03
 MRCHDU: Convergence failed at  84  side 2    Res =  0.5792E-05
 MRCHDU: Convergence failed at  85  side 2    Res =  0.4943E-04
 MRCHDU: Convergence failed at  86  side 2    Res =  0.5271E-04
 MRCHDU: Convergence failed at  87  side 2    Res =  0.7273E-04
 MRCHDU: Convergence failed at  88  side 2    Res =  0.1016E-03
 MRCHDU: Convergence failed at  89  side 2    Res =  0.5648E-04
 MRCHDU: Convergence failed at  90  side 2    Res =  0.9396E-04
 MRCHDU: Convergence failed at  91  side 2    Res =  0.1461E-03
 MRCHDU: Convergence failed at  92  side 2    Res =  0.2508E-03
 MRCHDU: Convergence failed at  93  side 2    Res =  0.1062E-02
 MRCHDU: Convergence failed at  94  side 2    Res =  0.3654E-03
 MRCHDU: Convergence failed at  95  side 2    Res =  0.1911E-03
 MRCHDU: Convergence failed at  96  side 2    Res =  0.3197E-03
 MRCHDU: Convergence failed at  97  side 2    Res =  0.9346E-04
 MRCHDU: Convergence failed at  99  side 2    Res =  0.1526E-04
 MRCHDU: Convergence failed at 100  side 2    Res =  0.9602E-04
 Side 1  free  transition at x/c =  0.4271   45
 Side 2  free  transition at x/c =  0.0508   17

  81   rms: 0.1134E+06   max: 0.6247E+06   T at   31  2   RLX: 0.000
       a = 10.750      CL =  0.5441
      Cm = -0.0333     CD =  0.00000   =>   CDf =  0.00454    CDp = -0.00454

 MRCHDU: Convergence failed at  22  side 2    Res =  0.2380E+00
 Side 1  free  transition at x/c =  0.4268   45
 Side 2  free  transition at x/c =  0.0508   17

  82   rms: 0.1842E+06   max: 0.1699E+07   T at   76  2   RLX: 0.000
       a = 10.750      CL =  0.5431
      Cm = -0.0327     CD =  0.00000   =>   CDf =  0.00452    CDp = -0.00452

 Side 1  free  transition at x/c =  0.4266   45
 Side 2  free  transition at x/c =  0.0508   17

  83   rms: 0.5677E+06   max: -.1323E+08   T at   76  2   RLX: 0.000
       a = 10.750      CL =  0.5435
      Cm = -0.0328     CD =  0.00000   =>   CDf =  0.00452    CDp = -0.00452

 Side 1  free  transition at x/c =  0.4266   45
 Side 2  free  transition at x/c =  0.0508   17

  84   rms: 0.6709E+05   max: 0.5242E+06   T at   29  2   RLX: 0.000
       a = 10.750      CL =  0.5451
      Cm = -0.0328     CD =  0.00000   =>   CDf =  0.00452    CDp = -0.00452

 Side 1  free  transition at x/c =  0.4262   45
 Side 2  free  transition at x/c =  0.0508   17

  85   rms: 0.2896E+06   max: 0.4542E+07   T at   56  2   RLX: 0.000
       a = 10.750      CL =  0.5455
      Cm = -0.0329     CD =  0.00000   =>   CDf =  0.00452    CDp = -0.00452

 Side 1  free  transition at x/c =  0.4261   45
 Side 2  free  transition at x/c =  0.0508   17

  86   rms: 0.4560E+06   max: -.1143E+08   T at   76  2   RLX: 0.000
       a = 10.750      CL =  0.5458
      Cm = -0.0329     CD =  0.00000   =>   CDf =  0.00452    CDp = -0.00452

 Side 1  free  transition at x/c =  0.4261   45
 Side 2  free  transition at x/c =  0.0508   17

  87   rms: 0.1149E+06   max: -.1109E+07   T at   56  2   RLX: 0.000
       a = 10.750      CL =  0.5463
      Cm = -0.0329     CD =  0.00000   =>   CDf =  0.00452    CDp = -0.00452

 Side 1  free  transition at x/c =  0.4259   45
 Side 2  free  transition at x/c =  0.0508   17

  88   rms: 0.3707E+06   max: 0.8571E+07   T at   29  2   RLX: 0.000
       a = 10.750      CL =  0.5466
      Cm = -0.0329     CD =  0.00000   =>   CDf =  0.00453    CDp = -0.00453

 Side 1  free  transition at x/c =  0.4259   45
 Side 2  free  transition at x/c =  0.0508   17

  89   rms: 0.1905E+06   max: -.1883E+07   T at   29  2   RLX: 0.000
       a = 10.750      CL =  0.5463
      Cm = -0.0329     CD =  0.00000   =>   CDf =  0.00453    CDp = -0.00453

 Side 1  free  transition at x/c =  0.4259   45
 Side 2  free  transition at x/c =  0.0508   17

  90   rms: 0.5176E+07   max: -.1092E+09   T at   29  2   RLX: 0.000
       a = 10.750      CL =  0.5463
      Cm = -0.0329     CD =  0.00000   =>   CDf =  0.00453    CDp = -0.00453

 Side 1  free  transition at x/c =  0.4259   45
 Side 2  free  transition at x/c =  0.0508   17

  91   rms: 0.4948E+06   max: -.7646E+07   T at   29  2   RLX: 0.000
       a = 10.750      CL =  0.5461
      Cm = -0.0329     CD =  0.00000   =>   CDf =  0.00453    CDp = -0.00453

 Side 1  free  transition at x/c =  0.4260   45
 Side 2  free  transition at x/c =  0.0508   17

  92   rms: 0.9053E+05   max: -.9325E+06   T at   78  2   RLX: 0.000
       a = 10.750      CL =  0.5455
      Cm = -0.0329     CD =  0.00000   =>   CDf =  0.00453    CDp = -0.00453

 Side 1  free  transition at x/c =  0.4261   45
 Side 2  free  transition at x/c =  0.0508   17

  93   rms: 0.2185E+06   max: 0.2143E+07   T at   29  2   RLX: 0.000
       a = 10.750      CL =  0.5458
      Cm = -0.0329     CD =  0.00000   =>   CDf =  0.00452    CDp = -0.00452

 Side 1  free  transition at x/c =  0.4261   45
 Side 2  free  transition at x/c =  0.0508   17

  94   rms: 0.3012E+06   max: -.3306E+07   T at   29  2   RLX: 0.000
       a = 10.750      CL =  0.5456
      Cm = -0.0329     CD =  0.00000   =>   CDf =  0.00452    CDp = -0.00452

 Side 1  free  transition at x/c =  0.4261   45
 Side 2  free  transition at x/c =  0.0508   17

  95   rms: 0.1256E+07   max: 0.1067E+08   T at   42  2   RLX: 0.000
       a = 10.750      CL =  0.5456
      Cm = -0.0329     CD =  0.00000   =>   CDf =  0.00452    CDp = -0.00452

 Side 1  free  transition at x/c =  0.4261   45
 Side 2  free  transition at x/c =  0.0508   17

  96   rms: 0.8449E+06   max: 0.5906E+07   T at   26  2   RLX: 0.000
       a = 10.750      CL =  0.5457
      Cm = -0.0329     CD =  0.00000   =>   CDf =  0.00452    CDp = -0.00452

 Side 1  free  transition at x/c =  0.4261   45
 Side 2  free  transition at x/c =  0.0508   17

  97   rms: 0.2821E+06   max: -.2911E+07   T at   29  2   RLX: 0.000
       a = 10.750      CL =  0.5455
      Cm = -0.0329     CD =  0.00000   =>   CDf =  0.00452    CDp = -0.00452

 Side 1  free  transition at x/c =  0.4261   45
 Side 2  free  transition at x/c =  0.0508   17

  98   rms: 0.5689E+06   max: 0.6487E+07   T at   40  2   RLX: 0.000
       a = 10.750      CL =  0.5453
      Cm = -0.0329     CD =  0.00000   =>   CDf =  0.00452    CDp = -0.00452

 Side 1  free  transition at x/c =  0.4262   45
 Side 2  free  transition at x/c =  0.0508   17

  99   rms: 0.8635E+05   max: -.8254E+06   T at   72  2   RLX: 0.000

[TIMEOUT]
