  
       XFOIL         Version 6.99
  
 Calculated polar for: GOE 802 AIRFOIL                                 
  
 1 1 Reynolds number fixed          Mach number fixed         
  
 xtrf =   1.000 (top)        1.000 (bottom)  
 Mach =   0.000     Re =     0.600 e 6     Ncrit =   9.000
  
   alpha    CL        CD       CDp       CM     Top_Xtr  Bot_Xtr
  ------ -------- --------- --------- -------- -------- --------
  -4.000   0.1742   0.03489   0.03161  -0.1141   0.8046   0.0295
  -3.500   0.2318   0.03017   0.02660  -0.1175   0.7888   0.0314
  -3.000   0.2948   0.02368   0.01951  -0.1207   0.7725   0.0342
  -2.500   0.3492   0.02121   0.01679  -0.1216   0.7536   0.0357
  -1.500   0.4638   0.01624   0.01098  -0.1227   0.7094   0.0426
  -1.000   0.5207   0.01461   0.00890  -0.1228   0.6826   0.0487
  10.250   1.5181   0.00676   0.00033  -0.0842   0.1288   1.0000
  10.500   1.5259   0.00745   0.00100  -0.0819   0.1199   1.0000
  10.750   1.5338   0.00817   0.00172  -0.0797   0.1103   1.0000
  11.000   1.5401   0.00906   0.00261  -0.0775   0.0998   1.0000
  11.250   1.5429   0.01022   0.00373  -0.0750   0.0871   1.0000
  11.500   1.5424   0.01173   0.00519  -0.0723   0.0742   1.0000
  11.750   1.5410   0.01346   0.00689  -0.0697   0.0648   1.0000
  12.000   1.5414   0.01524   0.00869  -0.0675   0.0583   1.0000
  12.250   1.5388   0.01743   0.01090  -0.0652   0.0519   1.0000
  12.500   1.5362   0.01981   0.01330  -0.0631   0.0451   1.0000
  12.750   1.5285   0.02292   0.01640  -0.0609   0.0326   1.0000
  13.000   1.5093   0.02754   0.02099  -0.0584   0.0208   1.0000
  13.250   1.4999   0.03146   0.02499  -0.0567   0.0184   1.0000
  13.500   1.4921   0.03535   0.02899  -0.0552   0.0175   1.0000
  13.750   1.4832   0.03962   0.03338  -0.0540   0.0168   1.0000
  14.000   1.4732   0.04416   0.03804  -0.0530   0.0161   1.0000
