
 ===================================================
  XFOIL Version 6.99
  Copyright (C) 2000   Mark Drela, Harold Youngren

  This software comes with ABSOLUTELY NO WARRANTY,
    subject to the GNU General Public License.

  Caveat computor
 ===================================================

 File  xfoil.def  not found

   QUIT    Exit program

  .OPER    Direct operating point(s)
  .MDES    Complex mapping design routine
  .QDES    Surface speed design routine
  .GDES    Geometry design routine

   SAVE f  Write airfoil to labeled coordinate file
   PSAV f  Write airfoil to plain coordinate file
   ISAV f  Write airfoil to ISES coordinate file
   MSAV f  Write airfoil to MSES coordinate file
   REVE    Reverse written-airfoil node ordering

   LOAD f  Read buffer airfoil from coordinate file
   NACA i  Set NACA 4,5-digit airfoil and buffer airfoil
   INTE    Set buffer airfoil by interpolating two airfoils
   NORM    Buffer airfoil normalization toggle
   XYCM rr Change CM reference location, currently  0.25000 0.00000

   BEND    Display structural properties of current airfoil

   PCOP    Set current-airfoil panel nodes directly from buffer airfoil points
   PANE    Set current-airfoil panel nodes ( 160 ) based on curvature
  .PPAR    Show/change paneling

  .PLOP    Plotting options

   WDEF f  Write  current-settings file
   RDEF f  Reread current-settings file
   NAME s  Specify new airfoil name
   NINC    Increment name version number

   Z       Zoom    | (available in all menus)
   U       Unzoom  | 

 XFOIL   c>  
 Labeled airfoil file.  Name:  GOE 804 (EA 8) AIRFOIL                          

 Number of input coordinate points:  31
 Counterclockwise ordering
 Max thickness =     0.060008  at x =   0.300
 Max camber    =     0.061756  at x =   0.500

  LE  x,y  =  -0.00034   0.00149  |   Chord =   1.00034
  TE  x,y  =   1.00000   0.00000  |

 Current airfoil nodes set from buffer airfoil nodes (  31 )

 WARNING: Poor input coordinate distribution
          Excessive panel angle   55.9  at i =  16
          Repaneling with PANE and/or PPAR suggested
           (doing GDES,CADD before repaneling _may_
            improve excessively coarse LE spacing

 XFOIL   c>  
 XFOIL   c>  
 Sharp trailing edge

 Paneling parameters used...
   Number of panel nodes       160
   Panel bunching parameter    1.000
   TE/LE panel density ratio   0.150
   Refined-area/LE panel density ratio    0.200
   Top    side refined area x/c limits  1.000 1.000
   Bottom side refined area x/c limits  1.000 1.000

 XFOIL   c>  
.OPERi   c>  
 Xtr/c     =  1.0000    top    side
 Xtr/c     =  1.0000    bottom side
 Ncrit     =    9.00   ( 0.070 % turb. level )
 Vacc      =  0.0100

 Klag  =  5.6000     Uxwt  =    1.00
 A     =  6.7000     B     =  0.7500       KCt = 0.01485
 CtiniK=  1.8000     CtiniX=  3.3000

..VPAR   c>  
..VPAR   c>  
.OPERi   c>  
 M  =    0.0000
 Re =    300000

.OPERv   c>  
.OPERv   c>  
.OPERv   c>  
 Polar  1 newly created for accumulation
 Airfoil archived with polar: GOE 804 (EA 8) AIRFOIL                          

Enter  polar save filename  OR  <return> for no file   s>  
 New polar save file available

Enter  polar dump filename  OR  <return> for no file   s>  
 Polar dump file will NOT be written

 Polar accumulation enabled

.OPERva   c>   Calculating unit vorticity distributions ...
 Calculating wake trajectory ...
 Calculating source influence matrix ...

 Solving BL system ...

 Initializing BL ...
    side            1  ...
 MRCHUE: Inverse mode at  63     Hk =   3.800
 MRCHUE: Inverse mode at  64     Hk =   4.259
 MRCHUE: Inverse mode at  65     Hk =   4.708
 MRCHUE: Inverse mode at  66     Hk =   5.150
 MRCHUE: Inverse mode at  67     Hk =   5.589
 MRCHUE: Inverse mode at  68     Hk =   6.029
 MRCHUE: Inverse mode at  69     Hk =   6.472
 MRCHUE: Inverse mode at  70     Hk =   6.907
 MRCHUE: Inverse mode at  71     Hk =   7.340
 MRCHUE: Inverse mode at  72     Hk =   7.751
 MRCHUE: Inverse mode at  73     Hk =   8.115
 MRCHUE: Inverse mode at  74     Hk =   8.430
 MRCHUE: Inverse mode at  75     Hk =   8.703
 MRCHUE: Inverse mode at  76     Hk =   8.943
 MRCHUE: Inverse mode at  77     Hk =   9.088
    side            2  ...
 MRCHUE: Inverse mode at  12     Hk =   3.800
 MRCHUE: Inverse mode at  13     Hk =   4.487
 MRCHUE: Inverse mode at  14     Hk =   5.179
 MRCHUE: Inverse mode at  15     Hk =   5.914
 MRCHUE: Inverse mode at  16     Hk =   6.747
 MRCHUE: Inverse mode at  17     Hk =   7.793
 MRCHUE: Inverse mode at  18     Hk =   9.509
 MRCHUE: Inverse mode at  19     Hk =   7.357
 MRCHUE: Inverse mode at  20     Hk =   2.500
 MRCHUE: Inverse mode at  21     Hk =   2.500
 MRCHUE: Inverse mode at  22     Hk =   2.500
 MRCHUE: Inverse mode at  23     Hk =   2.500
 MRCHUE: Inverse mode at  24     Hk =   2.500
 MRCHUE: Inverse mode at  25     Hk =   2.500

 Side 1 forced transition at x/c =  1.0000   77
 Side 2  free  transition at x/c =  0.0360   19

   1   rms: 0.2039E+01   max: 0.1087E+02   T at   19  2   RLX: 0.113
       a = -4.000      CL =  0.4981
      Cm = -0.2569     CD =  0.01055   =>   CDf =  0.00583    CDp =  0.00471

 MRCHDU: Convergence failed at  19  side 2    Res =  0.5111E+01
 MRCHDU: Convergence failed at  20  side 2    Res =  0.6695E+01
 MRCHDU: Convergence failed at  21  side 2    Res =  0.1122E+03
 MRCHDU: Convergence failed at  22  side 2    Res =  0.2029E+02
 MRCHDU: Convergence failed at  23  side 2    Res =  0.2595E+02
 MRCHDU: Convergence failed at  24  side 2    Res =  0.1496E+02
 MRCHDU: Convergence failed at  25  side 2    Res =  0.2990E+02
 MRCHDU: Convergence failed at  26  side 2    Res =  0.3608E+02
 MRCHDU: Convergence failed at  27  side 2    Res =  0.1030E+04
 MRCHDU: Convergence failed at  28  side 2    Res =  0.3893E+02
 MRCHDU: Convergence failed at  29  side 2    Res =  0.3967E+02
 MRCHDU: Convergence failed at  30  side 2    Res =  0.4532E+02
 MRCHDU: Convergence failed at  31  side 2    Res =  0.4655E+02
 MRCHDU: Convergence failed at  32  side 2    Res =  0.2726E+02
 MRCHDU: Convergence failed at  33  side 2    Res =  0.7275E+02
 MRCHDU: Convergence failed at  34  side 2    Res =  0.1370E+03
 MRCHDU: Convergence failed at  35  side 2    Res =  0.3390E+03
 MRCHDU: Convergence failed at  36  side 2    Res =  0.4737E+03
 MRCHDU: Convergence failed at  37  side 2    Res =  0.1175E+03
 MRCHDU: Convergence failed at  38  side 2    Res =  0.9800E+02
 MRCHDU: Convergence failed at  39  side 2    Res =  0.8835E+02
 MRCHDU: Convergence failed at  40  side 2    Res =  0.6904E+02
 MRCHDU: Convergence failed at  41  side 2    Res =  0.6838E+02
 MRCHDU: Convergence failed at  42  side 2    Res =  0.4645E+02
 MRCHDU: Convergence failed at  43  side 2    Res =  0.4702E+02
 MRCHDU: Convergence failed at  44  side 2    Res =  0.4764E+02
 MRCHDU: Convergence failed at  45  side 2    Res =  0.4816E+02
 MRCHDU: Convergence failed at  46  side 2    Res =  0.4833E+02
 MRCHDU: Convergence failed at  47  side 2    Res =  0.4882E+02
 MRCHDU: Convergence failed at  48  side 2    Res =  0.4901E+02
 MRCHDU: Convergence failed at  49  side 2    Res =  0.4925E+02
 MRCHDU: Convergence failed at  50  side 2    Res =  0.3652E+02
 MRCHDU: Convergence failed at  51  side 2    Res =  0.3683E+02
 MRCHDU: Convergence failed at  52  side 2    Res =  0.3741E+02
 MRCHDU: Convergence failed at  53  side 2    Res =  0.3795E+02
 MRCHDU: Convergence failed at  54  side 2    Res =  0.3842E+02
 MRCHDU: Convergence failed at  55  side 2    Res =  0.3887E+02
 MRCHDU: Convergence failed at  56  side 2    Res =  0.3918E+02
 MRCHDU: Convergence failed at  57  side 2    Res =  0.3937E+02
 MRCHDU: Convergence failed at  58  side 2    Res =  0.3929E+02
 MRCHDU: Convergence failed at  59  side 2    Res =  0.3909E+02
 MRCHDU: Convergence failed at  60  side 2    Res =  0.3897E+02
 MRCHDU: Convergence failed at  61  side 2    Res =  0.3877E+02
 MRCHDU: Convergence failed at  62  side 2    Res =  0.3869E+02
 MRCHDU: Convergence failed at  63  side 2    Res =  0.3870E+02
 MRCHDU: Convergence failed at  64  side 2    Res =  0.3914E+02
 MRCHDU: Convergence failed at  65  side 2    Res =  0.3993E+02
 MRCHDU: Convergence failed at  66  side 2    Res =  0.4100E+02
 MRCHDU: Convergence failed at  67  side 2    Res =  0.4230E+02
 MRCHDU: Convergence failed at  68  side 2    Res =  0.4398E+02
 MRCHDU: Convergence failed at  69  side 2    Res =  0.4597E+02
 MRCHDU: Convergence failed at  70  side 2    Res =  0.5860E+02
 MRCHDU: Convergence failed at  71  side 2    Res =  0.8265E+02
 MRCHDU: Convergence failed at  72  side 2    Res =  0.1077E+04
 MRCHDU: Convergence failed at  73  side 2    Res =  0.4577E+03
 MRCHDU: Convergence failed at  74  side 2    Res =  0.3858E+03
 MRCHDU: Convergence failed at  75  side 2    Res =  0.5207E+03
 MRCHDU: Convergence failed at  76  side 2    Res =  0.7159E+03
 MRCHDU: Convergence failed at  77  side 2    Res =  0.1224E+04
 MRCHDU: Convergence failed at  78  side 2    Res =  0.2541E+04
 MRCHDU: Convergence failed at  79  side 2    Res =  0.4215E+04
 MRCHDU: Convergence failed at  80  side 2    Res =  0.2078E+04
 MRCHDU: Convergence failed at  81  side 2    Res =  0.7227E+03
 MRCHDU: Convergence failed at  82  side 2    Res =  0.3266E+03
 MRCHDU: Convergence failed at  83  side 2    Res =  0.2052E+04
 MRCHDU: Convergence failed at  84  side 2    Res =  0.3483E+03
 MRCHDU: Convergence failed at  85  side 2    Res =  0.7032E+03
 Side 1 forced transition at x/c =  1.0000   77
 Side 2  free  transition at x/c =  0.0280   18

   2   rms: 0.2497E+01   max: 0.1481E+02   D at   87  2   RLX: 0.101
       a = -4.000      CL = -1.1906
      Cm =  0.2468     CD =  0.00446   =>   CDf =  0.00300    CDp =  0.00145

 MRCHDU: Convergence failed at  88  side 2    Res =  0.1181E+01
 Side 1 forced transition at x/c =  1.0000   77
 Side 2  free  transition at x/c =  0.0276   18
 idif Ue xi dudx           1  0.19741301      2.82049179E-03   69.992409    
 Uenew xinew           2  7.56110176E-02  1.08027458E-03

   3   rms: 0.4813E+00   max: 0.2467E+01   D at   18  2   RLX: 0.530
       a = -4.000      CL = -0.3571
      Cm = -0.0022     CD =  0.05043   =>   CDf =  0.00340    CDp =  0.04703

 MRCHDU: Convergence failed at  93  side 2    Res =  0.8492E+01
 MRCHDU: Convergence failed at  94  side 2    Res =  0.1897E+01
 MRCHDU: Convergence failed at  95  side 2    Res =  0.1587E+01
 MRCHDU: Convergence failed at  96  side 2    Res =  0.3238E+01
 MRCHDU: Convergence failed at  97  side 2    Res =  0.1724E+02
 MRCHDU: Convergence failed at  98  side 2    Res =  0.5373E+01
 MRCHDU: Convergence failed at  99  side 2    Res =  0.2220E+01
 Side 1 forced transition at x/c =  1.0000   76
 Side 2  free  transition at x/c =  0.0456   21

   4   rms: 0.4961E+00   max: 0.8744E+01   T at   21  2   RLX: 0.172
       a = -4.000      CL = -0.3076
      Cm = -0.0238     CD =  0.08334   =>   CDf =  0.00313    CDp =  0.08021

 Side 1  free  transition at x/c =  0.9850   74
 Side 2  free  transition at x/c =  0.0368   20

   5   rms: 0.3718E+00   max: 0.3108E+01   T at   74  1   RLX: 0.297
       a = -4.000      CL = -0.2675
      Cm = -0.0312     CD =  0.07886   =>   CDf =  0.00305    CDp =  0.07582

 Side 1  free  transition at x/c =  0.9696   73
 Side 2  free  transition at x/c =  0.0345   20

   6   rms: 0.3047E+00   max: 0.2047E+01   T at   73  1   RLX: 0.721
       a = -4.000      CL = -0.0425
      Cm = -0.0864     CD =  0.06017   =>   CDf =  0.00298    CDp =  0.05719

 Side 1  free  transition at x/c =  0.9525   71
 Side 2  free  transition at x/c =  0.0332   20

   7   rms: 0.3930E+00   max: 0.4690E+01   T at   71  1   RLX: 0.199
       a = -4.000      CL = -0.0780
      Cm = -0.0851     CD =  0.07512   =>   CDf =  0.00291    CDp =  0.07221

 Side 1  free  transition at x/c =  0.9382   70
 Side 2  free  transition at x/c =  0.0296   20
 idif Ue xi dudx           1  0.17942314      2.67565250E-03   67.057716    
 Uenew xinew           2  4.39344905E-02  6.55174255E-04

   8   rms: 0.7563E+00   max: 0.6006E+01   T at   70  1   RLX: 0.162
       a = -4.000      CL = -0.1635
      Cm = -0.0693     CD =  0.08043   =>   CDf =  0.00283    CDp =  0.07759

 Side 1  free  transition at x/c =  0.9234   68
 Side 2  free  transition at x/c =  0.0280   20

   9   rms: 0.2237E+00   max: 0.1617E+01   T at   68  1   RLX: 0.594
       a = -4.000      CL = -0.2483
      Cm = -0.0467     CD =  0.07753   =>   CDf =  0.00270    CDp =  0.07483

 Side 1  free  transition at x/c =  0.9091   67
 Side 2  free  transition at x/c =  0.0274   20

  10   rms: 0.2742E+00   max: -.1723E+01   T at   67  1   RLX: 0.290
       a = -4.000      CL = -0.1192
      Cm = -0.0827     CD =  0.06458   =>   CDf =  0.00271    CDp =  0.06188

 Side 1  free  transition at x/c =  0.9178   68
 Side 2  free  transition at x/c =  0.0269   20

  11   rms: 0.2081E+00   max: 0.8798E+00   D at   22  2
       a = -4.000      CL =  0.0342
      Cm = -0.1173     CD =  0.05854   =>   CDf =  0.00312    CDp =  0.05542

 Side 1  free  transition at x/c =  0.9153   69
 Side 2  free  transition at x/c =  0.0281   19

  12   rms: 0.1847E+00   max: -.6323E+00   D at   20  2   RLX: 0.791
       a = -4.000      CL =  0.0615
      Cm = -0.1227     CD =  0.06185   =>   CDf =  0.00289    CDp =  0.05896

 MRCHDU: Convergence failed at  24  side 2    Res =  0.1207E+03
 MRCHDU: Convergence failed at  25  side 2    Res =  0.9164E+02
 MRCHDU: Convergence failed at  26  side 2    Res =  0.4523E+02
 MRCHDU: Convergence failed at  27  side 2    Res =  0.4310E+02
 MRCHDU: Convergence failed at  28  side 2    Res =  0.8179E+02
 MRCHDU: Convergence failed at  29  side 2    Res =  0.1096E+03
 MRCHDU: Convergence failed at  30  side 2    Res =  0.1256E+03
 MRCHDU: Convergence failed at  31  side 2    Res =  0.1135E+03
 MRCHDU: Convergence failed at  32  side 2    Res =  0.1837E+04
 MRCHDU: Convergence failed at  33  side 2    Res =  0.3157E+03
 MRCHDU: Convergence failed at  34  side 2    Res =  0.3852E+03
 MRCHDU: Convergence failed at  35  side 2    Res =  0.2427E+03
 MRCHDU: Convergence failed at  36  side 2    Res =  0.5008E+04
 MRCHDU: Convergence failed at  37  side 2    Res =  0.1045E+03
 MRCHDU: Convergence failed at  38  side 2    Res =  0.9459E+03
 MRCHDU: Convergence failed at  39  side 2    Res =  0.7384E+02
 MRCHDU: Convergence failed at  40  side 2    Res =  0.6968E+02
 MRCHDU: Convergence failed at  41  side 2    Res =  0.6256E+03
 MRCHDU: Convergence failed at  42  side 2    Res =  0.1205E+03
 MRCHDU: Convergence failed at  43  side 2    Res =  0.1508E+03
 MRCHDU: Convergence failed at  44  side 2    Res =  0.1767E+03
 MRCHDU: Convergence failed at  45  side 2    Res =  0.1180E+04
 MRCHDU: Convergence failed at  46  side 2    Res =  0.6297E+03
 MRCHDU: Convergence failed at  47  side 2    Res =  0.1899E+04
 MRCHDU: Convergence failed at  48  side 2    Res =  0.2696E+04
 MRCHDU: Convergence failed at  49  side 2    Res =  0.2012E+03
 MRCHDU: Convergence failed at  50  side 2    Res =  0.4889E+03
 MRCHDU: Convergence failed at  51  side 2    Res =  0.3561E+03
 MRCHDU: Convergence failed at  52  side 2    Res =  0.3019E+03
 MRCHDU: Convergence failed at  53  side 2    Res =  0.2263E+03
 MRCHDU: Convergence failed at  54  side 2    Res =  0.2139E+03
 MRCHDU: Convergence failed at  55  side 2    Res =  0.2116E+03
 MRCHDU: Convergence failed at  56  side 2    Res =  0.2143E+03
 MRCHDU: Convergence failed at  57  side 2    Res =  0.2123E+03
 MRCHDU: Convergence failed at  58  side 2    Res =  0.2094E+03
 MRCHDU: Convergence failed at  59  side 2    Res =  0.1792E+04
 MRCHDU: Convergence failed at  60  side 2    Res =  0.3849E+04
 MRCHDU: Convergence failed at  61  side 2    Res =  0.1088E+03
 MRCHDU: Convergence failed at  62  side 2    Res =  0.1265E+03
 MRCHDU: Convergence failed at  63  side 2    Res =  0.1220E+03
 MRCHDU: Convergence failed at  64  side 2    Res =  0.1224E+03
 MRCHDU: Convergence failed at  65  side 2    Res =  0.1213E+03
 MRCHDU: Convergence failed at  66  side 2    Res =  0.1235E+03
 MRCHDU: Convergence failed at  67  side 2    Res =  0.1257E+03
 MRCHDU: Convergence failed at  68  side 2    Res =  0.1292E+03
 MRCHDU: Convergence failed at  69  side 2    Res =  0.1622E+03
 MRCHDU: Convergence failed at  70  side 2    Res =  0.1747E+03
 MRCHDU: Convergence failed at  71  side 2    Res =  0.1738E+03
 MRCHDU: Convergence failed at  72  side 2    Res =  0.1721E+03
 MRCHDU: Convergence failed at  73  side 2    Res =  0.1711E+03
 MRCHDU: Convergence failed at  74  side 2    Res =  0.1701E+03
 MRCHDU: Convergence failed at  75  side 2    Res =  0.1700E+03
 MRCHDU: Convergence failed at  76  side 2    Res =  0.1612E+03
 MRCHDU: Convergence failed at  77  side 2    Res =  0.1664E+03
 MRCHDU: Convergence failed at  78  side 2    Res =  0.1751E+03
 MRCHDU: Convergence failed at  79  side 2    Res =  0.1873E+03
 MRCHDU: Convergence failed at  80  side 2    Res =  0.4578E+03
 MRCHDU: Convergence failed at  81  side 2    Res =  0.4768E+03
 MRCHDU: Convergence failed at  82  side 2    Res =  0.4766E+03
 MRCHDU: Convergence failed at  83  side 2    Res =  0.1616E+03
 MRCHDU: Convergence failed at  84  side 2    Res =  0.1839E+03
 MRCHDU: Convergence failed at  85  side 2    Res =  0.9218E+03
 MRCHDU: Convergence failed at  86  side 2    Res =  0.1307E+04
 Side 1  free  transition at x/c =  0.9165   69
 Side 2  free  transition at x/c =  0.0742   23

  13   rms: 0.1040E+01   max: 0.1001E+02   T at   23  2   RLX: 0.062
       a = -4.000      CL = -0.9118
      Cm =  0.1944     CD =  0.01328   =>   CDf =  0.00232    CDp =  0.01096

 Side 1  free  transition at x/c =  0.9200   69
 Side 2  free  transition at x/c =  0.0568   22

  14   rms: 0.1076E+01   max: 0.1456E+02   T at   22  2   RLX: 0.048
       a = -4.000      CL = -0.6758
      Cm =  0.1149     CD =  0.09723   =>   CDf =  0.00272    CDp =  0.09452

 Side 1  free  transition at x/c =  0.9312   70
 Side 2  free  transition at x/c =  0.0492   21

  15   rms: 0.6800E+01   max: -.9354E+02   T at   24  2   RLX: 0.005
       a = -4.000      CL = -0.6746
      Cm =  0.1171     CD =  0.11474   =>   CDf =  0.00279    CDp =  0.11195

 Side 1  free  transition at x/c =  0.9321   70
 Side 2  free  transition at x/c =  0.0482   21

  16   rms: 0.2350E+01   max: -.3781E+02   T at   22  2   RLX: 0.013
       a = -4.000      CL = -0.6879
      Cm =  0.1211     CD =  0.11654   =>   CDf =  0.00279    CDp =  0.11374

 Side 1  free  transition at x/c =  0.9341   70
 Side 2  free  transition at x/c =  0.0455   21

  17   rms: 0.1012E+01   max: 0.1544E+02   T at   21  2   RLX: 0.070
       a = -4.000      CL = -0.6613
      Cm =  0.1104     CD =  0.11163   =>   CDf =  0.00280    CDp =  0.10882

 Side 1  free  transition at x/c =  0.9459   71
 Side 2  free  transition at x/c =  0.0395   21

  18   rms: 0.2366E+01   max: 0.3898E+02   T at   22  2   RLX: 0.038
       a = -4.000      CL = -0.6304
      Cm =  0.0970     CD =  0.12667   =>   CDf =  0.00287    CDp =  0.12380

 Side 1  free  transition at x/c =  0.9501   71
 Side 2  free  transition at x/c =  0.0387   20

  19   rms: 0.9717E+00   max: -.8907E+01   T at   71  1   RLX: 0.056
       a = -4.000      CL = -0.7062
      Cm =  0.1159     CD =  0.13125   =>   CDf =  0.00289    CDp =  0.12836

 Side 1  free  transition at x/c =  0.9638   72
 Side 2  free  transition at x/c =  0.0380   20

  20   rms: 0.9533E+00   max: -.8100E+01   T at   22  2   RLX: 0.062
       a = -4.000      CL = -0.7022
      Cm =  0.1126     CD =  0.13692   =>   CDf =  0.00295    CDp =  0.13397

 Side 1  free  transition at x/c =  0.9727   73
 Side 2  free  transition at x/c =  0.0355   20

  21   rms: 0.7654E+00   max: 0.6693E+01   T at   20  2   RLX: 0.177
       a = -4.000      CL = -0.6730
      Cm =  0.1013     CD =  0.11663   =>   CDf =  0.00300    CDp =  0.11364

 Side 1  free  transition at x/c =  0.9832   74
 Side 2  free  transition at x/c =  0.0299   20
 idif Ue xi dudx           1  0.14102134      2.05945969E-03   68.474922    
 Uenew xinew           2  2.66925083E-03  3.89814377E-05

  22   rms: 0.7016E+00   max: 0.3400E+01   T at   22  2   RLX: 0.181
       a = -4.000      CL = -0.5852
      Cm =  0.0754     CD =  0.13752   =>   CDf =  0.00311    CDp =  0.13441

 Side 1  free  transition at x/c =  0.9906   74
 Side 2  free  transition at x/c =  0.0286   21

  23   rms: 0.7265E+00   max: 0.3747E+01   T at   25  2   RLX: 0.172
       a = -4.000      CL = -0.5251
      Cm =  0.0588     CD =  0.14632   =>   CDf =  0.00314    CDp =  0.14319

 Side 1  free  transition at x/c =  0.9935   74
 Side 2  free  transition at x/c =  0.0283   21

  24   rms: 0.1751E+01   max: 0.1985E+02   T at   25  2   RLX: 0.076
       a = -4.000      CL = -0.5265
      Cm =  0.0602     CD =  0.20847   =>   CDf =  0.00314    CDp =  0.20533

 Side 1  free  transition at x/c =  0.9952   76
 Side 2  free  transition at x/c =  0.0281   19

  25   rms: 0.5666E+00   max: 0.5950E+01   T at   87  2   RLX: 0.244
       a = -4.000      CL = -0.3022
      Cm = -0.0055     CD =  0.15709   =>   CDf =  0.00322    CDp =  0.15387

 Side 1  free  transition at x/c =  0.9944   75
 Side 2  free  transition at x/c =  0.0281   19

  26   rms: 0.5043E+00   max: 0.5058E+01   T at   87  2   RLX: 0.263
       a = -4.000      CL = -0.2235
      Cm = -0.0251     CD =  0.12618   =>   CDf =  0.00322    CDp =  0.12297

 Side 1  free  transition at x/c =  0.9912   75
 Side 2  free  transition at x/c =  0.0282   19

  27   rms: 0.5060E+00   max: 0.3873E+01   T at   87  2   RLX: 0.252
       a = -4.000      CL = -0.1261
      Cm = -0.0492     CD =  0.11319   =>   CDf =  0.00318    CDp =  0.11002

 Side 1  free  transition at x/c =  0.9851   74
 Side 2  free  transition at x/c =  0.0282   20

  28   rms: 0.5316E+00   max: 0.3452E+01   T at   87  2   RLX: 0.306
       a = -4.000      CL = -0.0965
      Cm = -0.0677     CD =  0.09959   =>   CDf =  0.00312    CDp =  0.09647

 Side 1  free  transition at x/c =  0.9758   73
 Side 2  free  transition at x/c =  0.0340   20

  29   rms: 0.5750E+00   max: 0.5397E+01   T at   73  1   RLX: 0.172
       a = -4.000      CL = -0.1948
      Cm = -0.0433     CD =  0.10558   =>   CDf =  0.00301    CDp =  0.10257

 Side 1  free  transition at x/c =  0.9613   72
 Side 2  free  transition at x/c =  0.0335   20

  30   rms: 0.3564E+00   max: 0.1845E+01   T at   87  2   RLX: 0.415
       a = -4.000      CL = -0.0821
      Cm = -0.0680     CD =  0.09411   =>   CDf =  0.00296    CDp =  0.09115

 Side 1  free  transition at x/c =  0.9521   71
 Side 2  free  transition at x/c =  0.0332   20

  31   rms: 0.2819E+00   max: -.9274E+00   T at  107  2   RLX: 0.539
       a = -4.000      CL = -0.0596
      Cm = -0.0800     CD =  0.04937   =>   CDf =  0.00293    CDp =  0.04644

 Side 1  free  transition at x/c =  0.9439   71
 Side 2  free  transition at x/c =  0.0300   20

  32   rms: 0.2382E+00   max: -.8909E+00   D at   84  2   RLX: 0.561
       a = -4.000      CL = -0.0549
      Cm = -0.0898     CD =  0.07849   =>   CDf =  0.00287    CDp =  0.07563

 Side 1  free  transition at x/c =  0.9422   71
 Side 2  free  transition at x/c =  0.0293   20
 idif Ue xi dudx           1  0.14225057      2.05790997E-03   69.123802    
 Uenew xinew           2  2.58742250E-03  3.74317169E-05

  33   rms: 0.2289E+00   max: -.9711E+00   D at  101  2   RLX: 0.515
       a = -4.000      CL = -0.0539
      Cm = -0.0998     CD =  0.06905   =>   CDf =  0.00285    CDp =  0.06619

 Side 1  free  transition at x/c =  0.9403   69
 Side 2  free  transition at x/c =  0.0289   21

  34   rms: 0.8438E+00   max: -.1278E+02   D at    2  2   RLX: 0.039
       a = -4.000      CL = -0.0453
      Cm = -0.1034     CD =  0.07515   =>   CDf =  0.00275    CDp =  0.07240

 Side 1  free  transition at x/c =  0.9415   70
 Side 2  free  transition at x/c =  0.0291   20

  35   rms: 0.3913E+00   max: -.4023E+01   D at    2  1   RLX: 0.124
       a = -4.000      CL = -0.0291
      Cm = -0.1064     CD =  0.07129   =>   CDf =  0.00280    CDp =  0.06849

 Side 1  free  transition at x/c =  0.9453   71
 Side 2  free  transition at x/c =  0.0295   20
 idif Ue xi dudx           1  0.14641748      2.12037563E-03   69.052612    
 Uenew xinew           2  6.89817546E-03  9.98973846E-05

  36   rms: 0.2101E+00   max: 0.1118E+01   T at   71  1   RLX: 0.610
       a = -4.000      CL = -0.0435
      Cm = -0.1103     CD =  0.06116   =>   CDf =  0.00285    CDp =  0.05830

 Side 1  free  transition at x/c =  0.9346   69
 Side 2  free  transition at x/c =  0.0290   21

  37   rms: 0.5625E+00   max: 0.5039E+01   D at    2  2   RLX: 0.198
       a = -4.000      CL = -0.0838
      Cm = -0.1034     CD =  0.06658   =>   CDf =  0.00285    CDp =  0.06374

 Side 1  free  transition at x/c =  0.9199   68
 Side 2  free  transition at x/c =  0.0281   20

  38   rms: 0.1271E+00   max: 0.1577E+01   T at   68  1   RLX: 0.788
       a = -4.000      CL = -0.1331
      Cm = -0.0845     CD =  0.06757   =>   CDf =  0.00280    CDp =  0.06477

 Side 1  free  transition at x/c =  0.8993   67
 Side 2  free  transition at x/c =  0.0279   20

  39   rms: 0.9999E-01   max: -.5330E+00   D at   67  1   RLX: 0.938
       a = -4.000      CL = -0.0016
      Cm = -0.1103     CD =  0.05824   =>   CDf =  0.00288    CDp =  0.05536

 Side 1  free  transition at x/c =  0.9085   68
 Side 2  free  transition at x/c =  0.0275   19

  40   rms: 0.2555E+00   max: -.1944E+01   T at   68  1   RLX: 0.257
       a = -4.000      CL =  0.0653
      Cm = -0.1236     CD =  0.04389   =>   CDf =  0.00365    CDp =  0.04024

 Side 1  free  transition at x/c =  0.9179   69
 Side 2  free  transition at x/c =  0.0277   19

  41   rms: 0.2158E+00   max: 0.7133E+00   D at   49  2
       a = -4.000      CL =  0.0434
      Cm = -0.1233     CD =  0.05546   =>   CDf =  0.00348    CDp =  0.05198

 Side 1  free  transition at x/c =  0.9159   69
 Side 2  free  transition at x/c =  0.0521   22

  42   rms: 0.6861E+00   max: 0.5613E+01   T at   22  2   RLX: 0.267
       a = -4.000      CL =  0.0761
      Cm = -0.1296     CD =  0.03569   =>   CDf =  0.00507    CDp =  0.03062

 Side 1  free  transition at x/c =  0.9158   69
 Side 2  free  transition at x/c =  0.0429   21

  43   rms: 0.8390E+00   max: 0.3902E+01   T at   21  2   RLX: 0.384
       a = -4.000      CL =  0.0645
      Cm = -0.1305     CD =  0.04128   =>   CDf =  0.00443    CDp =  0.03685

 Side 1  free  transition at x/c =  0.9149   69
 Side 2  free  transition at x/c =  0.0372   20

  44   rms: 0.3345E+00   max: 0.1347E+01   D at   22  2
       a = -4.000      CL =  0.0348
      Cm = -0.1249     CD =  0.05518   =>   CDf =  0.00366    CDp =  0.05152

 Side 1  free  transition at x/c =  0.9157   69
 Side 2  free  transition at x/c =  0.0293   20

  45   rms: 0.8969E-01   max: -.6689E+00   D at   20  2   RLX: 0.748
       a = -4.000      CL = -0.0062
      Cm = -0.1058     CD =  0.06023   =>   CDf =  0.00294    CDp =  0.05729

 Side 1  free  transition at x/c =  0.9156   69
 Side 2  free  transition at x/c =  0.0298   20

  46   rms: 0.4008E-01   max: -.4157E+00   D at   20  2
       a = -4.000      CL =  0.0026
      Cm = -0.1101     CD =  0.05574   =>   CDf =  0.00295    CDp =  0.05279

 Side 1  free  transition at x/c =  0.9155   69
 Side 2  free  transition at x/c =  0.0304   20

  47   rms: 0.1294E-01   max: -.5673E-01   D at   57  2
       a = -4.000      CL =  0.0066
      Cm = -0.1123     CD =  0.05510   =>   CDf =  0.00296    CDp =  0.05214

 Side 1  free  transition at x/c =  0.9155   69
 Side 2  free  transition at x/c =  0.0306   20

  48   rms: 0.1356E-02   max: -.7775E-02   D at   55  2
       a = -4.000      CL =  0.0070
      Cm = -0.1126     CD =  0.05521   =>   CDf =  0.00295    CDp =  0.05226

 Side 1  free  transition at x/c =  0.9155   69
 Side 2  free  transition at x/c =  0.0306   20

  49   rms: 0.7882E-04   max: -.4310E-03   D at   54  2
       a = -4.000      CL =  0.0071
      Cm = -0.1126     CD =  0.05523   =>   CDf =  0.00295    CDp =  0.05228
 plradd ia,ip,cpol            1           0 -6.89773660E-05

 Point added to stored polar  1
 Point written to save file  goe804_Re300k.base.pol                          
 Dump file unspecified or not available
 Calculating wake trajectory ...
 Calculating source influence matrix ...

 Solving BL system ...

 Side 1  free  transition at x/c =  0.9155   69
 Side 2  free  transition at x/c =  0.0306   20

   1   rms: 0.1091E+00   max: -.9880E+00   T at   20  2   RLX: 0.506
       a = -3.500      CL =  0.0409
      Cm = -0.1174     CD =  0.05180   =>   CDf =  0.00295    CDp =  0.04885

 Side 1  free  transition at x/c =  0.9142   69
 Side 2  free  transition at x/c =  0.0329   20

   2   rms: 0.9746E-01   max: -.8361E+00   T at   20  2   RLX: 0.598
       a = -3.500      CL =  0.0648
      Cm = -0.1223     CD =  0.05084   =>   CDf =  0.00294    CDp =  0.04790

 Side 1  free  transition at x/c =  0.9138   69
 Side 2  free  transition at x/c =  0.0371   20

   3   rms: 0.4275E+00   max: -.3627E+01   T at   20  2   RLX: 0.138
       a = -3.500      CL =  0.0767
      Cm = -0.1259     CD =  0.05397   =>   CDf =  0.00297    CDp =  0.05100

 Side 1  free  transition at x/c =  0.9140   69
 Side 2  free  transition at x/c =  0.0356   20

   4   rms: 0.3979E-01   max: -.5598E+00   D at   20  2   RLX: 0.893
       a = -3.500      CL =  0.1047
      Cm = -0.1303     CD =  0.04782   =>   CDf =  0.00320    CDp =  0.04462

 Side 1  free  transition at x/c =  0.9138   69
 Side 2  free  transition at x/c =  0.0388   20

   5   rms: 0.2593E+00   max: -.7633E+00   T at   21  2   RLX: 0.655
       a = -3.500      CL =  0.0670
      Cm = -0.1145     CD =  0.06034   =>   CDf =  0.00294    CDp =  0.05741

 Side 1  free  transition at x/c =  0.9142   69
 Side 2  free  transition at x/c =  0.0386   20

   6   rms: 0.2883E+00   max: -.1415E+01   T at   21  2   RLX: 0.353
       a = -3.500      CL =  0.0312
      Cm = -0.1033     CD =  0.06331   =>   CDf =  0.00293    CDp =  0.06038

 Side 1  free  transition at x/c =  0.9139   69
 Side 2  free  transition at x/c =  0.0371   20

   7   rms: 0.1819E+00   max: 0.7192E+00   T at   21  2   RLX: 0.796
       a = -3.500      CL =  0.0818
      Cm = -0.1235     CD =  0.05073   =>   CDf =  0.00284    CDp =  0.04790

 Side 1  free  transition at x/c =  0.9137   69
 Side 2  free  transition at x/c =  0.0364   20

   8   rms: 0.9841E-01   max: 0.5435E+00   D at   54  2   RLX: 0.971
       a = -3.500      CL =  0.1210
      Cm = -0.1336     CD =  0.04716   =>   CDf =  0.00345    CDp =  0.04371

 Side 1  free  transition at x/c =  0.9141   69
 Side 2  free  transition at x/c =  0.0408   21

   9   rms: 0.1260E+00   max: 0.5820E+00   D at   45  2
       a = -3.500      CL =  0.1473
      Cm = -0.1439     CD =  0.04256   =>   CDf =  0.00387    CDp =  0.03868

 MRCHDU: Convergence failed at  45  side 2    Res =  0.3075E+01
 MRCHDU: Convergence failed at  46  side 2    Res =  0.2902E+01
 MRCHDU: Convergence failed at  47  side 2    Res =  0.2108E+01
 MRCHDU: Convergence failed at  48  side 2    Res =  0.1959E+01
 MRCHDU: Convergence failed at  49  side 2    Res =  0.1865E+01
 MRCHDU: Convergence failed at  50  side 2    Res =  0.1868E+01
 MRCHDU: Convergence failed at  51  side 2    Res =  0.1800E+01
 MRCHDU: Convergence failed at  52  side 2    Res =  0.1812E+01
 MRCHDU: Convergence failed at  53  side 2    Res =  0.1699E+01
 MRCHDU: Convergence failed at  54  side 2    Res =  0.1681E+01
 MRCHDU: Convergence failed at  55  side 2    Res =  0.1671E+01
 MRCHDU: Convergence failed at  56  side 2    Res =  0.1572E+01
 MRCHDU: Convergence failed at  57  side 2    Res =  0.1710E+01
 MRCHDU: Convergence failed at  58  side 2    Res =  0.2075E+01
 MRCHDU: Convergence failed at  59  side 2    Res =  0.2328E+01
 MRCHDU: Convergence failed at  60  side 2    Res =  0.2651E+01
 MRCHDU: Convergence failed at  61  side 2    Res =  0.3048E+01
 MRCHDU: Convergence failed at  62  side 2    Res =  0.3581E+01
 MRCHDU: Convergence failed at  63  side 2    Res =  0.4235E+01
 MRCHDU: Convergence failed at  64  side 2    Res =  0.5020E+01
 MRCHDU: Convergence failed at  65  side 2    Res =  0.6417E+01
 MRCHDU: Convergence failed at  66  side 2    Res =  0.7720E+01
 MRCHDU: Convergence failed at  67  side 2    Res =  0.9253E+01
 MRCHDU: Convergence failed at  68  side 2    Res =  0.1116E+02
 MRCHDU: Convergence failed at  69  side 2    Res =  0.1401E+02
 MRCHDU: Convergence failed at  70  side 2    Res =  0.1812E+02
 MRCHDU: Convergence failed at  71  side 2    Res =  0.2436E+02
 MRCHDU: Convergence failed at  72  side 2    Res =  0.3379E+02
 MRCHDU: Convergence failed at  73  side 2    Res =  0.5163E+02
 MRCHDU: Convergence failed at  74  side 2    Res =  0.1155E+03
 MRCHDU: Convergence failed at  75  side 2    Res =  0.3154E+03
 MRCHDU: Convergence failed at  76  side 2    Res =  0.8842E+01
 MRCHDU: Convergence failed at  77  side 2    Res =  0.7751E+01
 MRCHDU: Convergence failed at  78  side 2    Res =  0.6698E+01
 MRCHDU: Convergence failed at  79  side 2    Res =  0.5637E+01
 MRCHDU: Convergence failed at  80  side 2    Res =  0.4521E+01
 MRCHDU: Convergence failed at  81  side 2    Res =  0.3624E+01
 MRCHDU: Convergence failed at  82  side 2    Res =  0.2804E+01
 MRCHDU: Convergence failed at  83  side 2    Res =  0.1947E+01
 MRCHDU: Convergence failed at  84  side 2    Res =  0.1630E+01
 MRCHDU: Convergence failed at  85  side 2    Res =  0.1363E+01
 MRCHDU: Convergence failed at  86  side 2    Res =  0.1552E+01
 Side 1  free  transition at x/c =  0.9148   69
 Side 2  free  transition at x/c =  0.0388   20

  10   rms: 0.2871E+00   max: -.1011E+01   T at   21  2   RLX: 0.495
       a = -3.500      CL = -0.0623
      Cm = -0.0828     CD =  0.06934   =>   CDf =  0.00289    CDp =  0.06645

 Side 1  free  transition at x/c =  0.9119   68
 Side 2  free  transition at x/c =  0.0338   20

  11   rms: 0.9565E-01   max: -.5604E+00   D at   20  2   RLX: 0.892
       a = -3.500      CL =  0.0623
      Cm = -0.1192     CD =  0.04889   =>   CDf =  0.00314    CDp =  0.04575

 Side 1  free  transition at x/c =  0.9101   68
 Side 2  free  transition at x/c =  0.0372   20

  12   rms: 0.6499E-01   max: 0.4326E+00   T at   68  1
       a = -3.500      CL =  0.0560
      Cm = -0.1188     CD =  0.05143   =>   CDf =  0.00303    CDp =  0.04841

 Side 1  free  transition at x/c =  0.9014   68
 Side 2  free  transition at x/c =  0.0371   20

  13   rms: 0.7680E-01   max: -.8694E+00   T at   20  2   RLX: 0.575
       a = -3.500      CL =  0.0849
      Cm = -0.1248     CD =  0.04773   =>   CDf =  0.00322    CDp =  0.04451

 Side 1  free  transition at x/c =  0.9044   68
 Side 2  free  transition at x/c =  0.0359   20

  14   rms: 0.1522E+00   max: 0.5925E+00   D at   21  2
       a = -3.500      CL =  0.0871
      Cm = -0.1259     CD =  0.05045   =>   CDf =  0.00337    CDp =  0.04708

 Side 1  free  transition at x/c =  0.9081   68
 Side 2  free  transition at x/c =  0.0380   20

  15   rms: 0.4126E+00   max: 0.2006E+01   T at   21  2   RLX: 0.286
       a = -3.500      CL =  0.1597
      Cm = -0.1416     CD =  0.04805   =>   CDf =  0.00309    CDp =  0.04496

 Side 1  free  transition at x/c =  0.9164   69
 Side 2  free  transition at x/c =  0.0354   20

  16   rms: 0.4792E+00   max: 0.1782E+01   D at   37  2   RLX: 0.842
       a = -3.500      CL =  0.1457
      Cm = -0.1434     CD =  0.04410   =>   CDf =  0.00429    CDp =  0.03981

 Side 1  free  transition at x/c =  0.9141   70
 Side 2  free  transition at x/c =  0.0402   20
 idif Ue xi dudx           1  0.16998295      1.98459625E-03   85.651154    
 Uenew xinew           2  2.09313463E-02  2.44379044E-04

  17   rms: 0.3751E+00   max: 0.2142E+01   D at   32  2   RLX: 0.700
       a = -3.500      CL =  0.1690
      Cm = -0.1463     CD =  0.03722   =>   CDf =  0.00549    CDp =  0.03172

 MRCHDU: Convergence failed at  32  side 2    Res =  0.2327E+01
 MRCHDU: Convergence failed at  33  side 2    Res =  0.8634E+01
 MRCHDU: Convergence failed at  34  side 2    Res =  0.1999E+02
 MRCHDU: Convergence failed at  35  side 2    Res =  0.3817E+02
 MRCHDU: Convergence failed at  36  side 2    Res =  0.2223E+01
 MRCHDU: Convergence failed at  37  side 2    Res =  0.2140E+01
 MRCHDU: Convergence failed at  38  side 2    Res =  0.1929E+01
 MRCHDU: Convergence failed at  39  side 2    Res =  0.2027E+01
 MRCHDU: Convergence failed at  40  side 2    Res =  0.2391E+01
 MRCHDU: Convergence failed at  41  side 2    Res =  0.3056E+01
 MRCHDU: Convergence failed at  42  side 2    Res =  0.3990E+01
 MRCHDU: Convergence failed at  43  side 2    Res =  0.5789E+01
 MRCHDU: Convergence failed at  44  side 2    Res =  0.8497E+01
 MRCHDU: Convergence failed at  45  side 2    Res =  0.1554E+02
 MRCHDU: Convergence failed at  46  side 2    Res =  0.3968E+02
 MRCHDU: Convergence failed at  47  side 2    Res =  0.1043E+03
 MRCHDU: Convergence failed at  48  side 2    Res =  0.6936E+02
 MRCHDU: Convergence failed at  49  side 2    Res =  0.4562E+02
 MRCHDU: Convergence failed at  50  side 2    Res =  0.6282E+02
 MRCHDU: Convergence failed at  51  side 2    Res =  0.1219E+03
 MRCHDU: Convergence failed at  52  side 2    Res =  0.2156E+03
 MRCHDU: Convergence failed at  53  side 2    Res =  0.7761E+02
 MRCHDU: Convergence failed at  54  side 2    Res =  0.3841E+02
 MRCHDU: Convergence failed at  55  side 2    Res =  0.2995E+02
 MRCHDU: Convergence failed at  56  side 2    Res =  0.2475E+02
 MRCHDU: Convergence failed at  57  side 2    Res =  0.1692E+02
 MRCHDU: Convergence failed at  58  side 2    Res =  0.1527E+02
 MRCHDU: Convergence failed at  59  side 2    Res =  0.1391E+02
 MRCHDU: Convergence failed at  60  side 2    Res =  0.1279E+02
 MRCHDU: Convergence failed at  61  side 2    Res =  0.1186E+02
 MRCHDU: Convergence failed at  62  side 2    Res =  0.1068E+02
 MRCHDU: Convergence failed at  63  side 2    Res =  0.1010E+02
 MRCHDU: Convergence failed at  64  side 2    Res =  0.9280E+01
 MRCHDU: Convergence failed at  65  side 2    Res =  0.8549E+01
 MRCHDU: Convergence failed at  66  side 2    Res =  0.8338E+01
 MRCHDU: Convergence failed at  67  side 2    Res =  0.7848E+01
 MRCHDU: Convergence failed at  68  side 2    Res =  0.7760E+01
 MRCHDU: Convergence failed at  69  side 2    Res =  0.7718E+01
 MRCHDU: Convergence failed at  70  side 2    Res =  0.7698E+01
 MRCHDU: Convergence failed at  71  side 2    Res =  0.7721E+01
 MRCHDU: Convergence failed at  72  side 2    Res =  0.7762E+01
 MRCHDU: Convergence failed at  73  side 2    Res =  0.7801E+01
 MRCHDU: Convergence failed at  74  side 2    Res =  0.7806E+01
 MRCHDU: Convergence failed at  75  side 2    Res =  0.7767E+01
 MRCHDU: Convergence failed at  76  side 2    Res =  0.7665E+01
 MRCHDU: Convergence failed at  77  side 2    Res =  0.7479E+01
 MRCHDU: Convergence failed at  78  side 2    Res =  0.7212E+01
 MRCHDU: Convergence failed at  79  side 2    Res =  0.6808E+01
 MRCHDU: Convergence failed at  80  side 2    Res =  0.5928E+01
 MRCHDU: Convergence failed at  81  side 2    Res =  0.5181E+01
 MRCHDU: Convergence failed at  82  side 2    Res =  0.4428E+01
 MRCHDU: Convergence failed at  83  side 2    Res =  0.4985E+01
 MRCHDU: Convergence failed at  84  side 2    Res =  0.7234E+01
 MRCHDU: Convergence failed at  85  side 2    Res =  0.1482E+02
 MRCHDU: Convergence failed at  86  side 2    Res =  0.1897E+02
 Side 1  free  transition at x/c =  0.9148   69
 Side 2  free  transition at x/c =  0.0396   21

  18   rms: 0.2240E+00   max: 0.7179E+00   T at   21  2
       a = -3.500      CL =  0.0550
      Cm = -0.1031     CD =  0.05155   =>   CDf =  0.00279    CDp =  0.04876

 Side 1  free  transition at x/c =  0.9160   69
 Side 2  free  transition at x/c =  0.0386   20

  19   rms: 0.7659E+00   max: 0.2339E+01   D at   36  2   RLX: 0.641
       a = -3.500      CL =  0.1551
      Cm = -0.1430     CD =  0.04074   =>   CDf =  0.00526    CDp =  0.03547

 MRCHDU: Convergence failed at  27  side 2    Res =  0.3097E-03
 MRCHDU: Convergence failed at  32  side 2    Res =  0.7491E+00
 Side 1  free  transition at x/c =  0.9145   70
 Side 2  free  transition at x/c =  0.0384   19
 idif Ue xi dudx           1  0.17796753      2.09414959E-03   84.983200    
 Uenew xinew           2  3.00783068E-02  3.53932381E-04

  20   rms: 0.5062E+00   max: 0.2711E+01   D at   26  2   RLX: 0.553
       a = -3.500      CL =  0.1917
      Cm = -0.1524     CD =  0.03061   =>   CDf =  0.00686    CDp =  0.02375

 Side 1  free  transition at x/c =  0.9163   69
 Side 2  free  transition at x/c =  0.0385   20

  21   rms: 0.3110E+00   max: 0.1494E+01   D at   28  2
       a = -3.500      CL =  0.1308
      Cm = -0.1367     CD =  0.04546   =>   CDf =  0.00418    CDp =  0.04128

 MRCHDU: Convergence failed at  28  side 2    Res =  0.1118E+01
 Side 1  free  transition at x/c =  0.9127   69
 Side 2  free  transition at x/c =  0.0387   20

  22   rms: 0.3331E-01   max: 0.2597E+00   D at   26  2
       a = -3.500      CL =  0.1449
      Cm = -0.1405     CD =  0.04487   =>   CDf =  0.00350    CDp =  0.04137

 Side 1  free  transition at x/c =  0.9141   69
 Side 2  free  transition at x/c =  0.0388   20

  23   rms: 0.4073E-02   max: 0.3191E-01   D at   31  2
       a = -3.500      CL =  0.1463
      Cm = -0.1408     CD =  0.04478   =>   CDf =  0.00353    CDp =  0.04125

 Side 1  free  transition at x/c =  0.9144   69
 Side 2  free  transition at x/c =  0.0490   21

  24   rms: 0.5965E+00   max: 0.1960E+01   D at   22  2   RLX: 0.673
       a = -3.500      CL =  0.1419
      Cm = -0.1420     CD =  0.04320   =>   CDf =  0.00431    CDp =  0.03889

 MRCHDU: Convergence failed at  40  side 2    Res =  0.9209E+00
 MRCHDU: Convergence failed at  41  side 2    Res =  0.1092E+01
 MRCHDU: Convergence failed at  42  side 2    Res =  0.1370E+01
 MRCHDU: Convergence failed at  43  side 2    Res =  0.1761E+01
 MRCHDU: Convergence failed at  44  side 2    Res =  0.2304E+01
 MRCHDU: Convergence failed at  45  side 2    Res =  0.3179E+01
 MRCHDU: Convergence failed at  46  side 2    Res =  0.4833E+01
 MRCHDU: Convergence failed at  47  side 2    Res =  0.8226E+01
 MRCHDU: Convergence failed at  48  side 2    Res =  0.2265E+02
 MRCHDU: Convergence failed at  49  side 2    Res =  0.4693E+02
 MRCHDU: Convergence failed at  50  side 2    Res =  0.1278E+02
 MRCHDU: Convergence failed at  51  side 2    Res =  0.6777E+01
 MRCHDU: Convergence failed at  52  side 2    Res =  0.5263E+01
 MRCHDU: Convergence failed at  53  side 2    Res =  0.4292E+01
 MRCHDU: Convergence failed at  54  side 2    Res =  0.3752E+01
 MRCHDU: Convergence failed at  55  side 2    Res =  0.3345E+01
 MRCHDU: Convergence failed at  56  side 2    Res =  0.3044E+01
 MRCHDU: Convergence failed at  57  side 2    Res =  0.2814E+01
 MRCHDU: Convergence failed at  58  side 2    Res =  0.2630E+01
 MRCHDU: Convergence failed at  59  side 2    Res =  0.2475E+01
 MRCHDU: Convergence failed at  60  side 2    Res =  0.2325E+01
 MRCHDU: Convergence failed at  61  side 2    Res =  0.2224E+01
 MRCHDU: Convergence failed at  62  side 2    Res =  0.2145E+01
 MRCHDU: Convergence failed at  63  side 2    Res =  0.2048E+01
 MRCHDU: Convergence failed at  64  side 2    Res =  0.2003E+01
 MRCHDU: Convergence failed at  65  side 2    Res =  0.1951E+01
 MRCHDU: Convergence failed at  66  side 2    Res =  0.1929E+01
 MRCHDU: Convergence failed at  67  side 2    Res =  0.1860E+01
 MRCHDU: Convergence failed at  68  side 2    Res =  0.1855E+01
 MRCHDU: Convergence failed at  69  side 2    Res =  0.1855E+01
 MRCHDU: Convergence failed at  70  side 2    Res =  0.2023E+01
 MRCHDU: Convergence failed at  71  side 2    Res =  0.2113E+01
 MRCHDU: Convergence failed at  72  side 2    Res =  0.2202E+01
 MRCHDU: Convergence failed at  73  side 2    Res =  0.2300E+01
 MRCHDU: Convergence failed at  74  side 2    Res =  0.2404E+01
 MRCHDU: Convergence failed at  75  side 2    Res =  0.2524E+01
 MRCHDU: Convergence failed at  76  side 2    Res =  0.2739E+01
 MRCHDU: Convergence failed at  77  side 2    Res =  0.2937E+01
 MRCHDU: Convergence failed at  78  side 2    Res =  0.3220E+01
 MRCHDU: Convergence failed at  79  side 2    Res =  0.3726E+01
 MRCHDU: Convergence failed at  80  side 2    Res =  0.4754E+01
 MRCHDU: Convergence failed at  81  side 2    Res =  0.6648E+01
 MRCHDU: Convergence failed at  82  side 2    Res =  0.1785E+02
 MRCHDU: Convergence failed at  83  side 2    Res =  0.3469E+02
 MRCHDU: Convergence failed at  84  side 2    Res =  0.8297E+01
 MRCHDU: Convergence failed at  85  side 2    Res =  0.6469E+01
 Side 1  free  transition at x/c =  0.9135   70
 Side 2  free  transition at x/c =  0.0383   19

  25   rms: 0.6876E+00   max: 0.5800E+01   T at   20  2   RLX: 0.259
       a = -3.500      CL =  0.0761
      Cm = -0.0837     CD =  0.06270   =>   CDf =  0.00293    CDp =  0.05977

 Side 1  free  transition at x/c =  0.9156   70
 Side 2  free  transition at x/c =  0.0368   19
 idif Ue xi dudx           1  0.16859262      1.91771984E-03   87.913055    
 Uenew xinew           2  1.56047987E-02  1.77502632E-04

  26   rms: 0.5381E+00   max: 0.1583E+01   D at   30  2   RLX: 0.875
       a = -3.500      CL =  0.2061
      Cm = -0.1598     CD =  0.03300   =>   CDf =  0.00622    CDp =  0.02678

 TRCHEK2: N2 convergence failed.
 x:  0.08484  0.09498  0.09961  N:  8.785  9.000  9.075  Nx:  31.089   dN:-0.467E+00
 TRCHEK2: N2 convergence failed.
 x:  0.08484  0.09928  0.09961  N:  8.785  9.000  9.016  Nx:  19.371   dN: 0.103E+00
 TRCHEK2: N2 convergence failed.
 x:  0.08484  0.09639  0.09961  N:  8.785  9.000  9.042  Nx:  26.077   dN:-0.209E+00
 TRCHEK2: N2 convergence failed.
 x:  0.08484  0.09790  0.09961  N:  8.785  9.000  9.014  Nx:  20.119   dN:-0.157E+00
 TRCHEK2: N2 convergence failed.
 x:  0.08484  0.09795  0.09961  N:  8.785  9.000  9.041  Nx:  19.453   dN: 0.114E+00
 TRCHEK2: N2 convergence failed.
 x:  0.08484  0.09789  0.09961  N:  8.785  9.000  9.015  Nx:  20.171   dN:-0.100E+00
 TRCHEK2: N2 convergence failed.
 x:  0.08484  0.09795  0.09961  N:  8.785  9.000  9.041  Nx:  19.414   dN: 0.883E-01
 TRCHEK2: N2 convergence failed.
 x:  0.08484  0.09790  0.09961  N:  8.785  9.000  9.014  Nx:  19.894   dN:-0.143E+00
 TRCHEK2: N2 convergence failed.
 x:  0.08484  0.09795  0.09961  N:  8.785  9.000  9.041  Nx:  19.360   dN: 0.605E-01
 TRCHEK2: N2 convergence failed.
 x:  0.08484  0.09791  0.09961  N:  8.785  9.000  9.042  Nx:  19.624   dN: 0.356E+01
 TRCHEK2: N2 convergence failed.
 x:  0.08484  0.09788  0.09961  N:  8.785  9.000  9.015  Nx:  19.833   dN:-0.584E-01
 TRCHEK2: N2 convergence failed.
 x:  0.08484  0.09792  0.09961  N:  8.785  9.000  9.014  Nx:  19.358   dN:-0.682E-01
 TRCHEK2: N2 convergence failed.
 x:  0.08484  0.09793  0.09961  N:  8.785  9.000  9.041  Nx:  19.405   dN: 0.822E-01
 TRCHEK2: N2 convergence failed.
 x:  0.08484  0.09789  0.09961  N:  8.785  9.000  9.015  Nx:  19.616   dN:-0.407E+00
 TRCHEK2: N2 convergence failed.
 x:  0.08484  0.09795  0.09961  N:  8.785  9.000  9.041  Nx:  19.326   dN: 0.436E-01
 TRCHEK2: N2 convergence failed.
 x:  0.08484  0.09792  0.09961  N:  8.785  9.000  9.042  Nx:  19.395   dN: 0.763E-01
 TRCHEK2: N2 convergence failed.
 x:  0.08484  0.09790  0.09961  N:  8.785  9.000  9.014  Nx:  19.666   dN:-0.521E+00
 TRCHEK2: N2 convergence failed.
 x:  0.08484  0.09794  0.09961  N:  8.785  9.000  9.041  Nx:  19.375   dN: 0.651E-01
 TRCHEK2: N2 convergence failed.
 x:  0.08484  0.09790  0.09961  N:  8.785  9.000  9.042  Nx:  19.575   dN: 0.104E+01
 TRCHEK2: N2 convergence failed.
 x:  0.08484  0.09788  0.09961  N:  8.785  9.000  9.015  Nx:  20.229   dN:-0.525E-01
 TRCHEK2: N2 convergence failed.
 x:  0.08484  0.09793  0.09961  N:  8.785  9.000  9.041  Nx:  19.406   dN: 0.834E-01
 TRCHEK2: N2 convergence failed.
 x:  0.08484  0.09789  0.09961  N:  8.785  9.000  9.015  Nx:  19.653   dN:-0.279E+00
 MRCHDU: Convergence failed at  24  side 2    Res =  0.1204E+01
 MRCHDU: Convergence failed at  25  side 2    Res =  0.1364E+02
 MRCHDU: Convergence failed at  26  side 2    Res =  0.7478E+02
 MRCHDU: Convergence failed at  27  side 2    Res =  0.3131E+02
 MRCHDU: Convergence failed at  28  side 2    Res =  0.5324E+02
 MRCHDU: Convergence failed at  29  side 2    Res =  0.9835E+02
 MRCHDU: Convergence failed at  30  side 2    Res =  0.4276E+03
 MRCHDU: Convergence failed at  31  side 2    Res =  0.1233E+03
 MRCHDU: Convergence failed at  32  side 2    Res =  0.1724E+03
 MRCHDU: Convergence failed at  33  side 2    Res =  0.5677E+03
 MRCHDU: Convergence failed at  34  side 2    Res =  0.9214E+03
 MRCHDU: Convergence failed at  35  side 2    Res =  0.1630E+03
 MRCHDU: Convergence failed at  36  side 2    Res =  0.1257E+03
 MRCHDU: Convergence failed at  37  side 2    Res =  0.1197E+03
 MRCHDU: Convergence failed at  38  side 2    Res =  0.7284E+05
 MRCHDU: Convergence failed at  39  side 2    Res =  0.1104E+03
 MRCHDU: Convergence failed at  40  side 2    Res =  0.1319E+03
 MRCHDU: Convergence failed at  41  side 2    Res =  0.1649E+03
 MRCHDU: Convergence failed at  42  side 2    Res =  0.2050E+03
 MRCHDU: Convergence failed at  43  side 2    Res =  0.2885E+03
 MRCHDU: Convergence failed at  44  side 2    Res =  0.3771E+03
 MRCHDU: Convergence failed at  45  side 2    Res =  0.5112E+03
 MRCHDU: Convergence failed at  46  side 2    Res =  0.6892E+03
 MRCHDU: Convergence failed at  47  side 2    Res =  0.8836E+03
 MRCHDU: Convergence failed at  48  side 2    Res =  0.8046E+03
 MRCHDU: Convergence failed at  49  side 2    Res =  0.7445E+03
 MRCHDU: Convergence failed at  50  side 2    Res =  0.1704E+04
 MRCHDU: Convergence failed at  51  side 2    Res =  0.1161E+04
 MRCHDU: Convergence failed at  52  side 2    Res =  0.9446E+03
 MRCHDU: Convergence failed at  53  side 2    Res =  0.8201E+03
 MRCHDU: Convergence failed at  54  side 2    Res =  0.8625E+03
 MRCHDU: Convergence failed at  55  side 2    Res =  0.9048E+03
 MRCHDU: Convergence failed at  56  side 2    Res =  0.9396E+03
 MRCHDU: Convergence failed at  57  side 2    Res =  0.9665E+03
 MRCHDU: Convergence failed at  58  side 2    Res =  0.9851E+03
 MRCHDU: Convergence failed at  59  side 2    Res =  0.9883E+03
 MRCHDU: Convergence failed at  60  side 2    Res =  0.3150E+03
 MRCHDU: Convergence failed at  61  side 2    Res =  0.3009E+03
 MRCHDU: Convergence failed at  62  side 2    Res =  0.2885E+03
 MRCHDU: Convergence failed at  63  side 2    Res =  0.2768E+03
 MRCHDU: Convergence failed at  64  side 2    Res =  0.2763E+03
 MRCHDU: Convergence failed at  65  side 2    Res =  0.2775E+03
 MRCHDU: Convergence failed at  66  side 2    Res =  0.2802E+03
 MRCHDU: Convergence failed at  67  side 2    Res =  0.2840E+03
 MRCHDU: Convergence failed at  68  side 2    Res =  0.2887E+03
 MRCHDU: Convergence failed at  69  side 2    Res =  0.2950E+03
 MRCHDU: Convergence failed at  70  side 2    Res =  0.3025E+03
 MRCHDU: Convergence failed at  71  side 2    Res =  0.3125E+03
 MRCHDU: Convergence failed at  72  side 2    Res =  0.3259E+03
 MRCHDU: Convergence failed at  73  side 2    Res =  0.3414E+03
 MRCHDU: Convergence failed at  74  side 2    Res =  0.3570E+03
 MRCHDU: Convergence failed at  75  side 2    Res =  0.3714E+03
 MRCHDU: Convergence failed at  76  side 2    Res =  0.3839E+03
 MRCHDU: Convergence failed at  77  side 2    Res =  0.3901E+03
 MRCHDU: Convergence failed at  78  side 2    Res =  0.3918E+03
 MRCHDU: Convergence failed at  79  side 2    Res =  0.3831E+03
 MRCHDU: Convergence failed at  80  side 2    Res =  0.3595E+03
 MRCHDU: Convergence failed at  81  side 2    Res =  0.3236E+03
 MRCHDU: Convergence failed at  82  side 2    Res =  0.2040E+03
 MRCHDU: Convergence failed at  83  side 2    Res =  0.1792E+03
 MRCHDU: Convergence failed at  84  side 2    Res =  0.1556E+03
 MRCHDU: Convergence failed at  85  side 2    Res =  0.1520E+03
 MRCHDU: Convergence failed at  86  side 2    Res =  0.1581E+03
 Side 1  free  transition at x/c =  0.9189   69
 Side 2  free  transition at x/c =  0.0825   24

  27   rms: 0.1298E+01   max: 0.1201E+02   T at   24  2   RLX: 0.114
       a = -3.500      CL = -0.8649
      Cm =  0.1844     CD =  0.01420   =>   CDf =  0.00234    CDp =  0.01186

 Side 1  free  transition at x/c =  0.9254   70
 Side 2  free  transition at x/c =  0.0611   21
 idif Ue xi dudx           1  0.16859113      1.92248821E-03   87.694229    
 Uenew xinew           2  1.59841143E-02  1.82271004E-04

  28   rms: 0.2338E+02   max: 0.3103E+03   T at   22  2   RLX: 0.005
       a = -3.500      CL = -0.5959
      Cm =  0.0926     CD =  0.10295   =>   CDf =  0.00289    CDp =  0.10006

 Side 1  free  transition at x/c =  0.9285   70
 Side 2  free  transition at x/c =  0.0584   22

  29   rms: 0.6753E+00   max: -.3715E+01   T at   70  1   RLX: 0.135
       a = -3.500      CL = -0.6374
      Cm =  0.0941     CD =  0.09252   =>   CDf =  0.00285    CDp =  0.08968

 Side 1  free  transition at x/c =  0.9365   70
 Side 2  free  transition at x/c =  0.0423   21

  30   rms: 0.9807E+00   max: -.1128E+02   T at   70  1   RLX: 0.044
       a = -3.500      CL = -0.6333
      Cm =  0.0947     CD =  0.10240   =>   CDf =  0.00287    CDp =  0.09954

 Side 1  free  transition at x/c =  0.9471   71
 Side 2  free  transition at x/c =  0.0425   21

  31   rms: 0.5316E+00   max: 0.3099E+01   T at   21  2   RLX: 0.253
       a = -3.500      CL = -0.4846
      Cm =  0.0528     CD =  0.09077   =>   CDf =  0.00293    CDp =  0.08784

 Side 1  free  transition at x/c =  0.9590   72
 Side 2  free  transition at x/c =  0.0386   20

  32   rms: 0.5429E+00   max: -.1813E+01   C at  102  2   RLX: 0.276
       a = -3.500      CL = -0.3898
      Cm =  0.0331     CD =  0.09975   =>   CDf =  0.00302    CDp =  0.09673

 Side 1  free  transition at x/c =  0.9669   72
 Side 2  free  transition at x/c =  0.0380   20

  33   rms: 0.6212E+00   max: -.3511E+01   T at   93  2   RLX: 0.142
       a = -3.500      CL = -0.3410
      Cm =  0.0186     CD =  0.10933   =>   CDf =  0.00306    CDp =  0.10626

 Side 1  free  transition at x/c =  0.9635   72
 Side 2  free  transition at x/c =  0.0377   20

  34   rms: 0.4767E+00   max: 0.2375E+01   T at   21  2   RLX: 0.326
       a = -3.500      CL = -0.1962
      Cm = -0.0188     CD =  0.09582   =>   CDf =  0.00302    CDp =  0.09280

 Side 1  free  transition at x/c =  0.9612   73
 Side 2  free  transition at x/c =  0.0373   19

  35   rms: 0.3822E+00   max: -.1232E+01   C at  105  2   RLX: 0.406
       a = -3.500      CL = -0.0940
      Cm = -0.0505     CD =  0.08082   =>   CDf =  0.00307    CDp =  0.07774

 Side 1  free  transition at x/c =  0.9605   73
 Side 2  free  transition at x/c =  0.0378   19

  36   rms: 0.3207E+00   max: -.1181E+01   D at  104  2   RLX: 0.424
       a = -3.500      CL = -0.0449
      Cm = -0.0701     CD =  0.08161   =>   CDf =  0.00305    CDp =  0.07855

 Side 1  free  transition at x/c =  0.9591   73
 Side 2  free  transition at x/c =  0.0376   19
 idif Ue xi dudx           1  0.16288187      1.94287300E-03   83.835571    
 Uenew xinew           2  1.69897638E-02  2.02655792E-04

  37   rms: 0.2824E+00   max: -.1259E+01   D at  104  2   RLX: 0.397
       a = -3.500      CL = -0.0111
      Cm = -0.0870     CD =  0.08251   =>   CDf =  0.00306    CDp =  0.07945

 Side 1  free  transition at x/c =  0.9554   71
 Side 2  free  transition at x/c =  0.0368   20

  38   rms: 0.3864E+00   max: -.2267E+01   T at   71  1   RLX: 0.221
       a = -3.500      CL =  0.0407
      Cm = -0.1076     CD =  0.07879   =>   CDf =  0.00296    CDp =  0.07583

 Side 1  free  transition at x/c =  0.9649   72
 Side 2  free  transition at x/c =  0.0369   20

  39   rms: 0.2724E+00   max: 0.1498E+01   T at   72  1   RLX: 0.447
       a = -3.500      CL =  0.0493
      Cm = -0.1150     CD =  0.06108   =>   CDf =  0.00300    CDp =  0.05809

 Side 1  free  transition at x/c =  0.9513   71
 Side 2  free  transition at x/c =  0.0372   20

  40   rms: 0.7758E+00   max: 0.8839E+01   T at   71  1   RLX: 0.120
       a = -3.500      CL = -0.0224
      Cm = -0.0968     CD =  0.07299   =>   CDf =  0.00292    CDp =  0.07007

 Side 1  free  transition at x/c =  0.9331   70
 Side 2  free  transition at x/c =  0.0312   20

  41   rms: 0.2180E+00   max: 0.2039E+01   T at   70  1   RLX: 0.622
       a = -3.500      CL = -0.0922
      Cm = -0.0811     CD =  0.06650   =>   CDf =  0.00279    CDp =  0.06371

 Side 1  free  transition at x/c =  0.9122   68
 Side 2  free  transition at x/c =  0.0296   20

  42   rms: 0.3018E+00   max: -.2173E+01   T at   68  1   RLX: 0.230
       a = -3.500      CL = -0.0402
      Cm = -0.0960     CD =  0.06925   =>   CDf =  0.00267    CDp =  0.06658

 Side 1  free  transition at x/c =  0.9203   69
 Side 2  free  transition at x/c =  0.0306   20
 idif Ue xi dudx           1  0.16737385      2.53784657E-03   65.951134    
 Uenew xinew           2  3.41210254E-02  5.17368317E-04

  43   rms: 0.3613E+00   max: 0.3429E+01   T at   69  1   RLX: 0.437
       a = -3.500      CL = -0.1548
      Cm = -0.0766     CD =  0.06960   =>   CDf =  0.00277    CDp =  0.06683

 MRCHDU: Convergence failed at  69  side 2    Res =  0.1016E+01
 MRCHDU: Convergence failed at  70  side 2    Res =  0.1040E+01
 MRCHDU: Convergence failed at  71  side 2    Res =  0.1198E+01
 MRCHDU: Convergence failed at  72  side 2    Res =  0.1390E+01
 MRCHDU: Convergence failed at  73  side 2    Res =  0.1576E+01
 MRCHDU: Convergence failed at  74  side 2    Res =  0.1801E+01
 MRCHDU: Convergence failed at  75  side 2    Res =  0.2028E+01
 MRCHDU: Convergence failed at  76  side 2    Res =  0.2272E+01
 MRCHDU: Convergence failed at  77  side 2    Res =  0.2609E+01
 MRCHDU: Convergence failed at  78  side 2    Res =  0.3034E+01
 MRCHDU: Convergence failed at  79  side 2    Res =  0.3563E+01
 MRCHDU: Convergence failed at  80  side 2    Res =  0.4312E+01
 MRCHDU: Convergence failed at  81  side 2    Res =  0.5458E+01
 MRCHDU: Convergence failed at  82  side 2    Res =  0.7302E+01
 MRCHDU: Convergence failed at  83  side 2    Res =  0.1061E+02
 MRCHDU: Convergence failed at  84  side 2    Res =  0.2095E+02
 MRCHDU: Convergence failed at  85  side 2    Res =  0.6610E+02
 MRCHDU: Convergence failed at  86  side 2    Res =  0.1171E+02
 MRCHDU: Convergence failed at  87  side 2    Res =  0.1137E+02
 Side 1  free  transition at x/c =  0.8950   66
 Side 2  free  transition at x/c =  0.0279   20

  44   rms: 0.3349E+00   max: 0.4622E+01   T at   66  1   RLX: 0.199
       a = -3.500      CL = -0.3235
      Cm = -0.0277     CD =  0.07701   =>   CDf =  0.00260    CDp =  0.07441

 Side 1  free  transition at x/c =  0.8815   65
 Side 2  free  transition at x/c =  0.0274   20

  45   rms: 0.1056E+01   max: 0.1289E+02   T at   65  1   RLX: 0.068
       a = -3.500      CL = -0.3594
      Cm = -0.0210     CD =  0.06657   =>   CDf =  0.00264    CDp =  0.06394

 Side 1  free  transition at x/c =  0.8691   65
 Side 2  free  transition at x/c =  0.0260   20

  46   rms: 0.2044E+00   max: -.1373E+01   T at   20  2   RLX: 0.364
       a = -3.500      CL = -0.2462
      Cm = -0.0473     CD =  0.06459   =>   CDf =  0.00255    CDp =  0.06205

 Side 1  free  transition at x/c =  0.8721   65
 Side 2  free  transition at x/c =  0.0255   20

  47   rms: 0.1488E+00   max: -.7424E+00   T at   65  1   RLX: 0.674
       a = -3.500      CL = -0.1002
      Cm = -0.0820     CD =  0.05917   =>   CDf =  0.00261    CDp =  0.05656

 Side 1  free  transition at x/c =  0.8821   66
 Side 2  free  transition at x/c =  0.0271   19

  48   rms: 0.1686E+00   max: 0.2044E+01   T at   66  1   RLX: 0.389
       a = -3.500      CL = -0.1214
      Cm = -0.0765     CD =  0.06504   =>   CDf =  0.00274    CDp =  0.06229

 Side 1  free  transition at x/c =  0.8737   66
 Side 2  free  transition at x/c =  0.0276   19

  49   rms: 0.1433E+00   max: -.6757E+00   T at   66  1   RLX: 0.740
       a = -3.500      CL = -0.0335
      Cm = -0.0974     CD =  0.05934   =>   CDf =  0.00272    CDp =  0.05662

 Side 1  free  transition at x/c =  0.8835   67
 Side 2  free  transition at x/c =  0.0281   19

  50   rms: 0.1676E+00   max: -.6696E+00   T at   67  1   RLX: 0.747
       a = -3.500      CL =  0.0126
      Cm = -0.1071     CD =  0.05745   =>   CDf =  0.00282    CDp =  0.05463

 MRCHDU: Convergence failed at  24  side 2    Res =  0.9348E+04
 MRCHDU: Convergence failed at  25  side 2    Res =  0.1164E+02
 MRCHDU: Convergence failed at  26  side 2    Res =  0.2331E+02
 MRCHDU: Convergence failed at  27  side 2    Res =  0.6811E+02
 MRCHDU: Convergence failed at  28  side 2    Res =  0.6574E+03
 MRCHDU: Convergence failed at  29  side 2    Res =  0.9685E+02
 MRCHDU: Convergence failed at  30  side 2    Res =  0.7687E+02
 MRCHDU: Convergence failed at  31  side 2    Res =  0.5782E+02
 MRCHDU: Convergence failed at  32  side 2    Res =  0.5167E+02
 MRCHDU: Convergence failed at  33  side 2    Res =  0.6107E+02
 MRCHDU: Convergence failed at  34  side 2    Res =  0.4308E+02
 MRCHDU: Convergence failed at  35  side 2    Res =  0.3645E+02
 MRCHDU: Convergence failed at  36  side 2    Res =  0.3467E+02
 MRCHDU: Convergence failed at  37  side 2    Res =  0.5102E+02
 MRCHDU: Convergence failed at  38  side 2    Res =  0.4686E+02
 MRCHDU: Convergence failed at  39  side 2    Res =  0.7088E+02
 MRCHDU: Convergence failed at  40  side 2    Res =  0.1247E+03
 MRCHDU: Convergence failed at  41  side 2    Res =  0.6374E+02
 MRCHDU: Convergence failed at  42  side 2    Res =  0.1103E+03
 MRCHDU: Convergence failed at  43  side 2    Res =  0.2550E+03
 MRCHDU: Convergence failed at  44  side 2    Res =  0.2585E+03
 MRCHDU: Convergence failed at  45  side 2    Res =  0.2287E+04
 MRCHDU: Convergence failed at  46  side 2    Res =  0.2548E+03
 MRCHDU: Convergence failed at  47  side 2    Res =  0.1495E+03
 MRCHDU: Convergence failed at  48  side 2    Res =  0.5541E+03
 MRCHDU: Convergence failed at  49  side 2    Res =  0.1804E+03
 MRCHDU: Convergence failed at  50  side 2    Res =  0.3616E+03
 MRCHDU: Convergence failed at  51  side 2    Res =  0.4939E+03
 MRCHDU: Convergence failed at  52  side 2    Res =  0.6398E+03
 MRCHDU: Convergence failed at  53  side 2    Res =  0.1189E+04
 MRCHDU: Convergence failed at  54  side 2    Res =  0.4533E+03
 MRCHDU: Convergence failed at  55  side 2    Res =  0.1529E+04
 MRCHDU: Convergence failed at  56  side 2    Res =  0.8763E+03
 MRCHDU: Convergence failed at  57  side 2    Res =  0.6237E+03
 MRCHDU: Convergence failed at  58  side 2    Res =  0.4844E+03
 MRCHDU: Convergence failed at  59  side 2    Res =  0.4006E+03
 MRCHDU: Convergence failed at  60  side 2    Res =  0.1517E+03
 MRCHDU: Convergence failed at  61  side 2    Res =  0.2761E+03
 MRCHDU: Convergence failed at  62  side 2    Res =  0.2511E+03
 MRCHDU: Convergence failed at  63  side 2    Res =  0.2314E+03
 MRCHDU: Convergence failed at  64  side 2    Res =  0.2152E+03
 MRCHDU: Convergence failed at  65  side 2    Res =  0.2019E+03
 MRCHDU: Convergence failed at  66  side 2    Res =  0.1979E+03
 MRCHDU: Convergence failed at  67  side 2    Res =  0.1937E+03
 MRCHDU: Convergence failed at  68  side 2    Res =  0.1748E+03
 MRCHDU: Convergence failed at  69  side 2    Res =  0.1698E+03
 MRCHDU: Convergence failed at  70  side 2    Res =  0.1659E+03
 MRCHDU: Convergence failed at  71  side 2    Res =  0.1629E+03
 MRCHDU: Convergence failed at  72  side 2    Res =  0.1602E+03
 MRCHDU: Convergence failed at  73  side 2    Res =  0.1547E+03
 MRCHDU: Convergence failed at  74  side 2    Res =  0.1556E+03
 MRCHDU: Convergence failed at  75  side 2    Res =  0.1574E+03
 MRCHDU: Convergence failed at  76  side 2    Res =  0.1587E+03
 MRCHDU: Convergence failed at  77  side 2    Res =  0.1594E+03
 MRCHDU: Convergence failed at  78  side 2    Res =  0.1435E+03
 MRCHDU: Convergence failed at  79  side 2    Res =  0.1611E+03
 MRCHDU: Convergence failed at  80  side 2    Res =  0.1862E+03
 MRCHDU: Convergence failed at  81  side 2    Res =  0.2158E+03
 MRCHDU: Convergence failed at  82  side 2    Res =  0.3443E+03
 MRCHDU: Convergence failed at  83  side 2    Res =  0.5507E+03
 MRCHDU: Convergence failed at  84  side 2    Res =  0.1181E+04
 MRCHDU: Convergence failed at  85  side 2    Res =  0.1573E+04
 MRCHDU: Convergence failed at  86  side 2    Res =  0.1092E+04
 Side 1  free  transition at x/c =  0.8914   67
 Side 2  free  transition at x/c =  0.0852   24

  51   rms: 0.1100E+01   max: -.5543E+01   T at   67  1   RLX: 0.090
       a = -3.500      CL = -0.8617
      Cm =  0.1860     CD =  0.01710   =>   CDf =  0.00218    CDp =  0.01492

 Side 1  free  transition at x/c =  0.9009   68
 Side 2  free  transition at x/c =  0.0873   24

  52   rms: 0.1840E+01   max: -.2622E+02   T at   25  2   RLX: 0.019
       a = -3.500      CL = -0.6413
      Cm =  0.1111     CD =  0.09770   =>   CDf =  0.00263    CDp =  0.09506

 Side 1  free  transition at x/c =  0.9034   68
 Side 2  free  transition at x/c =  0.0760   24

  53   rms: 0.4644E+01   max: 0.6982E+02   T at   25  2   RLX: 0.021
       a = -3.500      CL = -0.6237
      Cm =  0.1007     CD =  0.09793   =>   CDf =  0.00265    CDp =  0.09528

 Side 1  free  transition at x/c =  0.9053   68
 Side 2  free  transition at x/c =  0.0690   23

  54   rms: 0.1019E+01   max: -.1292E+02   T at   68  1   RLX: 0.039
       a = -3.500      CL = -0.6901
      Cm =  0.1166     CD =  0.09111   =>   CDf =  0.00264    CDp =  0.08847

 Side 1  free  transition at x/c =  0.9168   69
 Side 2  free  transition at x/c =  0.0660   23

  55   rms: 0.2653E+01   max: 0.5040E+02   T at   23  2   RLX: 0.030
       a = -3.500      CL = -0.6872
      Cm =  0.1097     CD =  0.09630   =>   CDf =  0.00270    CDp =  0.09360

 Side 1  free  transition at x/c =  0.9190   69
 Side 2  free  transition at x/c =  0.0596   22

  56   rms: 0.1163E+01   max: 0.1238E+02   T at   22  2   RLX: 0.052
       a = -3.500      CL = -0.7279
      Cm =  0.1204     CD =  0.09982   =>   CDf =  0.00270    CDp =  0.09711

 Side 1  free  transition at x/c =  0.9270   69
 Side 2  free  transition at x/c =  0.0507   22
 idif Ue xi dudx           1  0.15091993      2.26330757E-03   66.681137    
 Uenew xinew           2  1.61921345E-02  2.42829323E-04

  57   rms: 0.7117E+01   max: 0.8295E+02   T at   22  2   RLX: 0.018
       a = -3.500      CL = -0.7929
      Cm =  0.1327     CD =  0.11196   =>   CDf =  0.00279    CDp =  0.10917

 Side 1  free  transition at x/c =  0.9240   68
 Side 2  free  transition at x/c =  0.0487   22

  58   rms: 0.1817E+01   max: -.1652E+02   T at   68  1   RLX: 0.030
       a = -3.500      CL = -0.8603
      Cm =  0.1462     CD =  0.09973   =>   CDf =  0.00271    CDp =  0.09702

 Side 1  free  transition at x/c =  0.9374   69
 Side 2  free  transition at x/c =  0.0478   22

  59   rms: 0.7550E+00   max: -.6274E+01   T at   69  1   RLX: 0.080
       a = -3.500      CL = -0.7644
      Cm =  0.1168     CD =  0.09877   =>   CDf =  0.00276    CDp =  0.09602

 Side 1  free  transition at x/c =  0.9515   71
 Side 2  free  transition at x/c =  0.0478   21

  60   rms: 0.5838E+00   max: -.2189E+01   T at   71  1   RLX: 0.228
       a = -3.500      CL = -0.5811
      Cm =  0.0673     CD =  0.09396   =>   CDf =  0.00287    CDp =  0.09109

 Side 1  free  transition at x/c =  0.9682   73
 Side 2  free  transition at x/c =  0.0410   21

  61   rms: 0.5979E+00   max: 0.6171E+01   T at   21  2   RLX: 0.243
       a = -3.500      CL = -0.5126
      Cm =  0.0434     CD =  0.10254   =>   CDf =  0.00298    CDp =  0.09955

 Side 1  free  transition at x/c =  0.9706   73
 Side 2  free  transition at x/c =  0.0379   20

  62   rms: 0.4376E+00   max: -.1303E+01   T at   83  2   RLX: 0.384
       a = -3.500      CL = -0.3863
      Cm =  0.0104     CD =  0.08267   =>   CDf =  0.00300    CDp =  0.07967

 MRCHDU: Convergence failed at 101  side 2    Res =  0.2243E+01
 MRCHDU: Convergence failed at 102  side 2    Res =  0.1088E+01
 MRCHDU: Convergence failed at 103  side 2    Res =  0.1571E+01
 Side 1  free  transition at x/c =  0.9756   73
 Side 2  free  transition at x/c =  0.0339   20

  63   rms: 0.4383E+00   max: 0.2137E+01   T at   73  1   RLX: 0.364
       a = -3.500      CL = -0.2403
      Cm = -0.0231     CD =  0.09210   =>   CDf =  0.00304    CDp =  0.08906

 Side 1  free  transition at x/c =  0.9599   72
 Side 2  free  transition at x/c =  0.0358   20

  64   rms: 0.3387E+00   max: -.1007E+01   C at  102  2   RLX: 0.497
       a = -3.500      CL = -0.0925
      Cm = -0.0620     CD =  0.07779   =>   CDf =  0.00300    CDp =  0.07478

 Side 1  free  transition at x/c =  0.9540   71
 Side 2  free  transition at x/c =  0.0372   20

  65   rms: 0.3323E+00   max: -.1717E+01   T at   71  1   RLX: 0.291
       a = -3.500      CL = -0.0395
      Cm = -0.0833     CD =  0.07122   =>   CDf =  0.00297    CDp =  0.06826

 Side 1  free  transition at x/c =  0.9640   72
 Side 2  free  transition at x/c =  0.0375   20

  66   rms: 0.2645E+00   max: 0.1368E+01   T at   72  1   RLX: 0.564
       a = -3.500      CL = -0.0166
      Cm = -0.0931     CD =  0.07603   =>   CDf =  0.00301    CDp =  0.07302

 Side 1  free  transition at x/c =  0.9499   71
 Side 2  free  transition at x/c =  0.0350   20

  67   rms: 0.3252E+00   max: 0.3605E+01   T at   71  1   RLX: 0.324
       a = -3.500      CL = -0.0746
      Cm = -0.0832     CD =  0.07848   =>   CDf =  0.00290    CDp =  0.07559

 Side 1  free  transition at x/c =  0.9298   70
 Side 2  free  transition at x/c =  0.0305   20

  68   rms: 0.2039E+00   max: 0.8876E+00   T at   70  1   RLX: 0.591
       a = -3.500      CL = -0.0788
      Cm = -0.0859     CD =  0.06750   =>   CDf =  0.00276    CDp =  0.06474

 Side 1  free  transition at x/c =  0.9229   69
 Side 2  free  transition at x/c =  0.0302   20
 idif Ue xi dudx           1  0.15062721      2.32458115E-03   64.797569    
 Uenew xinew           2  1.97051279E-02  3.04102898E-04

  69   rms: 0.6303E+01   max: 0.6672E+02   T at   69  1   RLX: 0.015
       a = -3.500      CL = -0.1355
      Cm = -0.0780     CD =  0.07802   =>   CDf =  0.00275    CDp =  0.07527

 MRCHDU: Convergence failed at  64  side 2    Res =  0.1637E+00
 MRCHDU: Convergence failed at  66  side 2    Res =  0.2501E+00
 MRCHDU: Convergence failed at  68  side 2    Res =  0.1152E+01
 MRCHDU: Convergence failed at  69  side 2    Res =  0.2013E+00
 MRCHDU: Convergence failed at  70  side 2    Res =  0.1982E+01
 MRCHDU: Convergence failed at  71  side 2    Res =  0.2760E+01
 MRCHDU: Convergence failed at  72  side 2    Res =  0.3720E+01
 MRCHDU: Convergence failed at  73  side 2    Res =  0.4838E+01
 MRCHDU: Convergence failed at  74  side 2    Res =  0.5500E+01
 MRCHDU: Convergence failed at  75  side 2    Res =  0.7461E+01
 MRCHDU: Convergence failed at  76  side 2    Res =  0.9603E+01
 MRCHDU: Convergence failed at  77  side 2    Res =  0.1230E+02
 MRCHDU: Convergence failed at  78  side 2    Res =  0.1561E+02
 MRCHDU: Convergence failed at  79  side 2    Res =  0.1930E+02
 MRCHDU: Convergence failed at  80  side 2    Res =  0.2293E+02
 MRCHDU: Convergence failed at  81  side 2    Res =  0.3524E+02
 MRCHDU: Convergence failed at  82  side 2    Res =  0.3640E+02
 MRCHDU: Convergence failed at  83  side 2    Res =  0.6221E+01
 MRCHDU: Convergence failed at  84  side 2    Res =  0.1850E+01
 MRCHDU: Convergence failed at  85  side 2    Res =  0.1508E+01
 MRCHDU: Convergence failed at  86  side 2    Res =  0.2022E+01
 MRCHDU: Convergence failed at  87  side 2    Res =  0.1419E+01
 Side 1  free  transition at x/c =  0.9059   67
 Side 2  free  transition at x/c =  0.0281   20

  70   rms: 0.2720E+00   max: -.7797E+00   D at  102  2   RLX: 0.641
       a = -3.500      CL = -0.1763
      Cm = -0.0646     CD =  0.08002   =>   CDf =  0.00265    CDp =  0.07737

 Side 1  free  transition at x/c =  0.9036   67
 Side 2  free  transition at x/c =  0.0282   20

  71   rms: 0.1852E+00   max: -.6226E+00   D at  102  2   RLX: 0.803
       a = -3.500      CL =  0.0447
      Cm = -0.1121     CD =  0.05446   =>   CDf =  0.00313    CDp =  0.05132

 Side 1  free  transition at x/c =  0.9075   68
 Side 2  free  transition at x/c =  0.0280   19

  72   rms: 0.4979E+00   max: 0.1915E+01   D at   26  2   RLX: 0.483
       a = -3.500      CL =  0.1616
      Cm = -0.1430     CD =  0.02804   =>   CDf =  0.00627    CDp =  0.02177

 Side 1  free  transition at x/c =  0.9195   69
 Side 2  free  transition at x/c =  0.0281   19

  73   rms: 0.3380E+00   max: 0.1003E+01   D at   38  2
       a = -3.500      CL =  0.1667
      Cm = -0.1480     CD =  0.04057   =>   CDf =  0.00462    CDp =  0.03595

 TRCHEK2: N2 convergence failed.
 x:  0.06019  0.07132  0.07242  N:  8.687  9.000  9.050  Nx:  43.105   dN: 0.214E+00
 TRCHEK2: N2 convergence failed.
 x:  0.06019  0.07037  0.07242  N:  8.687  9.000  9.040  Nx:  45.104   dN:-0.157E+00
 TRCHEK2: N2 convergence failed.
 x:  0.06019  0.07038  0.07242  N:  8.687  9.000  9.040  Nx:  44.377   dN:-0.159E+00
 TRCHEK2: N2 convergence failed.
 x:  0.06019  0.07038  0.07242  N:  8.687  9.000  9.040  Nx:  44.695   dN:-0.172E+00
 TRCHEK2: N2 convergence failed.
 x:  0.06019  0.07038  0.07242  N:  8.687  9.000  9.040  Nx:  45.196   dN:-0.195E+00
 TRCHEK2: N2 convergence failed.
 x:  0.06019  0.07038  0.07242  N:  8.687  9.000  9.040  Nx:  44.282   dN:-0.215E+00
 TRCHEK2: N2 convergence failed.
 x:  0.06019  0.07038  0.07242  N:  8.687  9.000  9.040  Nx:  44.700   dN:-0.221E+00
 TRCHEK2: N2 convergence failed.
 x:  0.06019  0.07038  0.07242  N:  8.687  9.000  9.040  Nx:  43.955   dN:-0.307E+00
 TRCHEK2: N2 convergence failed.
 x:  0.06019  0.07039  0.07242  N:  8.687  9.000  9.040  Nx:  44.269   dN:-0.285E+00
 TRCHEK2: N2 convergence failed.
 x:  0.06019  0.07039  0.07242  N:  8.687  9.000  9.040  Nx:  43.728   dN:-0.519E+00
 TRCHEK2: N2 convergence failed.
 x:  0.06019  0.07039  0.07242  N:  8.687  9.000  9.040  Nx:  43.952   dN:-0.427E+00
 TRCHEK2: N2 convergence failed.
 x:  0.06019  0.07039  0.07242  N:  8.687  9.000  9.040  Nx:  43.829   dN:-0.355E+00
 TRCHEK2: N2 convergence failed.
 x:  0.06019  0.07038  0.07242  N:  8.687  9.000  9.040  Nx:  44.119   dN:-0.297E+00
 TRCHEK2: N2 convergence failed.
 x:  0.06019  0.07039  0.07242  N:  8.687  9.000  9.040  Nx:  43.933   dN:-0.272E+00
 TRCHEK2: N2 convergence failed.
 x:  0.06019  0.07038  0.07242  N:  8.687  9.000  9.040  Nx:  44.276   dN:-0.235E+00
 TRCHEK2: N2 convergence failed.
 x:  0.06019  0.07038  0.07242  N:  8.687  9.000  9.040  Nx:  44.075   dN:-0.211E+00
 TRCHEK2: N2 convergence failed.
 x:  0.06019  0.07038  0.07242  N:  8.687  9.000  9.040  Nx:  44.429   dN:-0.197E+00
 TRCHEK2: N2 convergence failed.
 x:  0.06019  0.07038  0.07242  N:  8.687  9.000  9.040  Nx:  44.993   dN:-0.199E+00
 TRCHEK2: N2 convergence failed.
 x:  0.06019  0.07038  0.07242  N:  8.687  9.000  9.040  Nx:  44.096   dN:-0.255E+00
 MRCHDU: Convergence failed at  22  side 2    Res =  0.6532E+02
 MRCHDU: Convergence failed at  23  side 2    Res =  0.1683E+02
 MRCHDU: Convergence failed at  24  side 2    Res =  0.1096E+02
 MRCHDU: Convergence failed at  25  side 2    Res =  0.2172E+03
 MRCHDU: Convergence failed at  26  side 2    Res =  0.7938E+02
 MRCHDU: Convergence failed at  27  side 2    Res =  0.4879E+02
 MRCHDU: Convergence failed at  28  side 2    Res =  0.3807E+02
 MRCHDU: Convergence failed at  29  side 2    Res =  0.3385E+02
 MRCHDU: Convergence failed at  30  side 2    Res =  0.3325E+02
 MRCHDU: Convergence failed at  31  side 2    Res =  0.3471E+02
 MRCHDU: Convergence failed at  32  side 2    Res =  0.4384E+02
 MRCHDU: Convergence failed at  33  side 2    Res =  0.3775E+02
 MRCHDU: Convergence failed at  34  side 2    Res =  0.7812E+02
 MRCHDU: Convergence failed at  35  side 2    Res =  0.5851E+02
 MRCHDU: Convergence failed at  36  side 2    Res =  0.1011E+03
 MRCHDU: Convergence failed at  37  side 2    Res =  0.1531E+03
 MRCHDU: Convergence failed at  38  side 2    Res =  0.7990E+02
 MRCHDU: Convergence failed at  39  side 2    Res =  0.1395E+03
 MRCHDU: Convergence failed at  40  side 2    Res =  0.1219E+03
 MRCHDU: Convergence failed at  41  side 2    Res =  0.1179E+03
 MRCHDU: Convergence failed at  42  side 2    Res =  0.1150E+03
 MRCHDU: Convergence failed at  43  side 2    Res =  0.1129E+03
 MRCHDU: Convergence failed at  44  side 2    Res =  0.1112E+03
 MRCHDU: Convergence failed at  45  side 2    Res =  0.1129E+03
 MRCHDU: Convergence failed at  46  side 2    Res =  0.1165E+03
 MRCHDU: Convergence failed at  47  side 2    Res =  0.1204E+03
 MRCHDU: Convergence failed at  48  side 2    Res =  0.1134E+03
 MRCHDU: Convergence failed at  49  side 2    Res =  0.1194E+03
 MRCHDU: Convergence failed at  50  side 2    Res =  0.1260E+03
 MRCHDU: Convergence failed at  51  side 2    Res =  0.1333E+03
 MRCHDU: Convergence failed at  52  side 2    Res =  0.1432E+03
 MRCHDU: Convergence failed at  53  side 2    Res =  0.1521E+03
 MRCHDU: Convergence failed at  54  side 2    Res =  0.1588E+03
 MRCHDU: Convergence failed at  55  side 2    Res =  0.1658E+03
 MRCHDU: Convergence failed at  56  side 2    Res =  0.1692E+03
 MRCHDU: Convergence failed at  57  side 2    Res =  0.1682E+03
 MRCHDU: Convergence failed at  58  side 2    Res =  0.1675E+03
 MRCHDU: Convergence failed at  59  side 2    Res =  0.1669E+03
 MRCHDU: Convergence failed at  60  side 2    Res =  0.1664E+03
 MRCHDU: Convergence failed at  61  side 2    Res =  0.3055E+03
 MRCHDU: Convergence failed at  62  side 2    Res =  0.3376E+03
 MRCHDU: Convergence failed at  63  side 2    Res =  0.3653E+03
 MRCHDU: Convergence failed at  64  side 2    Res =  0.3923E+03
 MRCHDU: Convergence failed at  65  side 2    Res =  0.4181E+03
 MRCHDU: Convergence failed at  66  side 2    Res =  0.4434E+03
 MRCHDU: Convergence failed at  67  side 2    Res =  0.4670E+03
 MRCHDU: Convergence failed at  68  side 2    Res =  0.4741E+03
 MRCHDU: Convergence failed at  69  side 2    Res =  0.4637E+03
 MRCHDU: Convergence failed at  70  side 2    Res =  0.4527E+03
 MRCHDU: Convergence failed at  71  side 2    Res =  0.4408E+03
 MRCHDU: Convergence failed at  72  side 2    Res =  0.4284E+03
 MRCHDU: Convergence failed at  73  side 2    Res =  0.4175E+03
 MRCHDU: Convergence failed at  74  side 2    Res =  0.4084E+03
 MRCHDU: Convergence failed at  75  side 2    Res =  0.4029E+03
 MRCHDU: Convergence failed at  76  side 2    Res =  0.4000E+03
 MRCHDU: Convergence failed at  77  side 2    Res =  0.4020E+03
 MRCHDU: Convergence failed at  78  side 2    Res =  0.4097E+03
 MRCHDU: Convergence failed at  79  side 2    Res =  0.4259E+03
 MRCHDU: Convergence failed at  80  side 2    Res =  0.4543E+03
 MRCHDU: Convergence failed at  81  side 2    Res =  0.1120E+04
 MRCHDU: Convergence failed at  82  side 2    Res =  0.6055E+03
 MRCHDU: Convergence failed at  83  side 2    Res =  0.4698E+03
 MRCHDU: Convergence failed at  84  side 2    Res =  0.2271E+03
 MRCHDU: Convergence failed at  85  side 2    Res =  0.1742E+03
 MRCHDU: Convergence failed at  86  side 2    Res =  0.1665E+03
 Side 1  free  transition at x/c =  0.9145   69
 Side 2  free  transition at x/c =  0.0549   22

  74   rms: 0.4012E+01   max: 0.7206E+02   T at   22  2   RLX: 0.017
       a = -3.500      CL = -1.1300
      Cm =  0.2539     CD =  0.01314   =>   CDf =  0.00233    CDp =  0.01081

 Side 1  free  transition at x/c =  0.9152   69
 Side 2  free  transition at x/c =  0.0524   22

  75   rms: 0.3712E+01   max: 0.4919E+02   T at   22  2   RLX: 0.030
       a = -3.500      CL = -0.6724
      Cm =  0.0994     CD =  0.08228   =>   CDf =  0.00276    CDp =  0.07952

 Side 1  free  transition at x/c =  0.9156   69
 Side 2  free  transition at x/c =  0.0479   21

  76   rms: 0.2109E+01   max: 0.4040E+02   T at   21  2   RLX: 0.028
       a = -3.500      CL = -0.8513
      Cm =  0.1421     CD =  0.08581   =>   CDf =  0.00274    CDp =  0.08308

 Side 1  free  transition at x/c =  0.9177   69
 Side 2  free  transition at x/c =  0.0461   21

  77   rms: 0.1573E+01   max: -.2895E+02   T at   21  2   RLX: 0.017
       a = -3.500      CL = -0.8744
[...]

  57   rms: 0.8342E+01   max: 0.8488E+02   C at   73  2   RLX: 0.018
       a = 10.000      CL =  1.2904
      Cm = -0.2402     CD = 80.33212   =>   CDf =  0.00222    CDp = 80.32990

 Side 1  free  transition at x/c =  0.0380   22
 Side 2 forced transition at x/c =  1.0000   73

  58   rms: 0.1080E+03   max: -.6672E+03   C at   93  2   RLX: 0.001
       a = 10.000      CL =  1.2844
      Cm = -0.2389     CD =109.98416   =>   CDf =  0.00221    CDp =109.98195

 Side 1  free  transition at x/c =  0.0382   22
 Side 2 forced transition at x/c =  1.0000   73

  59   rms: 0.4541E+03   max: 0.2733E+04   C at   90  2   RLX: 0.001
       a = 10.000      CL =  1.2905
      Cm = -0.2401     CD =101.56312   =>   CDf =  0.00220    CDp =101.56092

 Side 1  free  transition at x/c =  0.0380   22
 Side 2 forced transition at x/c =  1.0000   73

  60   rms: 0.1627E+02   max: -.9256E+02   C at   89  2   RLX: 0.005
       a = 10.000      CL =  1.2731
      Cm = -0.2363     CD =121.81949   =>   CDf =  0.00222    CDp =121.81728

 Side 1  free  transition at x/c =  0.0387   22
 Side 2 forced transition at x/c =  1.0000   73

  61   rms: 0.3514E+02   max: -.2072E+03   C at   92  2   RLX: 0.002
       a = 10.000      CL =  1.2708
      Cm = -0.2358     CD = 71.09938   =>   CDf =  0.00217    CDp = 71.09721

 Side 1  free  transition at x/c =  0.0387   22
 Side 2 forced transition at x/c =  1.0000   73

  62   rms: 0.1982E+03   max: 0.1181E+04   C at   90  2   RLX: 0.001
       a = 10.000      CL =  1.2747
      Cm = -0.2365     CD = 86.23835   =>   CDf =  0.00217    CDp = 86.23618

 Side 1  free  transition at x/c =  0.0387   22
 Side 2 forced transition at x/c =  1.0000   73

  63   rms: 0.1120E+02   max: 0.2188E+03   T at   92  2   RLX: 0.007
       a = 10.000      CL =  1.2668
      Cm = -0.2343     CD =140.05463   =>   CDf =  0.00218    CDp =140.05244

 Side 1  free  transition at x/c =  0.0388   22
 Side 2 forced transition at x/c =  1.0000   73

  64   rms: 0.1497E+02   max: 0.9976E+02   C at   90  2   RLX: 0.015
       a = 10.000      CL =  1.2555
      Cm = -0.2307     CD =143.62828   =>   CDf =  0.00216    CDp =143.62611

 Side 1  free  transition at x/c =  0.0390   22
 Side 2 forced transition at x/c =  1.0000   73

  65   rms: 0.8647E+01   max: 0.9123E+02   C at   73  2   RLX: 0.008
       a = 10.000      CL =  1.2603
      Cm = -0.2312     CD =172.14844   =>   CDf =  0.00214    CDp =172.14630

 Side 1  free  transition at x/c =  0.0389   22
 Side 2 forced transition at x/c =  1.0000   73

  66   rms: 0.7130E+02   max: -.4221E+03   C at   95  2   RLX: 0.001
       a = 10.000      CL =  1.2643
      Cm = -0.2319     CD =142.25972   =>   CDf =  0.00216    CDp =142.25757

 Side 1  free  transition at x/c =  0.0388   22
 Side 2 forced transition at x/c =  1.0000   73

  67   rms: 0.5714E+02   max: 0.3393E+03   C at   95  2   RLX: 0.004
       a = 10.000      CL =  1.2397
      Cm = -0.2266     CD =108.01970   =>   CDf =  0.00185    CDp =108.01785

 Side 1  free  transition at x/c =  0.0392   23
 Side 2 forced transition at x/c =  1.0000   72

  68   rms: 0.7475E+04   max: -.1300E+06   T at    2  1   RLX: 0.000
       a = 10.000      CL =  1.2446
      Cm = -0.2280     CD =141.59856   =>   CDf =  0.00209    CDp =141.59647

 Side 1  free  transition at x/c =  0.0392   23
 Side 2 forced transition at x/c =  1.0000   72
 idif Ue xi dudx           1  8.38445351E-02  2.73418427E-03   30.665283    
 Uenew xinew           2  1.24289945E-04  4.05311584E-06

  69   rms: 0.3957E+02   max: -.2003E+03   C at   81  1   RLX: 0.002
       a = 10.000      CL =  1.2549
      Cm = -0.2299     CD =181.23538   =>   CDf =  0.00247    CDp =181.23291

 Side 1  free  transition at x/c =  0.0391   22
 Side 2 forced transition at x/c =  1.0000   73

  70   rms: 0.1502E+02   max: -.9084E+02   C at   81  1   RLX: 0.006
       a = 10.000      CL =  1.2587
      Cm = -0.2305     CD =146.17699   =>   CDf =  0.00214    CDp =146.17485

 Side 1  free  transition at x/c =  0.0390   22
 Side 2 forced transition at x/c =  1.0000   73

  71   rms: 0.3606E+03   max: -.2019E+04   C at   95  2   RLX: 0.000
       a = 10.000      CL =  1.2631
      Cm = -0.2313     CD =142.30066   =>   CDf =  0.00215    CDp =142.29851

 Side 1  free  transition at x/c =  0.0389   22
 Side 2 forced transition at x/c =  1.0000   73

  72   rms: 0.4280E+03   max: 0.2423E+04   C at   95  2   RLX: 0.001
       a = 10.000      CL =  1.2509
      Cm = -0.2288     CD =125.41103   =>   CDf =  0.00184    CDp =125.40919

 Side 1  free  transition at x/c =  0.0392   23
 Side 2 forced transition at x/c =  1.0000   72

  73   rms: 0.2080E+03   max: -.1193E+04   D at    2  1   RLX: 0.000
       a = 10.000      CL =  1.2578
      Cm = -0.2303     CD =145.45552   =>   CDf =  0.00211    CDp =145.45341

 Side 1  free  transition at x/c =  0.0391   23
 Side 2 forced transition at x/c =  1.0000   72

  74   rms: 0.7501E+02   max: -.3930E+03   C at   94  2   RLX: 0.001
       a = 10.000      CL =  1.2617
      Cm = -0.2310     CD =142.09535   =>   CDf =  0.00212    CDp =142.09323

 Side 1  free  transition at x/c =  0.0390   23
 Side 2 forced transition at x/c =  1.0000   72

  75   rms: 0.3682E+03   max: 0.2078E+04   C at   94  2   RLX: 0.001
       a = 10.000      CL =  1.2478
      Cm = -0.2282     CD =124.27805   =>   CDf =  0.00213    CDp =124.27592

 Side 1  free  transition at x/c =  0.0392   23
 Side 2 forced transition at x/c =  1.0000   72

  76   rms: 0.4195E+02   max: 0.2121E+03   C at   94  2   RLX: 0.007
       a = 10.000      CL =  1.2085
      Cm = -0.2196     CD = 93.05727   =>   CDf =  0.00210    CDp = 93.05518

 MRCHDU: Convergence failed at  24  side 1    Res =  0.3592E+01
 MRCHDU: Convergence failed at  25  side 1    Res =  0.1673E+01
 MRCHDU: Convergence failed at  26  side 1    Res =  0.4465E+01
 MRCHDU: Convergence failed at  27  side 1    Res =  0.1695E+02
 MRCHDU: Convergence failed at  28  side 1    Res =  0.4049E+01
 MRCHDU: Convergence failed at  29  side 1    Res =  0.3519E+01
 MRCHDU: Convergence failed at  30  side 1    Res =  0.7541E+01
 MRCHDU: Convergence failed at  31  side 1    Res =  0.6334E+02
 MRCHDU: Convergence failed at  32  side 1    Res =  0.7050E+01
 MRCHDU: Convergence failed at  33  side 1    Res =  0.3963E+01
 MRCHDU: Convergence failed at  34  side 1    Res =  0.4512E+01
 MRCHDU: Convergence failed at  35  side 1    Res =  0.7549E+01
 MRCHDU: Convergence failed at  36  side 1    Res =  0.3237E+02
 MRCHDU: Convergence failed at  37  side 1    Res =  0.1432E+02
 MRCHDU: Convergence failed at  38  side 1    Res =  0.6004E+01
 MRCHDU: Convergence failed at  39  side 1    Res =  0.3969E+01
 MRCHDU: Convergence failed at  40  side 1    Res =  0.5073E+01
 MRCHDU: Convergence failed at  41  side 1    Res =  0.7667E+01
 MRCHDU: Convergence failed at  42  side 1    Res =  0.1842E+02
 MRCHDU: Convergence failed at  43  side 1    Res =  0.3813E+02
 MRCHDU: Convergence failed at  44  side 1    Res =  0.9844E+01
 MRCHDU: Convergence failed at  45  side 1    Res =  0.5355E+01
 MRCHDU: Convergence failed at  46  side 1    Res =  0.4401E+01
 MRCHDU: Convergence failed at  47  side 1    Res =  0.5713E+01
 MRCHDU: Convergence failed at  48  side 1    Res =  0.8022E+01
 MRCHDU: Convergence failed at  49  side 1    Res =  0.1437E+02
 MRCHDU: Convergence failed at  50  side 1    Res =  0.1751E+03
 MRCHDU: Convergence failed at  51  side 1    Res =  0.9960E+01
 MRCHDU: Convergence failed at  52  side 1    Res =  0.5115E+01
 MRCHDU: Convergence failed at  53  side 1    Res =  0.4665E+01
 MRCHDU: Convergence failed at  54  side 1    Res =  0.6022E+01
 MRCHDU: Convergence failed at  55  side 1    Res =  0.1223E+02
 MRCHDU: Convergence failed at  56  side 1    Res =  0.1151E+03
 MRCHDU: Convergence failed at  57  side 1    Res =  0.1167E+02
 MRCHDU: Convergence failed at  58  side 1    Res =  0.5754E+01
 MRCHDU: Convergence failed at  59  side 1    Res =  0.4552E+01
 MRCHDU: Convergence failed at  60  side 1    Res =  0.5888E+01
 MRCHDU: Convergence failed at  61  side 1    Res =  0.7835E+01
 MRCHDU: Convergence failed at  62  side 1    Res =  0.1353E+02
 MRCHDU: Convergence failed at  63  side 1    Res =  0.2366E+02
 MRCHDU: Convergence failed at  64  side 1    Res =  0.1819E+02
 MRCHDU: Convergence failed at  65  side 1    Res =  0.4975E+02
 MRCHDU: Convergence failed at  78  side 1    Res =  0.1111E+04
 MRCHDU: Convergence failed at  79  side 1    Res =  0.6713E+03
 MRCHDU: Convergence failed at  90  side 1    Res =  0.3034E+06
 Side 1  free  transition at x/c =  0.6675   66
 Side 2 forced transition at x/c =  1.0000   72

  77   rms: 0.3399E+02   max: 0.5523E+03   T at   91  2   RLX: 0.003
       a = 10.000      CL =  2.4780
      Cm = -0.5842     CD =418.36783   =>   CDf =  0.00511    CDp =418.36273

 Side 1  free  transition at x/c =  0.6346   64
 Side 2 forced transition at x/c =  1.0000   72

  78   rms: 0.4471E+03   max: 0.5872E+04   C at   64  1   RLX: 0.000
       a = 10.000      CL =  2.5083
      Cm = -0.5922     CD =307.42355   =>   CDf =  0.00525    CDp =307.41830

 Side 1  free  transition at x/c =  0.0382   23
 Side 2 forced transition at x/c =  1.0000   72

  79   rms: 0.2055E+03   max: -.4415E+04   C at   23  1   RLX: 0.000
       a = 10.000      CL =  2.5100
      Cm = -0.5963     CD =261.91159   =>   CDf =  0.01109    CDp =261.90051

 Side 1  free  transition at x/c =  0.0393   24
 Side 2 forced transition at x/c =  1.0000   72

  80   rms: 0.5405E+02   max: 0.1012E+04   C at   24  1   RLX: 0.001
       a = 10.000      CL =  2.4880
      Cm = -0.5897     CD =234.26094   =>   CDf =  0.01113    CDp =234.24982

 Side 1  free  transition at x/c =  0.0290   22
 Side 2 forced transition at x/c =  1.0000   72

  81   rms: 0.1560E+03   max: 0.2052E+04   C at   72  2   RLX: 0.001
       a = 10.000      CL =  2.5279
      Cm = -0.6026     CD =348.59506   =>   CDf =  0.01110    CDp =348.58395

 Side 1  free  transition at x/c =  0.0315   23
 Side 2 forced transition at x/c =  1.0000   72

  82   rms: 0.3730E+01   max: 0.4009E+02   C at   23  1   RLX: 0.037
       a = 10.000      CL =  2.4655
      Cm = -0.5769     CD =257.51627   =>   CDf =  0.01139    CDp =257.50488

 Side 1  free  transition at x/c =  0.0216   22
 Side 2 forced transition at x/c =  1.0000   72

  83   rms: 0.2315E+03   max: 0.3924E+04   C at   72  2   RLX: 0.000
       a = 10.000      CL =  2.4969
      Cm = -0.5907     CD =644.43579   =>   CDf =  0.01109    CDp =644.42468

 Side 1  free  transition at x/c =  0.0223   22
 Side 2 forced transition at x/c =  1.0000   72

  84   rms: 0.7370E+02   max: -.9294E+03   C at   72  2   RLX: 0.001
       a = 10.000      CL =  2.4683
      Cm = -0.5818     CD =540.55133   =>   CDf =  0.01123    CDp =540.54010

 Side 1  free  transition at x/c =  0.0215   22
 Side 2 forced transition at x/c =  1.0000   72

  85   rms: 0.2699E+03   max: 0.4421E+04   C at   72  2   RLX: 0.000
       a = 10.000      CL =  2.5018
      Cm = -0.5921     CD =627.08252   =>   CDf =  0.01115    CDp =627.07135

 Side 1  free  transition at x/c =  0.0222   22
 Side 2 forced transition at x/c =  1.0000   72
 idif Ue xi dudx           1  9.88172740E-02  2.75969505E-03   35.807316    
 Uenew xinew           2  1.05860399E-03  2.95639038E-05

  86   rms: 0.6441E+02   max: 0.8206E+03   C at   72  2   RLX: 0.002
       a = 10.000      CL =  2.5756
      Cm = -0.6150     CD =673.69904   =>   CDf =  0.01171    CDp =673.68732

 Side 1  free  transition at x/c =  0.0244   21
 Side 2 forced transition at x/c =  1.0000   73

  87   rms: 0.2601E+03   max: -.4008E+04   T at    2  2   RLX: 0.000
       a = 10.000      CL =  2.5810
      Cm = -0.6169     CD =619.10315   =>   CDf =  0.01168    CDp =619.09149

 Side 1  free  transition at x/c =  0.0247   21
 Side 2 forced transition at x/c =  1.0000   73

  88   rms: 0.3750E+02   max: 0.1958E+03   C at   73  2   RLX: 0.003
       a = 10.000      CL =  2.6130
      Cm = -0.6268     CD =678.53229   =>   CDf =  0.01173    CDp =678.52057

 Side 1  free  transition at x/c =  0.0268   21
 Side 2 forced transition at x/c =  1.0000   73

  89   rms: 0.5722E+02   max: 0.2915E+03   C at   89  1   RLX: 0.004
       a = 10.000      CL =  2.5550
      Cm = -0.6075     CD =430.19281   =>   CDf =  0.01157    CDp =430.18124

 Side 1  free  transition at x/c =  0.0234   22
 Side 2 forced transition at x/c =  1.0000   72

  90   rms: 0.1839E+03   max: -.1346E+04   T at    2  1   RLX: 0.000
       a = 10.000      CL =  2.5843
      Cm = -0.6166     CD =671.23242   =>   CDf =  0.01156    CDp =671.22089

 Side 1  free  transition at x/c =  0.0247   22
 Side 2 forced transition at x/c =  1.0000   72
 idif Ue xi dudx           1  0.11752127      2.74562836E-03   42.803051    
 Uenew xinew           2  6.63327752E-04  1.54972076E-05

  91   rms: 0.2892E+03   max: -.1449E+04   C at   86  1   RLX: 0.000
       a = 10.000      CL =  2.6196
      Cm = -0.6279     CD =671.49902   =>   CDf =  0.01218    CDp =671.48682

 Side 1  free  transition at x/c =  0.0268   21
 Side 2 forced transition at x/c =  1.0000   73

  92   rms: 0.2660E+02   max: -.3046E+03   T at    2  2   RLX: 0.002
       a = 10.000      CL =  2.6225
      Cm = -0.6286     CD =609.81226   =>   CDf =  0.01205    CDp =609.80023

 Side 1  free  transition at x/c =  0.0271   21
 Side 2 forced transition at x/c =  1.0000   73

  93   rms: 0.3464E+03   max: -.1810E+04   C at   89  1   RLX: 0.000
       a = 10.000      CL =  2.6411
      Cm = -0.6346     CD =613.57703   =>   CDf =  0.01208    CDp =613.56494

 Side 1  free  transition at x/c =  0.0286   21
 Side 2 forced transition at x/c =  1.0000   73

  94   rms: 0.1579E+03   max: 0.8443E+03   C at   75  2   RLX: 0.002
       a = 10.000      CL =  2.5952
      Cm = -0.6194     CD =501.12311   =>   CDf =  0.01182    CDp =501.11130

 Side 1  free  transition at x/c =  0.0259   22
 Side 2 forced transition at x/c =  1.0000   72

  95   rms: 0.1390E+02   max: -.6891E+02   C at   84  1   RLX: 0.007
       a = 10.000      CL =  2.6063
      Cm = -0.6215     CD =699.97839   =>   CDf =  0.01187    CDp =699.96649

 Side 1  free  transition at x/c =  0.0269   22
 Side 2 forced transition at x/c =  1.0000   72

  96   rms: 0.1785E+02   max: 0.9306E+02   C at   90  1   RLX: 0.016
       a = 10.000      CL =  2.5082
      Cm = -0.5875     CD =352.59705   =>   CDf =  0.01201    CDp =352.58502

 Side 1  free  transition at x/c =  0.0222   22
 Side 2 forced transition at x/c =  1.0000   72

  97   rms: 0.4122E+02   max: 0.3742E+03   C at   72  2   RLX: 0.002
       a = 10.000      CL =  2.5493
      Cm = -0.5998     CD =322.06592   =>   CDf =  0.01142    CDp =322.05450

 Side 1  free  transition at x/c =  0.0234   22
 Side 2 forced transition at x/c =  1.0000   72

  98   rms: 0.1166E+02   max: -.7405E+02   C at   85  1   RLX: 0.007
       a = 10.000      CL =  2.5617
      Cm = -0.6030     CD =286.11697   =>   CDf =  0.01164    CDp =286.10535

 Side 1  free  transition at x/c =  0.0241   22
 Side 2 forced transition at x/c =  1.0000   72

  99   rms: 0.6095E+01   max: -.3662E+02   C at   84  1   RLX: 0.014
       a = 10.000      CL =  2.5461
      Cm = -0.5962     CD =257.22897   =>   CDf =  0.01176    CDp =257.21722

 Side 1  free  transition at x/c =  0.0237   22
 Side 2 forced transition at x/c =  1.0000   72

 100   rms: 0.6553E+02   max: -.3561E+03   C at   78  2   RLX: 0.001
       a = 10.000      CL =  2.5553
      Cm = -0.5989     CD =203.25615   =>   CDf =  0.01173    CDp =203.24442

 Side 1  free  transition at x/c =  0.0242   22
 Side 2 forced transition at x/c =  1.0000   72

 101   rms: 0.1712E+03   max: -.9441E+03   C at   74  2   RLX: 0.001
       a = 10.000      CL =  2.5634
      Cm = -0.6014     CD =200.24419   =>   CDf =  0.01181    CDp =200.23238

 Side 1  free  transition at x/c =  0.0247   22
 Side 2 forced transition at x/c =  1.0000   72

 102   rms: 0.5340E+02   max: -.2953E+03   C at   84  2   RLX: 0.002
       a = 10.000      CL =  2.5667
      Cm = -0.6023     CD =197.75032   =>   CDf =  0.01187    CDp =197.73845

 Side 1  free  transition at x/c =  0.0249   22
 Side 2 forced transition at x/c =  1.0000   72

 103   rms: 0.6179E+02   max: -.3346E+03   C at   87  2   RLX: 0.001
       a = 10.000      CL =  2.5699
      Cm = -0.6031     CD =197.65318   =>   CDf =  0.01191    CDp =197.64127

 Side 1  free  transition at x/c =  0.0251   22
 Side 2 forced transition at x/c =  1.0000   72

 104   rms: 0.8782E+02   max: -.4872E+03   C at   87  2   RLX: 0.001
       a = 10.000      CL =  2.5722
      Cm = -0.6037     CD =196.57375   =>   CDf =  0.01195    CDp =196.56180

 Side 1  free  transition at x/c =  0.0253   22
 Side 2 forced transition at x/c =  1.0000   72

 105   rms: 0.1095E+03   max: 0.5914E+03   C at   87  2   RLX: 0.003
       a = 10.000      CL =  2.5519
      Cm = -0.5968     CD =183.33615   =>   CDf =  0.01198    CDp =183.32417

 Side 1  free  transition at x/c =  0.0243   22
 Side 2 forced transition at x/c =  1.0000   72

 106   rms: 0.6300E+02   max: 0.3407E+03   C at   74  2   RLX: 0.004
       a = 10.000      CL =  2.5202
      Cm = -0.5862     CD =182.08553   =>   CDf =  0.01183    CDp =182.07370

 Side 1  free  transition at x/c =  0.0228   22
 Side 2 forced transition at x/c =  1.0000   72

 107   rms: 0.1353E+02   max: -.7491E+02   C at   85  1   RLX: 0.007
       a = 10.000      CL =  2.5167
      Cm = -0.5842     CD =209.29512   =>   CDf =  0.01164    CDp =209.28348

 Side 1  free  transition at x/c =  0.0229   22
 Side 2 forced transition at x/c =  1.0000   72

 108   rms: 0.1006E+03   max: 0.5492E+03   C at   74  2   RLX: 0.003
       a = 10.000      CL =  2.4835
      Cm = -0.5734     CD =173.79330   =>   CDf =  0.01166    CDp =173.78165

 Side 1  free  transition at x/c =  0.0217   22
 Side 2 forced transition at x/c =  1.0000   72

 109   rms: 0.1557E+02   max: -.9352E+02   C at   85  2   RLX: 0.005
       a = 10.000      CL =  2.4783
      Cm = -0.5713     CD =192.13368   =>   CDf =  0.01155    CDp =192.12213

 Side 1  free  transition at x/c =  0.0216   22
 Side 2 forced transition at x/c =  1.0000   72

 110   rms: 0.6837E+02   max: 0.3746E+03   C at   74  2   RLX: 0.004
       a = 10.000      CL =  2.4329
      Cm = -0.5569     CD =170.14058   =>   CDf =  0.01156    CDp =170.12901

 Side 1  free  transition at x/c =  0.0206   22
 Side 2 forced transition at x/c =  1.0000   72

 111   rms: 0.4786E+02   max: -.2699E+03   C at   72  2   RLX: 0.002
       a = 10.000      CL =  2.4025
      Cm = -0.5481     CD =167.81979   =>   CDf =  0.01195    CDp =167.80785

 Side 1  free  transition at x/c =  0.0204   21
 Side 2 forced transition at x/c =  1.0000   72

 112   rms: 0.4092E+03   max: -.3641E+04   T at   22  1   RLX: 0.000
       a = 10.000      CL =  2.4061
      Cm = -0.5484     CD =186.29274   =>   CDf =  0.01204    CDp =186.28070

 Side 1  free  transition at x/c =  0.0201   21
 Side 2 forced transition at x/c =  1.0000   72

 113   rms: 0.2918E+03   max: 0.2264E+04   T at   22  1   RLX: 0.000
       a = 10.000      CL =  2.4106
      Cm = -0.5509     CD =189.93661   =>   CDf =  0.01142    CDp =189.92519

 Side 1  free  transition at x/c =  0.0212   22
 Side 2 forced transition at x/c =  1.0000   72

 114   rms: 0.6587E+02   max: 0.4558E+03   C at   72  2   RLX: 0.002
       a = 10.000      CL =  2.4389
      Cm = -0.5574     CD =214.81860   =>   CDf =  0.01110    CDp =214.80751

 Side 1  free  transition at x/c =  0.0216   22
 Side 2 forced transition at x/c =  1.0000   72

 115   rms: 0.8566E+02   max: 0.4439E+03   C at   74  2   RLX: 0.002
       a = 10.000      CL =  2.4091
      Cm = -0.5481     CD =166.68880   =>   CDf =  0.01119    CDp =166.67761

 Side 1  free  transition at x/c =  0.0210   22
 Side 2 forced transition at x/c =  1.0000   72

 116   rms: 0.7708E+02   max: -.5574E+03   C at   72  2   RLX: 0.001
       a = 10.000      CL =  2.3867
      Cm = -0.5414     CD =167.63647   =>   CDf =  0.01115    CDp =167.62532


[TIMEOUT]
