  
       XFOIL         Version 6.99
  
 Calculated polar for: GOE 802 B AIRFOIL                               
  
 1 1 Reynolds number fixed          Mach number fixed         
  
 xtrf =   1.000 (top)        1.000 (bottom)  
 Mach =   0.000     Re =     0.300 e 6     Ncrit =   9.000
  
   alpha    CL        CD       CDp       CM     Top_Xtr  Bot_Xtr
  ------ -------- --------- --------- -------- -------- --------
  -4.000   0.2203   0.03885   0.03494  -0.1149   0.8566   0.0405
  -3.500   0.2696   0.03494   0.03081  -0.1163   0.8394   0.0429
  -3.000   0.3277   0.03143   0.02688  -0.1178   0.8221   0.0465
  -2.500   0.3796   0.02820   0.02341  -0.1187   0.8046   0.0494
  -2.000   0.4364   0.02558   0.02039  -0.1193   0.7862   0.0530
  -1.500   0.4951   0.02578   0.02000  -0.1188   0.7648   0.0582
  -1.000   0.5462   0.02127   0.01545  -0.1199   0.7423   0.0612
  -0.500   0.6026   0.02031   0.01405  -0.1196   0.7182   0.0648
   0.000   0.6567   0.01835   0.01182  -0.1197   0.6918   0.0680
   1.000   0.7657   0.01638   0.00916  -0.1190   0.6371   0.0724
   1.500   0.8196   0.01639   0.00886  -0.1184   0.6104   0.0752
   2.500   0.9251   0.01448   0.00648  -0.1175   0.5612   0.0616
   3.000   0.9770   0.01442   0.00627  -0.1170   0.5386   0.0688
   3.500   1.0285   0.01447   0.00626  -0.1163   0.5128   0.0866
