  
       XFOIL         Version 6.99
  
 Calculated polar for: Griffith 30% Suction Airfoil                    
  
 1 1 Reynolds number fixed          Mach number fixed         
  
 xtrf =   1.000 (top)        1.000 (bottom)  
 Mach =   0.000     Re =     0.200 e 6     Ncrit =   9.000
  
   alpha    CL        CD       CDp       CM     Top_Xtr  Bot_Xtr
  ------ -------- --------- --------- -------- -------- --------
  -3.500  -0.2855   0.09737   0.09138  -0.0023   0.7833   0.6757
  -3.000  -0.2571   0.09861   0.09259   0.0001   0.7803   0.6886
  -2.500  -0.1824   0.10133   0.09529  -0.0046   0.7784   0.6949
  -2.000  -0.1522   0.10369   0.09769  -0.0023   0.7765   0.7073
  -1.500  -0.1025   0.10549   0.09950  -0.0030   0.7709   0.7212
  -0.500  -0.0355   0.10834   0.10237  -0.0004   0.7615   0.7501
   0.000  -0.0000   0.10889   0.10296   0.0000   0.7559   0.7560
   0.500   0.0356   0.10833   0.10236   0.0004   0.7501   0.7615
   1.000   0.0586   0.10816   0.10220   0.0029   0.7404   0.7674
   1.500   0.1027   0.10548   0.09949   0.0030   0.7212   0.7709
   2.000   0.1519   0.10366   0.09765   0.0023   0.7073   0.7766
   2.500   0.2082   0.10076   0.09470   0.0008   0.7016   0.7784
   3.000   0.2570   0.09860   0.09258  -0.0000   0.6886   0.7803
   4.000   0.2952   0.09604   0.09003   0.0079   0.6662   0.7860
   4.500   0.3597   0.09332   0.08737   0.0050   0.6581   0.7873
   5.000   0.4295   0.09013   0.08422   0.0018   0.6551   0.7894
   5.500   0.4099   0.08973   0.08382   0.0123   0.6395   0.7929
   6.000   0.4733   0.08679   0.08097   0.0097   0.6335   0.7937
   6.500   0.5145   0.08483   0.07910   0.0106   0.6207   0.7954
   7.000   0.5300   0.08249   0.07675   0.0169   0.6174   0.7995
