
 ===================================================
  XFOIL Version 6.99
  Copyright (C) 2000   Mark Drela, Harold Youngren

  This software comes with ABSOLUTELY NO WARRANTY,
    subject to the GNU General Public License.

  Caveat computor
 ===================================================

 File  xfoil.def  not found

   QUIT    Exit program

  .OPER    Direct operating point(s)
  .MDES    Complex mapping design routine
  .QDES    Surface speed design routine
  .GDES    Geometry design routine

   SAVE f  Write airfoil to labeled coordinate file
   PSAV f  Write airfoil to plain coordinate file
   ISAV f  Write airfoil to ISES coordinate file
   MSAV f  Write airfoil to MSES coordinate file
   REVE    Reverse written-airfoil node ordering

   LOAD f  Read buffer airfoil from coordinate file
   NACA i  Set NACA 4,5-digit airfoil and buffer airfoil
   INTE    Set buffer airfoil by interpolating two airfoils
   NORM    Buffer airfoil normalization toggle
   XYCM rr Change CM reference location, currently  0.25000 0.00000

   BEND    Display structural properties of current airfoil

   PCOP    Set current-airfoil panel nodes directly from buffer airfoil points
   PANE    Set current-airfoil panel nodes ( 160 ) based on curvature
  .PPAR    Show/change paneling

  .PLOP    Plotting options

   WDEF f  Write  current-settings file
   RDEF f  Reread current-settings file
   NAME s  Specify new airfoil name
   NINC    Increment name version number

   Z       Zoom    | (available in all menus)
   U       Unzoom  | 

 XFOIL   c>  
 Labeled airfoil file.  Name:   UNIVERSITY OF GLASGOW GU25-5(11)8 AIRFOIL      

 Number of input coordinate points:  47
 Counterclockwise ordering
 Max thickness =     0.199898  at x =   0.400
 Max camber    =     0.070357  at x =   0.450

  LE  x,y  =  -0.00011   0.00169  |   Chord =   1.00011
  TE  x,y  =   1.00000   0.00000  |

 Current airfoil nodes set from buffer airfoil nodes (  47 )

 WARNING: Poor input coordinate distribution
          Excessive panel angle   45.3  at i =  24
          Repaneling with PANE and/or PPAR suggested
           (doing GDES,CADD before repaneling _may_
            improve excessively coarse LE spacing

 XFOIL   c>  
 XFOIL   c>  
 Sharp trailing edge

 Paneling parameters used...
   Number of panel nodes       160
   Panel bunching parameter    1.000
   TE/LE panel density ratio   0.150
   Refined-area/LE panel density ratio    0.200
   Top    side refined area x/c limits  1.000 1.000
   Bottom side refined area x/c limits  1.000 1.000

 XFOIL   c>  
.OPERi   c>  
 Xtr/c     =  1.0000    top    side
 Xtr/c     =  1.0000    bottom side
 Ncrit     =    9.00   ( 0.070 % turb. level )
 Vacc      =  0.0100

 Klag  =  5.6000     Uxwt  =    1.00
 A     =  6.7000     B     =  0.7500       KCt = 0.01485
 CtiniK=  1.8000     CtiniX=  3.3000

..VPAR   c>  
..VPAR   c>  
.OPERi   c>  
 M  =    0.0000
 Re =    400000

.OPERv   c>  
.OPERv   c>  
.OPERv   c>  
 Polar  1 newly created for accumulation
 Airfoil archived with polar: UNIVERSITY OF GLASGOW GU25-5(11)8 AIRFOIL       

Enter  polar save filename  OR  <return> for no file   s>  
 New polar save file available

Enter  polar dump filename  OR  <return> for no file   s>  
 Polar dump file will NOT be written

 Polar accumulation enabled

.OPERva   c>   Calculating unit vorticity distributions ...
 Calculating wake trajectory ...
 Calculating source influence matrix ...

 Solving BL system ...

 Initializing BL ...
    side            1  ...
 MRCHUE: Inverse mode at  46     Hk =   3.905
 MRCHUE: Inverse mode at  47     Hk =   4.733
 MRCHUE: Inverse mode at  48     Hk =   5.558
 MRCHUE: Inverse mode at  49     Hk =   6.377
 MRCHUE: Inverse mode at  50     Hk =   7.189
 MRCHUE: Inverse mode at  51     Hk =   7.995
 MRCHUE: Inverse mode at  52     Hk =   8.798
 MRCHUE: Inverse mode at  53     Hk =   9.600
 MRCHUE: Inverse mode at  54     Hk =   7.844
 MRCHUE: Inverse mode at  55     Hk =   5.058
 MRCHUE: Inverse mode at  56     Hk =   3.422
 MRCHUE: Inverse mode at  57     Hk =   2.500
 MRCHUE: Inverse mode at  75     Hk =   2.500
 MRCHUE: Inverse mode at  76     Hk =   2.500
 MRCHUE: Convergence failed at  77  side 1    Res =  0.6115E+01
    side            2  ...
 MRCHUE: Inverse mode at  20     Hk =   4.015
 MRCHUE: Inverse mode at  21     Hk =   4.958
 MRCHUE: Inverse mode at  22     Hk =   5.913
 MRCHUE: Convergence failed at  23  side 2    Res =  0.6407E+01
 MRCHUE: Inverse mode at  24     Hk =   6.992
 MRCHUE: Inverse mode at  25     Hk =   8.115
 MRCHUE: Inverse mode at  26     Hk =   9.300
 MRCHUE: Inverse mode at  27     Hk =   3.498
 MRCHUE: Inverse mode at  84     Hk =   2.500
 MRCHUE: Convergence failed at  85  side 2    Res =  0.4564E+01

 MRCHDU: Convergence failed at  77  side 1    Res =  0.5379E+01
 MRCHDU: Convergence failed at  27  side 2    Res =  0.1187E+02
 MRCHDU: Convergence failed at  28  side 2    Res =  0.2384E+02
 MRCHDU: Convergence failed at  29  side 2    Res =  0.6243E+02
 MRCHDU: Convergence failed at  30  side 2    Res =  0.5861E+02
 MRCHDU: Convergence failed at  31  side 2    Res =  0.7504E+02
 MRCHDU: Convergence failed at  32  side 2    Res =  0.2411E+03
 MRCHDU: Convergence failed at  33  side 2    Res =  0.1441E+03
 MRCHDU: Convergence failed at  34  side 2    Res =  0.5587E+02
 MRCHDU: Convergence failed at  35  side 2    Res =  0.3395E+02
 MRCHDU: Convergence failed at  36  side 2    Res =  0.2457E+02
 MRCHDU: Convergence failed at  37  side 2    Res =  0.2022E+02
 MRCHDU: Convergence failed at  38  side 2    Res =  0.1572E+02
 MRCHDU: Convergence failed at  39  side 2    Res =  0.1683E+02
 MRCHDU: Convergence failed at  40  side 2    Res =  0.1757E+02
 MRCHDU: Convergence failed at  41  side 2    Res =  0.1819E+02
 MRCHDU: Convergence failed at  42  side 2    Res =  0.1887E+02
 MRCHDU: Convergence failed at  43  side 2    Res =  0.3327E+02
 MRCHDU: Convergence failed at  44  side 2    Res =  0.3467E+02
 MRCHDU: Convergence failed at  45  side 2    Res =  0.3608E+02
 MRCHDU: Convergence failed at  46  side 2    Res =  0.3755E+02
 MRCHDU: Convergence failed at  47  side 2    Res =  0.3877E+02
 MRCHDU: Convergence failed at  48  side 2    Res =  0.4009E+02
 MRCHDU: Convergence failed at  49  side 2    Res =  0.3658E+02
 MRCHDU: Convergence failed at  50  side 2    Res =  0.3279E+02
 MRCHDU: Convergence failed at  51  side 2    Res =  0.2931E+02
 MRCHDU: Convergence failed at  52  side 2    Res =  0.2607E+02
 MRCHDU: Convergence failed at  53  side 2    Res =  0.5084E+02
 MRCHDU: Convergence failed at  54  side 2    Res =  0.5409E+02
 MRCHDU: Convergence failed at  55  side 2    Res =  0.5739E+02
 MRCHDU: Convergence failed at  56  side 2    Res =  0.3468E+02
 MRCHDU: Convergence failed at  57  side 2    Res =  0.3698E+02
 MRCHDU: Convergence failed at  58  side 2    Res =  0.3960E+02
 MRCHDU: Convergence failed at  59  side 2    Res =  0.4257E+02
 MRCHDU: Convergence failed at  60  side 2    Res =  0.4585E+02
 MRCHDU: Convergence failed at  61  side 2    Res =  0.4930E+02
 MRCHDU: Convergence failed at  62  side 2    Res =  0.5333E+02
 MRCHDU: Convergence failed at  63  side 2    Res =  0.5772E+02
 MRCHDU: Convergence failed at  64  side 2    Res =  0.5990E+02
 MRCHDU: Convergence failed at  65  side 2    Res =  0.6355E+02
 MRCHDU: Convergence failed at  66  side 2    Res =  0.6017E+02
 MRCHDU: Convergence failed at  67  side 2    Res =  0.6321E+02
 MRCHDU: Convergence failed at  68  side 2    Res =  0.5904E+02
 MRCHDU: Convergence failed at  69  side 2    Res =  0.6286E+02
 MRCHDU: Convergence failed at  70  side 2    Res =  0.6099E+02
 MRCHDU: Convergence failed at  71  side 2    Res =  0.6731E+02
 MRCHDU: Convergence failed at  72  side 2    Res =  0.7428E+02
 MRCHDU: Convergence failed at  73  side 2    Res =  0.8439E+02
 MRCHDU: Convergence failed at  74  side 2    Res =  0.9659E+02
 MRCHDU: Convergence failed at  75  side 2    Res =  0.1052E+03
 MRCHDU: Convergence failed at  76  side 2    Res =  0.1160E+03
 MRCHDU: Convergence failed at  77  side 2    Res =  0.1351E+03
 MRCHDU: Convergence failed at  78  side 2    Res =  0.2047E+03
 MRCHDU: Convergence failed at  79  side 2    Res =  0.1139E+04
 MRCHDU: Convergence failed at  80  side 2    Res =  0.2546E+03
 MRCHDU: Convergence failed at  81  side 2    Res =  0.4070E+02
 MRCHDU: Convergence failed at  82  side 2    Res =  0.4746E+02
 MRCHDU: Convergence failed at  83  side 2    Res =  0.6360E+02
 MRCHDU: Convergence failed at  84  side 2    Res =  0.9800E+02
 MRCHDU: Convergence failed at  85  side 2    Res =  0.8194E+02
 Side 1  free  transition at x/c =  0.6501   54
 Side 2  free  transition at x/c =  0.0507   27

   1   rms: 0.1032E+01   max: 0.2022E+01   D at   87  2   RLX: 0.410
       a = -4.000      CL = -0.2968
      Cm =  0.0552     CD =  0.00661   =>   CDf =  0.00362    CDp =  0.00299

 Side 1  free  transition at x/c =  0.6437   55
 Side 2  free  transition at x/c =  0.0497   26

   2   rms: 0.4786E+00   max: 0.2003E+01   T at   26  2   RLX: 0.431
       a = -4.000      CL =  0.1334
      Cm = -0.0884     CD =  0.01640   =>   CDf =  0.00740    CDp =  0.00900

 MRCHDU: Convergence failed at  26  side 2    Res =  0.5893E+01
 MRCHDU: Convergence failed at  27  side 2    Res =  0.1529E+02
 MRCHDU: Convergence failed at  28  side 2    Res =  0.1423E+02
 MRCHDU: Convergence failed at  29  side 2    Res =  0.3108E+02
 MRCHDU: Convergence failed at  30  side 2    Res =  0.4846E+01
 MRCHDU: Convergence failed at  31  side 2    Res =  0.5672E+01
 MRCHDU: Convergence failed at  32  side 2    Res =  0.6744E+01
 MRCHDU: Convergence failed at  33  side 2    Res =  0.1081E+02
 MRCHDU: Convergence failed at  34  side 2    Res =  0.6051E+02
 MRCHDU: Convergence failed at  35  side 2    Res =  0.4082E+01
 MRCHDU: Convergence failed at  36  side 2    Res =  0.1621E+04
 MRCHDU: Convergence failed at  37  side 2    Res =  0.7073E+01
 MRCHDU: Convergence failed at  38  side 2    Res =  0.1413E+02
 MRCHDU: Convergence failed at  39  side 2    Res =  0.4498E+02
 MRCHDU: Convergence failed at  40  side 2    Res =  0.3151E+01
 MRCHDU: Convergence failed at  41  side 2    Res =  0.2566E+01
 MRCHDU: Convergence failed at  42  side 2    Res =  0.2678E+01
 MRCHDU: Convergence failed at  43  side 2    Res =  0.8056E+01
 MRCHDU: Convergence failed at  44  side 2    Res =  0.6599E+02
 MRCHDU: Convergence failed at  45  side 2    Res =  0.2880E+02
 MRCHDU: Convergence failed at  46  side 2    Res =  0.1335E+02
 MRCHDU: Convergence failed at  47  side 2    Res =  0.8896E+01
 MRCHDU: Convergence failed at  48  side 2    Res =  0.2999E+02
 MRCHDU: Convergence failed at  49  side 2    Res =  0.1236E+03
 MRCHDU: Convergence failed at  50  side 2    Res =  0.1165E+03
 MRCHDU: Convergence failed at  51  side 2    Res =  0.1122E+03
 MRCHDU: Convergence failed at  52  side 2    Res =  0.9997E+01
 MRCHDU: Convergence failed at  53  side 2    Res =  0.1170E+02
 MRCHDU: Convergence failed at  54  side 2    Res =  0.1965E+02
 MRCHDU: Convergence failed at  55  side 2    Res =  0.2731E+02
 MRCHDU: Convergence failed at  56  side 2    Res =  0.3702E+02
 MRCHDU: Convergence failed at  57  side 2    Res =  0.5037E+02
 MRCHDU: Convergence failed at  58  side 2    Res =  0.1814E+02
 MRCHDU: Convergence failed at  59  side 2    Res =  0.4118E+02
 MRCHDU: Convergence failed at  60  side 2    Res =  0.1082E+03
 MRCHDU: Convergence failed at  61  side 2    Res =  0.1667E+03
 MRCHDU: Convergence failed at  62  side 2    Res =  0.5236E+02
 MRCHDU: Convergence failed at  63  side 2    Res =  0.2494E+02
 MRCHDU: Convergence failed at  64  side 2    Res =  0.2855E+02
 MRCHDU: Convergence failed at  65  side 2    Res =  0.5810E+02
 MRCHDU: Convergence failed at  66  side 2    Res =  0.7393E+01
 MRCHDU: Convergence failed at  67  side 2    Res =  0.4777E+02
 MRCHDU: Convergence failed at  68  side 2    Res =  0.4035E+02
 MRCHDU: Convergence failed at  69  side 2    Res =  0.3465E+02
 MRCHDU: Convergence failed at  70  side 2    Res =  0.3072E+02
 MRCHDU: Convergence failed at  71  side 2    Res =  0.1131E+02
 MRCHDU: Convergence failed at  72  side 2    Res =  0.1256E+02
 MRCHDU: Convergence failed at  73  side 2    Res =  0.1357E+02
 MRCHDU: Convergence failed at  74  side 2    Res =  0.1508E+02
 MRCHDU: Convergence failed at  75  side 2    Res =  0.1729E+02
 MRCHDU: Convergence failed at  76  side 2    Res =  0.1970E+02
 MRCHDU: Convergence failed at  77  side 2    Res =  0.2390E+02
 MRCHDU: Convergence failed at  78  side 2    Res =  0.3134E+02
 MRCHDU: Convergence failed at  79  side 2    Res =  0.4561E+02
 MRCHDU: Convergence failed at  80  side 2    Res =  0.8697E+02
 MRCHDU: Convergence failed at  81  side 2    Res =  0.4988E+03
 MRCHDU: Convergence failed at  82  side 2    Res =  0.1280E+03
 MRCHDU: Convergence failed at  83  side 2    Res =  0.5407E+02
 MRCHDU: Convergence failed at  84  side 2    Res =  0.2650E+02
 Side 1  free  transition at x/c =  0.6419   54
 Side 2  free  transition at x/c =  0.0468   25

   3   rms: 0.8754E+00   max: 0.3705E+01   D at   84  2   RLX: 0.405
       a = -4.000      CL = -0.0662
      Cm =  0.0054     CD =  0.01021   =>   CDf =  0.00427    CDp =  0.00594

 MRCHDU: Convergence failed at  29  side 2    Res =  0.2227E+00
 MRCHDU: Convergence failed at  30  side 2    Res =  0.1700E+00
 MRCHDU: Convergence failed at  32  side 2    Res =  0.3008E+00
 MRCHDU: Convergence failed at  33  side 2    Res =  0.2090E+00
 MRCHDU: Convergence failed at  35  side 2    Res =  0.3294E+00
 MRCHDU: Convergence failed at  36  side 2    Res =  0.2364E+00
 MRCHDU: Convergence failed at  38  side 2    Res =  0.3479E+00
 MRCHDU: Convergence failed at  39  side 2    Res =  0.2234E+00
 MRCHDU: Convergence failed at  41  side 2    Res =  0.3536E+00
 MRCHDU: Convergence failed at  42  side 2    Res =  0.2319E+00
 Side 1  free  transition at x/c =  0.6390   55
 Side 2  free  transition at x/c =  0.0466   24

   4   rms: 0.4710E+00   max: -.2644E+01   T at   24  2   RLX: 0.189
       a = -4.000      CL =  0.3376
      Cm = -0.0968     CD =  0.03352   =>   CDf =  0.00461    CDp =  0.02891

 MRCHDU: Convergence failed at  43  side 2    Res =  0.2689E+00
 MRCHDU: Convergence failed at  44  side 2    Res =  0.1360E+01
 MRCHDU: Convergence failed at  45  side 2    Res =  0.1100E+01
 MRCHDU: Convergence failed at  46  side 2    Res =  0.1071E+01
 MRCHDU: Convergence failed at  47  side 2    Res =  0.1037E+01
 MRCHDU: Convergence failed at  48  side 2    Res =  0.1002E+01
 MRCHDU: Convergence failed at  49  side 2    Res =  0.9660E+00
 MRCHDU: Convergence failed at  50  side 2    Res =  0.9289E+00
 MRCHDU: Convergence failed at  51  side 2    Res =  0.8912E+00
 MRCHDU: Convergence failed at  52  side 2    Res =  0.8534E+00
 MRCHDU: Convergence failed at  53  side 2    Res =  0.8152E+00
 MRCHDU: Convergence failed at  54  side 2    Res =  0.7768E+00
 MRCHDU: Convergence failed at  55  side 2    Res =  0.7384E+00
 MRCHDU: Convergence failed at  56  side 2    Res =  0.6991E+00
 MRCHDU: Convergence failed at  57  side 2    Res =  0.6588E+00
 MRCHDU: Convergence failed at  58  side 2    Res =  0.6176E+00
 MRCHDU: Convergence failed at  59  side 2    Res =  0.5751E+00
 MRCHDU: Convergence failed at  60  side 2    Res =  0.5304E+00
 MRCHDU: Convergence failed at  61  side 2    Res =  0.4826E+00
 MRCHDU: Convergence failed at  62  side 2    Res =  0.4312E+00
 MRCHDU: Convergence failed at  63  side 2    Res =  0.3725E+00
 MRCHDU: Convergence failed at  64  side 2    Res =  0.3023E+00
 MRCHDU: Convergence failed at  65  side 2    Res =  0.2092E+00
 MRCHDU: Convergence failed at  66  side 2    Res =  0.5983E-01
 MRCHDU: Convergence failed at  67  side 2    Res =  0.4620E-03
 Side 1  free  transition at x/c =  0.6385   55
 Side 2  free  transition at x/c =  0.0529   25

   5   rms: 0.8819E+00   max: -.5357E+01   D at   66  2   RLX: 0.093
       a = -4.000      CL =  0.6161
      Cm = -0.1683     CD =  0.02398   =>   CDf =  0.00484    CDp =  0.01914

 MRCHDU: Convergence failed at  66  side 2    Res =  0.9580E+00
 MRCHDU: Convergence failed at  67  side 2    Res =  0.1599E+01
 MRCHDU: Convergence failed at  68  side 2    Res =  0.1155E+01
 MRCHDU: Convergence failed at  69  side 2    Res =  0.1136E+01
 MRCHDU: Convergence failed at  70  side 2    Res =  0.1114E+01
 MRCHDU: Convergence failed at  71  side 2    Res =  0.1092E+01
 MRCHDU: Convergence failed at  72  side 2    Res =  0.1070E+01
 MRCHDU: Convergence failed at  73  side 2    Res =  0.1049E+01
 MRCHDU: Convergence failed at  74  side 2    Res =  0.1027E+01
 MRCHDU: Convergence failed at  75  side 2    Res =  0.1004E+01
 MRCHDU: Convergence failed at  76  side 2    Res =  0.9816E+00
 MRCHDU: Convergence failed at  77  side 2    Res =  0.9586E+00
 MRCHDU: Convergence failed at  78  side 2    Res =  0.9367E+00
 MRCHDU: Convergence failed at  79  side 2    Res =  0.9167E+00
 MRCHDU: Convergence failed at  80  side 2    Res =  0.8979E+00
 MRCHDU: Convergence failed at  81  side 2    Res =  0.8789E+00
 MRCHDU: Convergence failed at  82  side 2    Res =  0.8581E+00
 MRCHDU: Convergence failed at  83  side 2    Res =  0.8167E+00
 Side 1  free  transition at x/c =  0.6382   55
 Side 2  free  transition at x/c =  0.0586   26
 idif Ue xi dudx           1  0.12048710      3.24964523E-03   37.077000    
 Uenew xinew           2  9.93156619E-03  2.67863274E-04

   6   rms: 0.7672E+01   max: -.3108E+02   D at   30  2   RLX: 0.016
       a = -4.000      CL =  0.7194
      Cm = -0.2497     CD =  0.03164   =>   CDf =  0.00466    CDp =  0.02698

 Side 1  free  transition at x/c =  0.6379   54
 Side 2  free  transition at x/c =  0.0602   27

   7   rms: 0.2662E+01   max: -.1937E+02   T at    2  2   RLX: 0.026
       a = -4.000      CL =  0.7703
      Cm = -0.2606     CD =  0.04037   =>   CDf =  0.00469    CDp =  0.03568

 Side 1  free  transition at x/c =  0.6379   55
 Side 2  free  transition at x/c =  0.0602   26

   8   rms: 0.4490E+01   max: 0.2325E+02   D at   30  2   RLX: 0.026
       a = -4.000      CL =  0.8091
      Cm = -0.2579     CD =  0.04548   =>   CDf =  0.00465    CDp =  0.04083

 Side 1  free  transition at x/c =  0.6380   55
 Side 2  free  transition at x/c =  0.0603   26

   9   rms: 0.3826E+02   max: 0.1861E+03   D at   30  2   RLX: 0.008
       a = -4.000      CL =  0.9372
      Cm = -0.2583     CD =  0.06091   =>   CDf =  0.00480    CDp =  0.05612

 Side 1  free  transition at x/c =  0.6384   57
 Side 2  free  transition at x/c =  0.0621   24
 idif Ue xi dudx           1  0.13670047      3.36420536E-03   40.633804    
 Uenew xinew           2  4.19920012E-02  1.03342533E-03

  10   rms: 0.2075E+01   max: -.8879E+01   D at   24  2   RLX: 0.056
       a = -4.000      CL =  0.9846
      Cm = -0.2873     CD =  0.04841   =>   CDf =  0.00495    CDp =  0.04347

 Side 1  free  transition at x/c =  0.6381   56
 Side 2  free  transition at x/c =  0.0630   25

  11   rms: 0.1939E+03   max: 0.1056E+04   D at   25  2   RLX: 0.000
       a = -4.000      CL =  1.0461
      Cm = -0.2963     CD =  0.05508   =>   CDf =  0.00490    CDp =  0.05018

 Side 1  free  transition at x/c =  0.6382   57
 Side 2  free  transition at x/c =  0.0638   24
 idif Ue xi dudx           1  0.14714989      3.74126434E-03   39.331593    
 Uenew xinew           2  5.54765947E-02  1.41048431E-03

  12   rms: 0.3364E+01   max: -.1698E+02   D at   24  2   RLX: 0.029
       a = -4.000      CL =  1.0056
      Cm = -0.2961     CD =  0.04771   =>   CDf =  0.00491    CDp =  0.04280

 Side 1  free  transition at x/c =  0.6380   56
 Side 2  free  transition at x/c =  0.0636   25

  13   rms: 0.5840E+01   max: 0.3597E+02   D at   26  2   RLX: 0.042
       a = -4.000      CL =  1.0928
      Cm = -0.2952     CD =  0.06300   =>   CDf =  0.00495    CDp =  0.05804

 Side 1  free  transition at x/c =  0.6381   58
 Side 2  free  transition at x/c =  0.0677   23

  14   rms: 0.2955E+01   max: -.4717E+02   T at    2  1   RLX: 0.011
       a = -4.000      CL =  1.1346
      Cm = -0.3071     CD =  0.06192   =>   CDf =  0.00504    CDp =  0.05688

 Side 1  free  transition at x/c =  0.6381   58
 Side 2  free  transition at x/c =  0.0665   23
 idif Ue xi dudx           1  0.19142742      3.41224670E-03   56.100113    
 Uenew xinew           2  7.28619993E-02  1.29878521E-03

  15   rms: 0.7053E+00   max: 0.5623E+01   T at   23  2   RLX: 0.149
       a = -4.000      CL =  1.0334
      Cm = -0.2877     CD =  0.05504   =>   CDf =  0.00501    CDp =  0.05003

 Side 1  free  transition at x/c =  0.6374   57
 Side 2  free  transition at x/c =  0.0574   23
 idif Ue xi dudx           1  0.11991848      2.47550011E-03   48.442123    
 Uenew xinew           2  7.01054791E-03  1.44720078E-04

  16   rms: 0.6860E+00   max: 0.4831E+01   T at   23  2   RLX: 0.139
       a = -4.000      CL =  0.9441
      Cm = -0.2692     CD =  0.05321   =>   CDf =  0.00488    CDp =  0.04832

 Side 1  free  transition at x/c =  0.6370   56
 Side 2  free  transition at x/c =  0.0539   24

  17   rms: 0.1481E+01   max: 0.1819E+02   D at    2  2   RLX: 0.054
       a = -4.000      CL =  0.8857
      Cm = -0.2598     CD =  0.05224   =>   CDf =  0.00479    CDp =  0.04745

 Side 1  free  transition at x/c =  0.6368   56
 Side 2  free  transition at x/c =  0.0527   24
 idif Ue xi dudx           1  0.16496730      4.03594971E-03   40.874470    
 Uenew xinew           2  5.79890087E-02  1.41870975E-03

  18   rms: 0.1503E+01   max: -.3842E+01   D at   24  2   RLX: 0.130
       a = -4.000      CL =  0.7721
      Cm = -0.2527     CD =  0.03973   =>   CDf =  0.00471    CDp =  0.03502

 Side 1  free  transition at x/c =  0.6362   55
 Side 2  free  transition at x/c =  0.0500   25

  19   rms: 0.1921E+01   max: -.7231E+01   D at   44  2   RLX: 0.069
       a = -4.000      CL =  0.7549
      Cm = -0.2474     CD =  0.02528   =>   CDf =  0.00558    CDp =  0.01970

 Side 1  free  transition at x/c =  0.6361   55
 Side 2  free  transition at x/c =  0.0505   25

  20   rms: 0.2652E+01   max: -.1102E+02   D at   43  2   RLX: 0.045
       a = -4.000      CL =  0.7347
      Cm = -0.2429     CD =  0.02226   =>   CDf =  0.00593    CDp =  0.01633

 Side 1  free  transition at x/c =  0.6361   55
 Side 2  free  transition at x/c =  0.0512   25
 idif Ue xi dudx           1  0.12405275      3.06475163E-03   40.477261    
 Uenew xinew           2  3.35838483E-03  8.29696655E-05

  21   rms: 0.2284E+01   max: -.9688E+01   D at   43  2   RLX: 0.052
       a = -4.000      CL =  0.7067
      Cm = -0.2376     CD =  0.02011   =>   CDf =  0.00623    CDp =  0.01387

 Side 1  free  transition at x/c =  0.6360   54
 Side 2  free  transition at x/c =  0.0514   26

  22   rms: 0.2325E+01   max: 0.2251E+02   D at    2  2   RLX: 0.046
       a = -4.000      CL =  0.6824
      Cm = -0.2330     CD =  0.01903   =>   CDf =  0.00660    CDp =  0.01242

 Side 1  free  transition at x/c =  0.6359   54
 Side 2  free  transition at x/c =  0.0511   26

  23   rms: 0.1261E+01   max: -.5497E+01   D at   31  2   RLX: 0.091
       a = -4.000      CL =  0.6400
      Cm = -0.2242     CD =  0.01767   =>   CDf =  0.00687    CDp =  0.01079

 Side 1  free  transition at x/c =  0.6358   54
 Side 2  free  transition at x/c =  0.0495   26

  24   rms: 0.6975E+00   max: -.3710E+01   D at   30  2   RLX: 0.135
       a = -4.000      CL =  0.5844
      Cm = -0.2122     CD =  0.01728   =>   CDf =  0.00720    CDp =  0.01008

 Side 1  free  transition at x/c =  0.6356   54
 Side 2  free  transition at x/c =  0.0472   25

  25   rms: 0.2802E+00   max: -.1331E+01   D at   42  2   RLX: 0.376
       a = -4.000      CL =  0.4590
      Cm = -0.1830     CD =  0.01776   =>   CDf =  0.00742    CDp =  0.01034

 Side 1  free  transition at x/c =  0.6352   54
 Side 2  free  transition at x/c =  0.0437   25
 idif Ue xi dudx           1  9.62696746E-02  3.44371796E-03   27.955156    
 Uenew xinew           2  6.76500436E-04  2.41994858E-05

  26   rms: 0.1541E+00   max: -.9737E+00   D at   43  2   RLX: 0.513
       a = -4.000      CL =  0.3588
      Cm = -0.1593     CD =  0.01835   =>   CDf =  0.00745    CDp =  0.01090

 Side 1  free  transition at x/c =  0.6348   53
 Side 2  free  transition at x/c =  0.0421   26

  27   rms: 0.8912E-01   max: -.6042E+00   D at   44  2   RLX: 0.828
       a = -4.000      CL =  0.2825
      Cm = -0.1413     CD =  0.01919   =>   CDf =  0.00772    CDp =  0.01148

 Side 1  free  transition at x/c =  0.6345   53
 Side 2  free  transition at x/c =  0.0412   25

  28   rms: 0.1816E-01   max: 0.7204E-01   D at   45  2
       a = -4.000      CL =  0.2646
      Cm = -0.1373     CD =  0.01931   =>   CDf =  0.00793    CDp =  0.01138

 Side 1  free  transition at x/c =  0.6344   53
 Side 2  free  transition at x/c =  0.0411   25

  29   rms: 0.1239E-02   max: 0.3573E-02   D at   45  2
       a = -4.000      CL =  0.2646
      Cm = -0.1373     CD =  0.01931   =>   CDf =  0.00797    CDp =  0.01134

 Side 1  free  transition at x/c =  0.6344   53
 Side 2  free  transition at x/c =  0.0410   25

  30   rms: 0.6019E-05   max: -.5688E-04   D at   44  2
       a = -4.000      CL =  0.2646
      Cm = -0.1373     CD =  0.01931   =>   CDf =  0.00797    CDp =  0.01134
 plradd ia,ip,cpol            1           0  7.29068881E-03

 Point added to stored polar  1
 Point written to save file  gu255118_Re400k.base.pol                        
 Dump file unspecified or not available
 Calculating wake trajectory ...
 Calculating source influence matrix ...

 Solving BL system ...

 Side 1  free  transition at x/c =  0.6344   53
 Side 2  free  transition at x/c =  0.0410   25

   1   rms: 0.7541E-01   max: -.2676E+00   T at   25  2
       a = -3.500      CL =  0.3108
      Cm = -0.1360     CD =  0.01885   =>   CDf =  0.00804    CDp =  0.01082

 Side 1  free  transition at x/c =  0.6333   54
 Side 2  free  transition at x/c =  0.0430   25

   2   rms: 0.2686E-01   max: 0.3089E+00   D at   25  2
       a = -3.500      CL =  0.3058
      Cm = -0.1352     CD =  0.01838   =>   CDf =  0.00798    CDp =  0.01040

 Side 1  free  transition at x/c =  0.6332   54
 Side 2  free  transition at x/c =  0.0428   25

   3   rms: 0.4305E-02   max: 0.4214E-01   D at   25  2
       a = -3.500      CL =  0.3058
      Cm = -0.1352     CD =  0.01838   =>   CDf =  0.00797    CDp =  0.01041

 Side 1  free  transition at x/c =  0.6332   54
 Side 2  free  transition at x/c =  0.0428   25

   4   rms: 0.4471E-04   max: 0.4985E-03   D at   25  2
       a = -3.500      CL =  0.3058
      Cm = -0.1352     CD =  0.01838   =>   CDf =  0.00797    CDp =  0.01041
 plradd ia,ip,cpol            2           0  7.29068881E-03

 Point added to stored polar  1
 Point written to save file  gu255118_Re400k.base.pol                        
 Dump file unspecified or not available
 Calculating wake trajectory ...
 Calculating source influence matrix ...

 Solving BL system ...

 Side 1  free  transition at x/c =  0.6332   54
 Side 2  free  transition at x/c =  0.0428   25

   1   rms: 0.8298E-01   max: -.3254E+00   T at   25  2
       a = -3.000      CL =  0.3468
      Cm = -0.1330     CD =  0.01783   =>   CDf =  0.00803    CDp =  0.00980

 Side 1  free  transition at x/c =  0.6318   55
 Side 2  free  transition at x/c =  0.0453   24

   2   rms: 0.9945E-02   max: -.7719E-01   D at    2  1
       a = -3.000      CL =  0.3473
      Cm = -0.1331     CD =  0.01799   =>   CDf =  0.00794    CDp =  0.01005

 Side 1  free  transition at x/c =  0.6319   55
 Side 2  free  transition at x/c =  0.0452   24

   3   rms: 0.4945E-03   max: 0.5711E-02   D at    4  1
       a = -3.000      CL =  0.3474
      Cm = -0.1331     CD =  0.01799   =>   CDf =  0.00796    CDp =  0.01004

 Side 1  free  transition at x/c =  0.6319   55
 Side 2  free  transition at x/c =  0.0452   24

   4   rms: 0.7981E-06   max: -.5012E-05   D at   57  1
       a = -3.000      CL =  0.3474
      Cm = -0.1331     CD =  0.01799   =>   CDf =  0.00796    CDp =  0.01004
 plradd ia,ip,cpol            3           0  7.29068881E-03

 Point added to stored polar  1
 Point written to save file  gu255118_Re400k.base.pol                        
 Dump file unspecified or not available
 Calculating wake trajectory ...
 Calculating source influence matrix ...

 Solving BL system ...

 Side 1  free  transition at x/c =  0.6319   55
 Side 2  free  transition at x/c =  0.0452   24

   1   rms: 0.7602E-01   max: -.3665E+00   T at   24  2
       a = -2.500      CL =  0.3910
      Cm = -0.1314     CD =  0.01772   =>   CDf =  0.00796    CDp =  0.00976

 Side 1  free  transition at x/c =  0.6308   55
 Side 2  free  transition at x/c =  0.0485   24

   2   rms: 0.1490E-01   max: -.1103E+00   D at   24  2
       a = -2.500      CL =  0.3910
      Cm = -0.1313     CD =  0.01783   =>   CDf =  0.00799    CDp =  0.00984

 Side 1  free  transition at x/c =  0.6307   55
 Side 2  free  transition at x/c =  0.0486   24

   3   rms: 0.2570E-03   max: 0.2806E-02   D at   24  2
       a = -2.500      CL =  0.3909
      Cm = -0.1313     CD =  0.01783   =>   CDf =  0.00799    CDp =  0.00984

 Side 1  free  transition at x/c =  0.6307   55
 Side 2  free  transition at x/c =  0.0486   24

   4   rms: 0.3167E-05   max: -.9526E-05   T at   50  2
       a = -2.500      CL =  0.3909
      Cm = -0.1313     CD =  0.01783   =>   CDf =  0.00799    CDp =  0.00984
 plradd ia,ip,cpol            4           0  9.55412071E-03

 Point added to stored polar  1
 Point written to save file  gu255118_Re400k.base.pol                        
 Dump file unspecified or not available
 Calculating wake trajectory ...
 Calculating source influence matrix ...

 Solving BL system ...

 Side 1  free  transition at x/c =  0.6307   55
 Side 2  free  transition at x/c =  0.0486   24

   1   rms: 0.7515E-01   max: -.4053E+00   T at   24  2
       a = -2.000      CL =  0.4354
      Cm = -0.1297     CD =  0.01780   =>   CDf =  0.00803    CDp =  0.00977

 Side 1  free  transition at x/c =  0.6297   56
 Side 2  free  transition at x/c =  0.0533   24

   2   rms: 0.1473E-01   max: 0.2941E+00   D at   24  2
       a = -2.000      CL =  0.4318
      Cm = -0.1290     CD =  0.01763   =>   CDf =  0.00801    CDp =  0.00962

 Side 1  free  transition at x/c =  0.6297   56
 Side 2  free  transition at x/c =  0.0537   24

   3   rms: 0.3297E-02   max: 0.4908E-01   D at   24  2
       a = -2.000      CL =  0.4319
      Cm = -0.1291     CD =  0.01764   =>   CDf =  0.00799    CDp =  0.00965

 Side 1  free  transition at x/c =  0.6297   56
 Side 2  free  transition at x/c =  0.0536   24

   4   rms: 0.3530E-04   max: 0.5551E-03   D at   24  2
       a = -2.000      CL =  0.4319
      Cm = -0.1291     CD =  0.01764   =>   CDf =  0.00799    CDp =  0.00965
 plradd ia,ip,cpol            5           0  0.47001234    

 Point added to stored polar  1
 Point written to save file  gu255118_Re400k.base.pol                        
 Dump file unspecified or not available
 Calculating wake trajectory ...
 Calculating source influence matrix ...

 Solving BL system ...

 Side 1  free  transition at x/c =  0.6297   56
 Side 2  free  transition at x/c =  0.0536   24

   1   rms: 0.7924E-01   max: -.4321E+00   T at   24  2
       a = -1.500      CL =  0.4762
      Cm = -0.1275     CD =  0.01768   =>   CDf =  0.00799    CDp =  0.00968

 Side 1  free  transition at x/c =  0.6288   56
 Side 2  free  transition at x/c =  0.0617   25

   2   rms: 0.1800E-01   max: -.1894E+00   D at   24  2
       a = -1.500      CL =  0.4749
      Cm = -0.1272     CD =  0.01767   =>   CDf =  0.00799    CDp =  0.00968

 Side 1  free  transition at x/c =  0.6288   56
 Side 2  free  transition at x/c =  0.0653   25

   3   rms: 0.5970E-03   max: -.9413E-02   D at   26  2
       a = -1.500      CL =  0.4752
      Cm = -0.1273     CD =  0.01769   =>   CDf =  0.00797    CDp =  0.00972

 Side 1  free  transition at x/c =  0.6288   56
 Side 2  free  transition at x/c =  0.0652   25

   4   rms: 0.2379E-05   max: -.2523E-04   D at   26  2
       a = -1.500      CL =  0.4752
      Cm = -0.1273     CD =  0.01769   =>   CDf =  0.00797    CDp =  0.00972
 plradd ia,ip,cpol            6           0  0.47001234    

 Point added to stored polar  1
 Point written to save file  gu255118_Re400k.base.pol                        
 Dump file unspecified or not available
 Calculating wake trajectory ...
 Calculating source influence matrix ...

 Solving BL system ...

 Side 1  free  transition at x/c =  0.6288   56
 Side 2  free  transition at x/c =  0.0652   25

   1   rms: 0.1020E+00   max: -.8887E+00   C at   25  2   RLX: 0.563
       a = -1.000      CL =  0.4999
      Cm = -0.1264     CD =  0.01774   =>   CDf =  0.00797    CDp =  0.00977

 Side 1  free  transition at x/c =  0.6283   57
 Side 2  free  transition at x/c =  0.0898   26

   2   rms: 0.3882E+00   max: -.9016E+01   C at   26  2   RLX: 0.055
       a = -1.000      CL =  0.5013
      Cm = -0.1261     CD =  0.01768   =>   CDf =  0.00789    CDp =  0.00979

 Side 1  free  transition at x/c =  0.6283   57
 Side 2  free  transition at x/c =  0.0923   26

   3   rms: 0.1049E+00   max: -.1202E+01   T at   26  2   RLX: 0.416
       a = -1.000      CL =  0.5077
      Cm = -0.1255     CD =  0.01768   =>   CDf =  0.00788    CDp =  0.00980

 Side 1  free  transition at x/c =  0.6281   57
 Side 2  free  transition at x/c =  0.1759   32

   4   rms: 0.1796E+00   max: -.3288E+01   C at   32  2   RLX: 0.152
       a = -1.000      CL =  0.5023
      Cm = -0.1258     CD =  0.01740   =>   CDf =  0.00764    CDp =  0.00976

 Side 1  free  transition at x/c =  0.6281   57
 Side 2  free  transition at x/c =  0.1904   33

   5   rms: 0.1668E+00   max: -.3061E+01   C at   33  2   RLX: 0.163
       a = -1.000      CL =  0.5032
      Cm = -0.1253     CD =  0.01735   =>   CDf =  0.00757    CDp =  0.00978

 Side 1  free  transition at x/c =  0.6280   57
 Side 2  free  transition at x/c =  0.2202   34

   6   rms: 0.7193E+00   max: -.1547E+02   C at   34  2   RLX: 0.032
       a = -1.000      CL =  0.5029
      Cm = -0.1252     CD =  0.01725   =>   CDf =  0.00741    CDp =  0.00984

 Side 1  free  transition at x/c =  0.6280   57
 Side 2  free  transition at x/c =  0.2245   35

   7   rms: 0.3980E+00   max: -.8606E+01   C at   35  2   RLX: 0.058
       a = -1.000      CL =  0.5027
      Cm = -0.1250     CD =  0.01722   =>   CDf =  0.00740    CDp =  0.00982

 Side 1  free  transition at x/c =  0.6280   57
 Side 2  free  transition at x/c =  0.2417   36

   8   rms: 0.6289E+00   max: -.1364E+02   C at   36  2   RLX: 0.037
       a = -1.000      CL =  0.5020
      Cm = -0.1248     CD =  0.01715   =>   CDf =  0.00733    CDp =  0.00982

 Side 1  free  transition at x/c =  0.6280   57
 Side 2  free  transition at x/c =  0.2464   36

   9   rms: 0.5174E+00   max: -.1120E+02   C at   36  2   RLX: 0.045
       a = -1.000      CL =  0.5017
      Cm = -0.1246     CD =  0.01715   =>   CDf =  0.00731    CDp =  0.00983

 Side 1  free  transition at x/c =  0.6280   57
 Side 2  free  transition at x/c =  0.2581   37

  10   rms: 0.3912E+00   max: -.8408E+01   C at   37  2   RLX: 0.059
       a = -1.000      CL =  0.5013
      Cm = -0.1244     CD =  0.01710   =>   CDf =  0.00727    CDp =  0.00983

 Side 1  free  transition at x/c =  0.6280   57
 Side 2  free  transition at x/c =  0.2745   37

  11   rms: 0.4879E+00   max: -.1002E+02   C at   37  2   RLX: 0.050
       a = -1.000      CL =  0.5010
      Cm = -0.1243     CD =  0.01706   =>   CDf =  0.00722    CDp =  0.00985

 Side 1  free  transition at x/c =  0.6280   57
 Side 2  free  transition at x/c =  0.2887   38

  12   rms: 0.4072E+00   max: -.8428E+01   C at   38  2   RLX: 0.059
       a = -1.000      CL =  0.5005
      Cm = -0.1241     CD =  0.01701   =>   CDf =  0.00717    CDp =  0.00984

 Side 1  free  transition at x/c =  0.6280   57
 Side 2  free  transition at x/c =  0.3042   39

  13   rms: 0.3230E+00   max: -.6711E+01   C at   39  2   RLX: 0.074
       a = -1.000      CL =  0.5000
      Cm = -0.1239     CD =  0.01696   =>   CDf =  0.00712    CDp =  0.00984

 Side 1  free  transition at x/c =  0.6279   57
 Side 2  free  transition at x/c =  0.3219   40

  14   rms: 0.2589E+00   max: -.5344E+01   C at   40  2   RLX: 0.094
       a = -1.000      CL =  0.4995
      Cm = -0.1237     CD =  0.01690   =>   CDf =  0.00706    CDp =  0.00985

 Side 1  free  transition at x/c =  0.6279   57
 Side 2  free  transition at x/c =  0.3413   41

  15   rms: 0.2187E+00   max: -.4441E+01   C at   41  2   RLX: 0.113
       a = -1.000      CL =  0.4989
      Cm = -0.1234     CD =  0.01684   =>   CDf =  0.00699    CDp =  0.00985

 Side 1  free  transition at x/c =  0.6279   57
 Side 2  free  transition at x/c =  0.3618   43

  16   rms: 0.1776E+00   max: -.3658E+01   C at   43  2   RLX: 0.137
       a = -1.000      CL =  0.4979
      Cm = -0.1231     CD =  0.01676   =>   CDf =  0.00692    CDp =  0.00984

 Side 1  free  transition at x/c =  0.6279   57
 Side 2  free  transition at x/c =  0.3763   43

  17   rms: 0.1619E+00   max: -.3214E+01   C at   43  2   RLX: 0.156
       a = -1.000      CL =  0.4975
      Cm = -0.1229     CD =  0.01673   =>   CDf =  0.00686    CDp =  0.00987

 Side 1  free  transition at x/c =  0.6279   57
 Side 2  free  transition at x/c =  0.3929   44

  18   rms: 0.1196E+00   max: -.2358E+01   C at   44  2   RLX: 0.212
       a = -1.000      CL =  0.4969
      Cm = -0.1226     CD =  0.01668   =>   CDf =  0.00680    CDp =  0.00987

 Side 1  free  transition at x/c =  0.6279   57
 Side 2  free  transition at x/c =  0.4018   45

  19   rms: 0.6980E-01   max: -.1406E+01   C at   45  2   RLX: 0.356
       a = -1.000      CL =  0.4966
      Cm = -0.1223     CD =  0.01665   =>   CDf =  0.00677    CDp =  0.00988

 Side 1  free  transition at x/c =  0.6279   57
 Side 2  free  transition at x/c =  0.4192   46

  20   rms: 0.3616E-01   max: -.7215E+00   C at   46  2   RLX: 0.693
       a = -1.000      CL =  0.4961
      Cm = -0.1219     CD =  0.01661   =>   CDf =  0.00670    CDp =  0.00990

 Side 1  free  transition at x/c =  0.6278   57
 Side 2  free  transition at x/c =  0.4301   47

  21   rms: 0.1179E-01   max: -.2373E+00   C at   47  2
       a = -1.000      CL =  0.4962
      Cm = -0.1218     CD =  0.01661   =>   CDf =  0.00667    CDp =  0.00994

 Side 1  free  transition at x/c =  0.6278   57
 Side 2  free  transition at x/c =  0.4371   47

  22   rms: 0.1756E-02   max: -.3534E-01   C at   47  2
       a = -1.000      CL =  0.4963
      Cm = -0.1218     CD =  0.01661   =>   CDf =  0.00665    CDp =  0.00997

 Side 1  free  transition at x/c =  0.6278   57
 Side 2  free  transition at x/c =  0.4384   47

  23   rms: 0.1705E-04   max: -.3397E-03   C at   47  2
       a = -1.000      CL =  0.4963
      Cm = -0.1218     CD =  0.01661   =>   CDf =  0.00664    CDp =  0.00997
 plradd ia,ip,cpol            7           0  0.47001234    

 Point added to stored polar  1
 Point written to save file  gu255118_Re400k.base.pol                        
 Dump file unspecified or not available
 Calculating wake trajectory ...
 Calculating source influence matrix ...

 Solving BL system ...

 Side 1  free  transition at x/c =  0.6278   57
 Side 2  free  transition at x/c =  0.4384   47

   1   rms: 0.6157E+00   max: -.1222E+02   C at   47  2   RLX: 0.041
       a = -0.500      CL =  0.4969
      Cm = -0.1215     CD =  0.01658   =>   CDf =  0.00665    CDp =  0.00993

 Side 1  free  transition at x/c =  0.6278   57
 Side 2  free  transition at x/c =  0.4584   48

   2   rms: 0.4631E+00   max: -.9071E+01   C at   48  2   RLX: 0.055
       a = -0.500      CL =  0.4980
      Cm = -0.1212     CD =  0.01655   =>   CDf =  0.00658    CDp =  0.00997

 Side 1  free  transition at x/c =  0.6277   57
 Side 2  free  transition at x/c =  0.4858   50

   3   rms: 0.3472E+00   max: -.6745E+01   C at   50  2   RLX: 0.074
       a = -0.500      CL =  0.4990
      Cm = -0.1207     CD =  0.01650   =>   CDf =  0.00649    CDp =  0.01001

 Side 1  free  transition at x/c =  0.6277   57
 Side 2  free  transition at x/c =  0.5099   51

   4   rms: 0.1689E+00   max: -.2979E+01   C at   51  2   RLX: 0.168
       a = -0.500      CL =  0.5038
      Cm = -0.1202     CD =  0.01654   =>   CDf =  0.00642    CDp =  0.01011

 Side 1  free  transition at x/c =  0.6275   57
 Side 2  free  transition at x/c =  0.5623   54

   5   rms: 0.6929E-01   max: 0.3050E+00   D at   55  2
       a = -0.500      CL =  0.5314
      Cm = -0.1185     CD =  0.01694   =>   CDf =  0.00626    CDp =  0.01068

 Side 1  free  transition at x/c =  0.6269   58
 Side 2  free  transition at x/c =  0.6813   60

   6   rms: 0.5409E-01   max: -.8274E+00   C at   60  2   RLX: 0.604
       a = -0.500      CL =  0.5178
      Cm = -0.1152     CD =  0.01656   =>   CDf =  0.00591    CDp =  0.01065

 Side 1  free  transition at x/c =  0.6268   58
 Side 2  free  transition at x/c =  0.6805   60

   7   rms: 0.1223E-01   max: 0.1996E+00   D at   53  2
       a = -0.500      CL =  0.5183
      Cm = -0.1158     CD =  0.01668   =>   CDf =  0.00588    CDp =  0.01081

 Side 1  free  transition at x/c =  0.6267   58
 Side 2  free  transition at x/c =  0.6633   59

   8   rms: 0.3258E-02   max: -.4345E-01   C at   59  2
       a = -0.500      CL =  0.5197
      Cm = -0.1161     CD =  0.01673   =>   CDf =  0.00592    CDp =  0.01081

 Side 1  free  transition at x/c =  0.6267   58
 Side 2  free  transition at x/c =  0.6631   59

   9   rms: 0.3868E-04   max: 0.5878E-03   C at   59  2
       a = -0.500      CL =  0.5197
      Cm = -0.1161     CD =  0.01673   =>   CDf =  0.00591    CDp =  0.01081
 plradd ia,ip,cpol            8           0  0.47001234    

 Point added to stored polar  1
 Point written to save file  gu255118_Re400k.base.pol                        
 Dump file unspecified or not available
 Calculating wake trajectory ...
 Calculating source influence matrix ...

 Solving BL system ...

 Side 1  free  transition at x/c =  0.6267   58
 Side 2  free  transition at x/c =  0.6630   59

   1   rms: 0.1585E+00   max: -.2678E+01   C at   59  2   RLX: 0.187
       a =  0.000      CL =  0.5247
      Cm = -0.1152     CD =  0.01687   =>   CDf =  0.00592    CDp =  0.01095

 Side 1  free  transition at x/c =  0.6266   57
 Side 2  free  transition at x/c =  0.6871   61

   2   rms: 0.1275E+00   max: -.2122E+01   C at   61  2   RLX: 0.236
       a =  0.000      CL =  0.5278
      Cm = -0.1139     CD =  0.01675   =>   CDf =  0.00585    CDp =  0.01090

 Side 1  free  transition at x/c =  0.6264   57
 Side 2  free  transition at x/c =  0.7050   62

   3   rms: 0.1039E+00   max: -.1740E+01   C at   62  2   RLX: 0.287
       a =  0.000      CL =  0.5305
      Cm = -0.1127     CD =  0.01688   =>   CDf =  0.00579    CDp =  0.01109

 Side 1  free  transition at x/c =  0.6262   57
 Side 2  free  transition at x/c =  0.7227   63

   4   rms: 0.8772E-01   max: -.1518E+01   C at   63  2   RLX: 0.329
       a =  0.000      CL =  0.5320
      Cm = -0.1116     CD =  0.01699   =>   CDf =  0.00571    CDp =  0.01127

 Side 1  free  transition at x/c =  0.6260   57
 Side 2  free  transition at x/c =  0.7398   64

   5   rms: 0.7097E-01   max: -.1271E+01   C at   64  2   RLX: 0.393
       a =  0.000      CL =  0.5322
      Cm = -0.1104     CD =  0.01708   =>   CDf =  0.00562    CDp =  0.01145

 Side 1  free  transition at x/c =  0.6258   57
 Side 2  free  transition at x/c =  0.7572   65

   6   rms: 0.5415E-01   max: -.9952E+00   C at   65  2   RLX: 0.502
       a =  0.000      CL =  0.5319
      Cm = -0.1093     CD =  0.01714   =>   CDf =  0.00553    CDp =  0.01160

 Side 1  free  transition at x/c =  0.6256   57
 Side 2  free  transition at x/c =  0.7748   66

   7   rms: 0.3784E-01   max: -.7098E+00   C at   66  2   RLX: 0.704
       a =  0.000      CL =  0.5319
      Cm = -0.1086     CD =  0.01717   =>   CDf =  0.00545    CDp =  0.01172

 Side 1  free  transition at x/c =  0.6254   57
 Side 2  free  transition at x/c =  0.7927   67

   8   rms: 0.2181E-01   max: -.4155E+00   C at   67  2
       a =  0.000      CL =  0.5327
      Cm = -0.1083     CD =  0.01718   =>   CDf =  0.00537    CDp =  0.01180

 Side 1  free  transition at x/c =  0.6253   57
 Side 2  free  transition at x/c =  0.8082   68

   9   rms: 0.5938E-02   max: -.1130E+00   C at   68  2
       a =  0.000      CL =  0.5331
      Cm = -0.1084     CD =  0.01719   =>   CDf =  0.00531    CDp =  0.01188

 Side 1  free  transition at x/c =  0.6253   57
 Side 2  free  transition at x/c =  0.8118   68

  10   rms: 0.1971E-03   max: -.3468E-02   C at   68  2
       a =  0.000      CL =  0.5332
      Cm = -0.1084     CD =  0.01719   =>   CDf =  0.00529    CDp =  0.01190

 Side 1  free  transition at x/c =  0.6253   57
 Side 2  free  transition at x/c =  0.8120   68

  11   rms: 0.4335E-05   max: -.7578E-04   C at   68  2
       a =  0.000      CL =  0.5332
      Cm = -0.1084     CD =  0.01719   =>   CDf =  0.00529    CDp =  0.01190
 plradd ia,ip,cpol            9           0  0.47001234    

 Point added to stored polar  1
 Point written to save file  gu255118_Re400k.base.pol                        
 Dump file unspecified or not available
 Calculating wake trajectory ...
 Calculating source influence matrix ...

 Solving BL system ...

 Side 1  free  transition at x/c =  0.6253   57
 Side 2  free  transition at x/c =  0.8120   68

   1   rms: 0.2537E+00   max: -.4506E+01   C at   68  2   RLX: 0.111
       a =  0.500      CL =  0.5394
      Cm = -0.1085     CD =  0.01722   =>   CDf =  0.00529    CDp =  0.01193

 Side 1  free  transition at x/c =  0.6251   57
 Side 2  free  transition at x/c =  0.8320   69

   2   rms: 0.2566E+00   max: -.4357E+01   C at   69  2   RLX: 0.115
       a =  0.500      CL =  0.5504
      Cm = -0.1099     CD =  0.01729   =>   CDf =  0.00521    CDp =  0.01207

 Side 1  free  transition at x/c =  0.6249   57
 Side 2  free  transition at x/c =  0.8583   70

   3   rms: 0.4172E+00   max: -.6103E+01   C at   70  2   RLX: 0.082
       a =  0.500      CL =  0.5709
      Cm = -0.1136     CD =  0.01728   =>   CDf =  0.00513    CDp =  0.01216

 Side 1  free  transition at x/c =  0.6250   57
 Side 2  free  transition at x/c =  0.8920   72

   4   rms: 0.9669E+00   max: -.7431E+01   C at   72  2   RLX: 0.067
       a =  0.500      CL =  0.6294
      Cm = -0.1251     CD =  0.01709   =>   CDf =  0.00506    CDp =  0.01204

 Side 1  free  transition at x/c =  0.6254   58
 Side 2  free  transition at x/c =  0.9185   73

   5   rms: 0.1638E+00   max: 0.8204E+00   D at   78  2
       a =  0.500      CL =  0.7782
      Cm = -0.1492     CD =  0.01793   =>   CDf =  0.00511    CDp =  0.01282

 MRCHDU: Convergence failed at  77  side 2    Res =  0.3237E+01
 Side 1  free  transition at x/c =  0.6249   59
 Side 2  free  transition at x/c =  0.9984   78

   6   rms: 0.1374E+00   max: -.2797E+01   C at   78  2   RLX: 0.179
       a =  0.500      CL =  0.7585
      Cm = -0.1430     CD =  0.01754   =>   CDf =  0.00523    CDp =  0.01231

 Side 1  free  transition at x/c =  0.6248   59
 Side 2  free  transition at x/c =  0.9901   77

   7   rms: 0.5888E-01   max: 0.4948E+00   D at   77  2
       a =  0.500      CL =  0.7112
      Cm = -0.1345     CD =  0.01811   =>   CDf =  0.00520    CDp =  0.01291

 Side 1  free  transition at x/c =  0.6245   59
 Side 2  free  transition at x/c =  0.9644   75

   8   rms: 0.1659E-01   max: -.2168E+00   D at   76  2
       a =  0.500      CL =  0.7282
      Cm = -0.1383     CD =  0.01826   =>   CDf =  0.00511    CDp =  0.01314

 Side 1  free  transition at x/c =  0.6246   59
 Side 2  free  transition at x/c =  0.9633   75

   9   rms: 0.1555E-02   max: -.1754E-01   D at   76  2
       a =  0.500      CL =  0.7272
      Cm = -0.1381     CD =  0.01826   =>   CDf =  0.00514    CDp =  0.01312

 Side 1  free  transition at x/c =  0.6246   59
 Side 2  free  transition at x/c =  0.9638   75

  10   rms: 0.1414E-04   max: -.1161E-03   D at   77  2
       a =  0.500      CL =  0.7272
      Cm = -0.1381     CD =  0.01826   =>   CDf =  0.00514    CDp =  0.01312
 plradd ia,ip,cpol           10           0  0.47001234    

 Point added to stored polar  1
 Point written to save file  gu255118_Re400k.base.pol                        
 Dump file unspecified or not available
 Calculating wake trajectory ...
 Calculating source influence matrix ...

 Solving BL system ...

 Side 1  free  transition at x/c =  0.6246   59
 Side 2  free  transition at x/c =  0.9638   75

   1   rms: 0.1401E+00   max: 0.5871E+00   C at   75  2
       a =  1.000      CL =  0.8319
      Cm = -0.1492     CD =  0.01974   =>   CDf =  0.00515    CDp =  0.01459

 Side 1  free  transition at x/c =  0.6235   60
 Side 2  free  transition at x/c =  0.9604   74

   2   rms: 0.2313E+00   max: -.2850E+01   C at   74  2   RLX: 0.175
       a =  1.000      CL =  0.8603
      Cm = -0.1562     CD =  0.02021   =>   CDf =  0.00518    CDp =  0.01503

 Side 1  free  transition at x/c =  0.6237   60
 Side 2  free  transition at x/c =  0.9449   73

   3   rms: 0.8533E-01   max: -.7967E+00   T at   73  2   RLX: 0.628
       a =  1.000      CL =  0.8199
      Cm = -0.1478     CD =  0.02057   =>   CDf =  0.00522    CDp =  0.01535

 Side 1  free  transition at x/c =  0.6232   60
 Side 2  free  transition at x/c =  0.9719   75

   4   rms: 0.4387E-01   max: 0.4612E+00   C at   75  2
       a =  1.000      CL =  0.7925
      Cm = -0.1421     CD =  0.01998   =>   CDf =  0.00515    CDp =  0.01483

 Side 1  free  transition at x/c =  0.6229   60
 Side 2 forced transition at x/c =  1.0000   77

   5   rms: 0.2238E+00   max: 0.1563E+01   D at   77  2   RLX: 0.960
       a =  1.000      CL =  0.9881
      Cm = -0.1799     CD =  0.01813   =>   CDf =  0.00512    CDp =  0.01301

 Side 1  free  transition at x/c =  0.6252   61
 Side 2  free  transition at x/c =  0.9100   70
 idif Ue xi dudx           1  0.16585314      1.89185143E-03   87.667107    
 Uenew xinew           2  7.43047148E-03  8.47578049E-05

   6   rms: 0.1740E+00   max: -.1052E+01   T at   70  2   RLX: 0.475
       a =  1.000      CL =  0.9025
      Cm = -0.1642     CD =  0.02147   =>   CDf =  0.00547    CDp =  0.01601

 Side 1  free  transition at x/c =  0.6243   60
 Side 2  free  transition at x/c =  0.9322   72

   7   rms: 0.8304E+00   max: 0.1061E+02   D at    2  2   RLX: 0.096
       a =  1.000      CL =  0.8550
      Cm = -0.1551     CD =  0.02226   =>   CDf =  0.00528    CDp =  0.01697

 Side 1  free  transition at x/c =  0.6239   60
 Side 2  free  transition at x/c =  0.9637   74

   8   rms: 0.2291E+00   max: 0.2418E+01   C at   74  2   RLX: 0.276
       a =  1.000      CL =  0.8010
      Cm = -0.1433     CD =  0.02061   =>   CDf =  0.00521    CDp =  0.01540

 Side 1  free  transition at x/c =  0.6234   60
 Side 2 forced transition at x/c =  1.0000   77

   9   rms: 0.2786E+00   max: 0.2209E+01   D at   76  2   RLX: 0.679
       a =  1.000      CL =  0.9643
      Cm = -0.1749     CD =  0.01813   =>   CDf =  0.00513    CDp =  0.01300

 Side 1  free  transition at x/c =  0.6250   61
 Side 2  free  transition at x/c =  0.9151   70
 idif Ue xi dudx           1  0.17487593      2.04825401E-03   85.378052    
 Uenew xinew           2  2.05898043E-02  2.41160393E-04

  10   rms: 0.1804E+00   max: -.1279E+01   T at   70  2   RLX: 0.391
       a =  1.000      CL =  0.8920
      Cm = -0.1623     CD =  0.02156   =>   CDf =  0.00543    CDp =  0.01614

 Side 1  free  transition at x/c =  0.6243   60
 Side 2  free  transition at x/c =  0.9391   72

  11   rms: 0.1755E+01   max: -.1690E+02   T at   72  2   RLX: 0.030
       a =  1.000      CL =  0.8501
      Cm = -0.1539     CD =  0.02224   =>   CDf =  0.00527    CDp =  0.01696

 Side 1  free  transition at x/c =  0.6239   60
 Side 2  free  transition at x/c =  0.9616   74

  12   rms: 0.1062E+00   max: -.8657E+00   T at   74  2   RLX: 0.578
       a =  1.000      CL =  0.7942
      Cm = -0.1421     CD =  0.02024   =>   CDf =  0.00521    CDp =  0.01504

 Side 1  free  transition at x/c =  0.6232   60
 Side 2 forced transition at x/c =  1.0000   77

  13   rms: 0.2676E+00   max: 0.1921E+01   D at   76  2   RLX: 0.781
       a =  1.000      CL =  0.9808
      Cm = -0.1781     CD =  0.01805   =>   CDf =  0.00512    CDp =  0.01293

 Side 1  free  transition at x/c =  0.6252   61
 Side 2  free  transition at x/c =  0.9105   70
 idif Ue xi dudx           1  0.16690974      1.91354752E-03   87.225288    
 Uenew xinew           2  9.28547140E-03  1.06453896E-04

  14   rms: 0.1715E+00   max: -.1096E+01   T at   70  2   RLX: 0.456
       a =  1.000      CL =  0.9013
      Cm = -0.1640     CD =  0.02140   =>   CDf =  0.00546    CDp =  0.01595

 Side 1  free  transition at x/c =  0.6243   60
 Side 2  free  transition at x/c =  0.9315   72

  15   rms: 0.7424E+00   max: 0.8425E+01   T at    2  2   RLX: 0.111
       a =  1.000      CL =  0.8457
      Cm = -0.1532     CD =  0.02228   =>   CDf =  0.00528    CDp =  0.01700

 Side 1  free  transition at x/c =  0.6239   60
 Side 2  free  transition at x/c =  0.9696   74

  16   rms: 0.6778E-01   max: 0.5839E+00   C at   74  2
       a =  1.000      CL =  0.7823
      Cm = -0.1397     CD =  0.02017   =>   CDf =  0.00520    CDp =  0.01497

 Side 1  free  transition at x/c =  0.6229   60
 Side 2 forced transition at x/c =  1.0000   77

  17   rms: 0.2607E+00   max: 0.1935E+01   D at   77  2   RLX: 0.775
       a =  1.000      CL =  0.9653
      Cm = -0.1752     CD =  0.01810   =>   CDf =  0.00510    CDp =  0.01300

 Side 1  free  transition at x/c =  0.6251   61
 Side 2  free  transition at x/c =  0.9151   70
 idif Ue xi dudx           1  0.17672378      2.04610825E-03   86.370689    
 Uenew xinew           2  2.06438582E-02  2.39014626E-04

  18   rms: 0.1808E+00   max: -.1263E+01   T at   70  2   RLX: 0.396
       a =  1.000      CL =  0.8914
      Cm = -0.1621     CD =  0.02161   =>   CDf =  0.00543    CDp =  0.01618

 Side 1  free  transition at x/c =  0.6243   60
 Side 2  free  transition at x/c =  0.9404   72

  19   rms: 0.2802E+01   max: 0.2734E+02   T at   72  2   RLX: 0.019
       a =  1.000      CL =  0.9313
      Cm = -0.1706     CD =  0.02053   =>   CDf =  0.00527    CDp =  0.01527

 Side 1  free  transition at x/c =  0.6246   61
 Side 2  free  transition at x/c =  0.9242   70
 idif Ue xi dudx           1  0.19724296      2.36546993E-03   83.384262    
 Uenew xinew           2  4.65597957E-02  5.58376312E-04

  20   rms: 0.2831E+00   max: -.2336E+01   T at   70  2   RLX: 0.214
       a =  1.000      CL =  0.8722
      Cm = -0.1586     CD =  0.02166   =>   CDf =  0.00535    CDp =  0.01631

 Side 1  free  transition at x/c =  0.6241   60
 Side 2  free  transition at x/c =  0.9515   73

  21   rms: 0.2060E+00   max: -.1824E+01   T at   73  2   RLX: 0.274
       a =  1.000      CL =  0.8192
      Cm = -0.1472     CD =  0.02103   =>   CDf =  0.00524    CDp =  0.01579

 Side 1  free  transition at x/c =  0.6236   60
 Side 2  free  transition at x/c =  0.9828   76

  22   rms: 0.6704E-01   max: 0.1059E+01   C at   76  2
       a =  1.000      CL =  0.7837
      Cm = -0.1405     CD =  0.02004   =>   CDf =  0.00516    CDp =  0.01488

 Side 1  free  transition at x/c =  0.6229   60
 Side 2 forced transition at x/c =  1.0000   77

  23   rms: 0.2216E+00   max: 0.1561E+01   D at   77  2   RLX: 0.961
       a =  1.000      CL =  0.9810
      Cm = -0.1787     CD =  0.01810   =>   CDf =  0.00512    CDp =  0.01298

 Side 1  free  transition at x/c =  0.6252   61
 Side 2  free  transition at x/c =  0.9222   70

  24   rms: 0.2613E+00   max: -.2118E+01   T at   70  2   RLX: 0.236
       a =  1.000      CL =  0.9144
      Cm = -0.1665     CD =  0.02206   =>   CDf =  0.00544    CDp =  0.01661

 Side 1  free  transition at x/c =  0.6246   61
 Side 2  free  transition at x/c =  0.9471   72
 idif Ue xi dudx           1  0.21852010      2.69484520E-03   81.088188    
 Uenew xinew           2  7.19861686E-02  8.87751579E-04

  25   rms: 0.2016E+00   max: -.1474E+01   T at   72  2   RLX: 0.339
       a =  1.000      CL =  0.8446
      Cm = -0.1520     CD =  0.02092   =>   CDf =  0.00534    CDp =  0.01557

 Side 1  free  transition at x/c =  0.6240   60
 Side 2  free  transition at x/c =  0.9867   76

  26   rms: 0.3538E-01   max: 0.4158E+00   D at   75  2
       a =  1.000      CL =  0.8122
      Cm = -0.1460     CD =  0.01966   =>   CDf =  0.00522    CDp =  0.01444

 Side 1  free  transition at x/c =  0.6232   60
 Side 2  free  transition at x/c =  0.9854   76

  27   rms: 0.1224E-02   max: -.8183E-02   D at   77  2
       a =  1.000      CL =  0.8112
      Cm = -0.1458     CD =  0.01971   =>   CDf =  0.00515    CDp =  0.01456

 Side 1  free  transition at x/c =  0.6231   60
 Side 2  free  transition at x/c =  0.9854   76

  28   rms: 0.1213E-04   max: -.9364E-04   T at   76  2
       a =  1.000      CL =  0.8112
      Cm = -0.1458     CD =  0.01971   =>   CDf =  0.00515    CDp =  0.01456
 plradd ia,ip,cpol           11           0  0.45573094    

 Point added to stored polar  1
 Point written to save file  gu255118_Re400k.base.pol                        
 Dump file unspecified or not available
 Calculating wake trajectory ...
 Calculating source influence matrix ...

 Solving BL system ...

 Side 1  free  transition at x/c =  0.6231   60
 Side 2  free  transition at x/c =  0.9854   76

   1   rms: 0.9367E-01   max: -.3122E+00   T at   76  2
       a =  1.500      CL =  0.8897
      Cm = -0.1531     CD =  0.02119   =>   CDf =  0.00515    CDp =  0.01604

 Side 1  free  transition at x/c =  0.6214   61
 Side 2  free  transition at x/c =  0.9947   76

   2   rms: 0.1119E-01   max: 0.1420E+00   C at   76  2
       a =  1.500      CL =  0.8830
      Cm = -0.1520     CD =  0.02135   =>   CDf =  0.00512    CDp =  0.01623

 Side 1  free  transition at x/c =  0.6211   61
 Side 2  free  transition at x/c =  0.9995   76

   3   rms: 0.2776E-02   max: 0.4548E-01   D at   76  2
       a =  1.500      CL =  0.8840
      Cm = -0.1522     CD =  0.02132   =>   CDf =  0.00512    CDp =  0.01620

 Side 1  free  transition at x/c =  0.6211   61
 Side 2  free  transition at x/c =  0.9985   76

   4   rms: 0.8632E-04   max: 0.1377E-02   T at   76  2
       a =  1.500      CL =  0.8840
      Cm = -0.1522     CD =  0.02132   =>   CDf =  0.00513    CDp =  0.01620
 plradd ia,ip,cpol           12           0  0.44100809    

 Point added to stored polar  1
 Point written to save file  gu255118_Re400k.base.pol                        
 Dump file unspecified or not available
 Calculating wake trajectory ...
 Calculating source influence matrix ...

 Solving BL system ...

 Side 1  free  transition at x/c =  0.6211   61
 Side 2  free  transition at x/c =  0.9985   76

   1   rms: 0.9235E-01   max: -.4231E+00   T at   76  2
       a =  2.000      CL =  0.9639
      Cm = -0.1599     CD =  0.02267   =>   CDf =  0.00512    CDp =  0.01756

 Side 1  free  transition at x/c =  0.6192   62
 Side 2 forced transition at x/c =  1.0000   75
 idif Ue xi dudx           1  0.24126402      3.02076340E-03   79.868561    
 Uenew xinew           2  9.23449025E-02  1.15621090E-03

   2   rms: 0.1322E+00   max: -.5764E+00   D at   75  2   RLX: 0.867
       a =  2.000      CL =  0.8454
      Cm = -0.1377     CD =  0.02444   =>   CDf =  0.00516    CDp =  0.01928

 Side 1  free  transition at x/c =  0.6168   61
 Side 2 forced transition at x/c =  1.0000   76

   3   rms: 0.2578E-01   max: 0.8665E-01   D at   70  2
       a =  2.000      CL =  0.8150
      Cm = -0.1318     CD =  0.02445   =>   CDf =  0.00505    CDp =  0.01940

 Side 1  free  transition at x/c =  0.6162   61
 Side 2 forced transition at x/c =  1.0000   76

   4   rms: 0.2757E-02   max: 0.1293E-01   D at   78  2
       a =  2.000      CL =  0.8113
      Cm = -0.1310     CD =  0.02444   =>   CDf =  0.00500    CDp =  0.01944

 Side 1  free  transition at x/c =  0.6162   61
 Side 2 forced transition at x/c =  1.0000   76

   5   rms: 0.2981E-03   max: -.1112E-02   D at   72  2
       a =  2.000      CL =  0.8110
      Cm = -0.1309     CD =  0.02444   =>   CDf =  0.00500    CDp =  0.01945

 Side 1  free  transition at x/c =  0.6162   61
 Side 2 forced transition at x/c =  1.0000   76

   6   rms: 0.1783E-04   max: -.5938E-04   D at   73  2
       a =  2.000      CL =  0.8110
      Cm = -0.1309     CD =  0.02444   =>   CDf =  0.00500    CDp =  0.01945
 plradd ia,ip,cpol           13           0  0.42606163    

 Point added to stored polar  1
 Point written to save file  gu255118_Re400k.base.pol                        
 Dump file unspecified or not available
 Calculating wake trajectory ...
 Calculating source influence matrix ...

 Solving BL system ...

 Side 1  free  transition at x/c =  0.6162   61
 Side 2 forced transition at x/c =  1.0000   76

   1   rms: 0.6343E-01   max: -.3536E+00   D at   72  2
       a =  2.500      CL =  0.7910
      Cm = -0.1180     CD =  0.02570   =>   CDf =  0.00500    CDp =  0.02069

 Side 1  free  transition at x/c =  0.6141   61
 Side 2 forced transition at x/c =  1.0000   76

   2   rms: 0.1902E-01   max: 0.1625E+00   D at   73  2
       a =  2.500      CL =  0.8076
      Cm = -0.1212     CD =  0.02565   =>   CDf =  0.00506    CDp =  0.02059

 Side 1  free  transition at x/c =  0.6140   61
 Side 2 forced transition at x/c =  1.0000   76

   3   rms: 0.2617E-02   max: 0.2908E-01   D at   73  2
       a =  2.500      CL =  0.8095
      Cm = -0.1216     CD =  0.02565   =>   CDf =  0.00505    CDp =  0.02061

 Side 1  free  transition at x/c =  0.6140   61
 Side 2 forced transition at x/c =  1.0000   76

   4   rms: 0.7757E-04   max: 0.7435E-03   D at   72  2
       a =  2.500      CL =  0.8096
      Cm = -0.1216     CD =  0.02565   =>   CDf =  0.00505    CDp =  0.02061
 plradd ia,ip,cpol           14           0  0.41107538    

 Point added to stored polar  1
 Point written to save file  gu255118_Re400k.base.pol                        
 Dump file unspecified or not available
 Calculating wake trajectory ...
 Calculating source influence matrix ...

 Solving BL system ...

 Side 1  free  transition at x/c =  0.6140   61
 Side 2 forced transition at x/c =  1.0000   76

   1   rms: 0.6160E-01   max: -.1512E+00   D at   73  2
       a =  3.000      CL =  0.8404
      Cm = -0.1180     CD =  0.02630   =>   CDf =  0.00505    CDp =  0.02125

 Side 1  free  transition at x/c =  0.6123   61
 Side 2 forced transition at x/c =  1.0000   76

   2   rms: 0.2141E-01   max: -.9144E-01   D at   74  1
       a =  3.000      CL =  0.8547
      Cm = -0.1204     CD =  0.02592   =>   CDf =  0.00508    CDp =  0.02084

 Side 1  free  transition at x/c =  0.6128   62
 Side 2 forced transition at x/c =  1.0000   75

   3   rms: 0.4313E-02   max: 0.2337E-01   D at    2  2
       a =  3.000      CL =  0.8586
      Cm = -0.1211     CD =  0.02592   =>   CDf =  0.00513    CDp =  0.02078

 Side 1  free  transition at x/c =  0.6128   62
 Side 2 forced transition at x/c =  1.0000   75

   4   rms: 0.1735E-02   max: -.2270E-01   D at    4  1
       a =  3.000      CL =  0.8587
      Cm = -0.1211     CD =  0.02592   =>   CDf =  0.00514    CDp =  0.02079

 Side 1  free  transition at x/c =  0.6128   62
 Side 2 forced transition at x/c =  1.0000   75

   5   rms: 0.1071E-04   max: 0.1275E-03   D at    8  1
       a =  3.000      CL =  0.8587
      Cm = -0.1211     CD =  0.02592   =>   CDf =  0.00514    CDp =  0.02079
 plradd ia,ip,cpol           15           0  0.41107538    

 Point added to stored polar  1
 Point written to save file  gu255118_Re400k.base.pol                        
 Dump file unspecified or not available
 Calculating wake trajectory ...
 Calculating source influence matrix ...

 Solving BL system ...

 Side 1  free  transition at x/c =  0.6128   62
 Side 2 forced transition at x/c =  1.0000   75

   1   rms: 0.6843E-01   max: -.9015E-01   D at   72  2
       a =  3.500      CL =  0.9064
      Cm = -0.1206     CD =  0.02642   =>   CDf =  0.00514    CDp =  0.02128

 Side 1  free  transition at x/c =  0.6120   62
 Side 2 forced transition at x/c =  1.0000   75

   2   rms: 0.1295E-01   max: 0.6377E-01   T at   62  1
       a =  3.500      CL =  0.9007
      Cm = -0.1198     CD =  0.02693   =>   CDf =  0.00521    CDp =  0.02172

 Side 1  free  transition at x/c =  0.6116   62
 Side 2 forced transition at x/c =  1.0000   75

   3   rms: 0.1580E-02   max: -.1096E-01   D at   77  1
       a =  3.500      CL =  0.9011
      Cm = -0.1199     CD =  0.02695   =>   CDf =  0.00520    CDp =  0.02175

 Side 1  free  transition at x/c =  0.6116   62
 Side 2 forced transition at x/c =  1.0000   75

   4   rms: 0.3312E-04   max: -.1328E-03   D at   77  1
       a =  3.500      CL =  0.9011
      Cm = -0.1199     CD =  0.02695   =>   CDf =  0.00520    CDp =  0.02175
 plradd ia,ip,cpol           16           0  0.39612010    

 Point added to stored polar  1
 Point written to save file  gu255118_Re400k.base.pol                        
 Dump file unspecified or not available
 Calculating wake trajectory ...
 Calculating source influence matrix ...

 Solving BL system ...

 Side 1  free  transition at x/c =  0.6116   62
 Side 2 forced transition at x/c =  1.0000   75

   1   rms: 0.6979E-01   max: 0.7337E-01   T at   77  2
       a =  4.000      CL =  0.9474
      Cm = -0.1197     CD =  0.02857   =>   CDf =  0.00516    CDp =  0.02341

 Side 1  free  transition at x/c =  0.6103   62
 Side 2 forced transition at x/c =  1.0000   74

   2   rms: 0.7320E-01   max: 0.2528E+00   D at   72  2
       a =  4.000      CL =  1.0408
      Cm = -0.1358     CD =  0.02584   =>   CDf =  0.00522    CDp =  0.02062

 Side 1  free  transition at x/c =  0.6134   64
 Side 2 forced transition at x/c =  1.0000   73
 idif Ue xi dudx           1  0.15471597      2.30026245E-03   67.260139    
 Uenew xinew           2  1.56271476E-02  2.32338905E-04

   3   rms: 0.1163E+00   max: 0.4841E+00   D at   85  1
       a =  4.000      CL =  0.9938
      Cm = -0.1274     CD =  0.02693   =>   CDf =  0.00549    CDp =  0.02144

 Side 1  free  transition at x/c =  0.6114   62
 Side 2 forced transition at x/c =  1.0000   74

   4   rms: 0.2767E-01   max: -.1682E+00   D at   76  1
       a =  4.000      CL =  0.9944
      Cm = -0.1271     CD =  0.02636   =>   CDf =  0.00521    CDp =  0.02115

 Side 1  free  transition at x/c =  0.6120   63
 Side 2 forced transition at x/c =  1.0000   74

   5   rms: 0.7850E-01   max: 0.3188E+00   D at   84  1
       a =  4.000      CL =  0.9440
      Cm = -0.1183     CD =  0.02810   =>   CDf =  0.00533    CDp =  0.02277

 Side 1  free  transition at x/c =  0.6107   62
 Side 2 forced transition at x/c =  1.0000   74

   6   rms: 0.5722E-01   max: 0.2158E+00   D at   72  2
       a =  4.000      CL =  1.0157
      Cm = -0.1310     CD =  0.02609   =>   CDf =  0.00520    CDp =  0.02089

 Side 1  free  transition at x/c =  0.6126   64
 Side 2 forced transition at x/c =  1.0000   73
 idif Ue xi dudx           1  0.16190286      2.39360332E-03   67.639801    
 Uenew xinew           2  2.20289156E-02  3.25679779E-04

   7   rms: 0.1084E+00   max: -.8924E+00   T at    2  1   RLX: 0.560
       a =  4.000      CL =  0.9851
      Cm = -0.1253     CD =  0.02589   =>   CDf =  0.00544    CDp =  0.02045

 Side 1  free  transition at x/c =  0.6116   63
 Side 2 forced transition at x/c =  1.0000   74

   8   rms: 0.4375E-01   max: 0.1899E+00   T at   63  1
       a =  4.000      CL =  0.9621
      Cm = -0.1223     CD =  0.02834   =>   CDf =  0.00528    CDp =  0.02306

 Side 1  free  transition at x/c =  0.6106   62
 Side 2 forced transition at x/c =  1.0000   74

   9   rms: 0.5719E-01   max: 0.1994E+00   D at   72  2
       a =  4.000      CL =  1.0343
      Cm = -0.1348     CD =  0.02610   =>   CDf =  0.00523    CDp =  0.02087

 Side 1  free  transition at x/c =  0.6130   64
 Side 2 forced transition at x/c =  1.0000   73
 idif Ue xi dudx           1  0.15839095      2.35164165E-03   67.353355    
 Uenew xinew           2  1.91093665E-02  2.83718109E-04

  10   rms: 0.1063E+00   max: 0.4815E+00   D at   87  1
       a =  4.000      CL =  0.9895
      Cm = -0.1265     CD =  0.02703   =>   CDf =  0.00547    CDp =  0.02156

 Side 1  free  transition at x/c =  0.6114   62
 Side 2 forced transition at x/c =  1.0000   74

  11   rms: 0.2548E-01   max: -.1533E+00   D at   76  1
       a =  4.000      CL =  0.9968
      Cm = -0.1276     CD =  0.02632   =>   CDf =  0.00522    CDp =  0.02110

 Side 1  free  transition at x/c =  0.6121   63
 Side 2 forced transition at x/c =  1.0000   74

  12   rms: 0.8206E-01   max: 0.3357E+00   D at   84  1
       a =  4.000      CL =  0.9431
      Cm = -0.1180     CD =  0.02805   =>   CDf =  0.00534    CDp =  0.02271

 Side 1  free  transition at x/c =  0.6107   62
 Side 2 forced transition at x/c =  1.0000   74

  13   rms: 0.5637E-01   max: 0.2152E+00   D at   72  2
       a =  4.000      CL =  1.0134
      Cm = -0.1306     CD =  0.02610   =>   CDf =  0.00519    CDp =  0.02091

 Side 1  free  transition at x/c =  0.6126   64
 Side 2 forced transition at x/c =  1.0000   73
 idif Ue xi dudx           1  0.14488024      2.16007233E-03   67.071938    
 Uenew xinew           2  6.18059747E-03  9.21487808E-05

  14   rms: 0.2153E+00   max: -.3405E+01   T at    2  1   RLX: 0.147
       a =  4.000      CL =  1.0044
      Cm = -0.1285     CD =  0.02441   =>   CDf =  0.00544    CDp =  0.01898

 Side 1  free  transition at x/c =  0.6123   63
 Side 2 forced transition at x/c =  1.0000   74

  15   rms: 0.8558E-01   max: -.4155E+00   T at    2  2
       a =  4.000      CL =  0.9575
      Cm = -0.1208     CD =  0.02791   =>   CDf =  0.00535    CDp =  0.02256

 Side 1  free  transition at x/c =  0.6109   62
 Side 2 forced transition at x/c =  1.0000   74

  16   rms: 0.4298E-01   max: 0.1569E+00   D at   72  2
       a =  4.000      CL =  1.0082
      Cm = -0.1297     CD =  0.02618   =>   CDf =  0.00524    CDp =  0.02094

 Side 1  free  transition at x/c =  0.6124   63
 Side 2 forced transition at x/c =  1.0000   74

  17   rms: 0.8792E-01   max: 0.3705E+00   D at   85  1
       a =  4.000      CL =  0.9552
      Cm = -0.1202     CD =  0.02783   =>   CDf =  0.00536    CDp =  0.02247

 Side 1  free  transition at x/c =  0.6109   62
 Side 2 forced transition at x/c =  1.0000   74

  18   rms: 0.4285E-01   max: 0.1621E+00   D at   72  2
       a =  4.000      CL =  1.0053
      Cm = -0.1291     CD =  0.02619   =>   CDf =  0.00524    CDp =  0.02095

 Side 1  free  transition at x/c =  0.6123   63
 Side 2 forced transition at x/c =  1.0000   74

  19   rms: 0.8479E-01   max: 0.3526E+00   D at   84  1
       a =  4.000      CL =  0.9543
      Cm = -0.1201     CD =  0.02789   =>   CDf =  0.00535    CDp =  0.02254

 Side 1  free  transition at x/c =  0.6109   62
 Side 2 forced transition at x/c =  1.0000   74

  20   rms: 0.4450E-01   max: 0.1664E+00   D at   72  2
       a =  4.000      CL =  1.0071
      Cm = -0.1295     CD =  0.02618   =>   CDf =  0.00524    CDp =  0.02094

 Side 1  free  transition at x/c =  0.6123   63
 Side 2 forced transition at x/c =  1.0000   74

  21   rms: 0.8668E-01   max: 0.3625E+00   D at   84  1
       a =  4.000      CL =  0.9548
      Cm = -0.1202     CD =  0.02785   =>   CDf =  0.00536    CDp =  0.02250

 Side 1  free  transition at x/c =  0.6109   62
 Side 2 forced transition at x/c =  1.0000   74

  22   rms: 0.4346E-01   max: 0.1632E+00   D at   72  2
       a =  4.000      CL =  1.0059
      Cm = -0.1292     CD =  0.02619   =>   CDf =  0.00524    CDp =  0.02095

 Side 1  free  transition at x/c =  0.6123   63
 Side 2 forced transition at x/c =  1.0000   74

  23   rms: 0.8546E-01   max: 0.3559E+00   D at   84  1
       a =  4.000      CL =  0.9544
      Cm = -0.1202     CD =  0.02788   =>   CDf =  0.00535    CDp =  0.02253

 Side 1  free  transition at x/c =  0.6109   62
 Side 2 forced transition at x/c =  1.0000   74

  24   rms: 0.4417E-01   max: 0.1656E+00   D at   72  2
       a =  4.000      CL =  1.0066
      Cm = -0.1294     CD =  0.02618   =>   CDf =  0.00524    CDp =  0.02094

 Side 1  free  transition at x/c =  0.6123   63
 Side 2 forced transition at x/c =  1.0000   74

  25   rms: 0.8626E-01   max: 0.3602E+00   D at   84  1
       a =  4.000      CL =  0.9547
      Cm = -0.1202     CD =  0.02786   =>   CDf =  0.00535    CDp =  0.02251

 Side 1  free  transition at x/c =  0.6109   62
 Side 2 forced transition at x/c =  1.0000   74

  26   rms: 0.4370E-01   max: 0.1638E+00   D at   72  2
       a =  4.000      CL =  1.0061
      Cm = -0.1293     CD =  0.02618   =>   CDf =  0.00524    CDp =  0.02094

 Side 1  free  transition at x/c =  0.6123   63
 Side 2 forced transition at x/c =  1.0000   74

  27   rms: 0.8576E-01   max: 0.3575E+00   D at   84  1
       a =  4.000      CL =  0.9545
      Cm = -0.1202     CD =  0.02788   =>   CDf =  0.00535    CDp =  0.02252

 Side 1  free  transition at x/c =  0.6109   62
 Side 2 forced transition at x/c =  1.0000   74

  28   rms: 0.4400E-01   max: 0.1650E+00   D at   72  2
       a =  4.000      CL =  1.0065
      Cm = -0.1294     CD =  0.02618   =>   CDf =  0.00524    CDp =  0.02094

 Side 1  free  transition at x/c =  0.6123   63
 Side 2 forced transition at x/c =  1.0000   74

  29   rms: 0.8607E-01   max: 0.3592E+00   D at   84  1
       a =  4.000      CL =  0.9546
      Cm = -0.1202     CD =  0.02787   =>   CDf =  0.00535    CDp =  0.02251

 Side 1  free  transition at x/c =  0.6109   62
 Side 2 forced transition at x/c =  1.0000   74

  30   rms: 0.4380E-01   max: 0.1644E+00   D at   72  2
       a =  4.000      CL =  1.0063
      Cm = -0.1293     CD =  0.02618   =>   CDf =  0.00524    CDp =  0.02094

 Side 1  free  transition at x/c =  0.6123   63
 Side 2 forced transition at x/c =  1.0000   74

  31   rms: 0.8584E-01   max: 0.3580E+00   D at   84  1
       a =  4.000      CL =  0.9545
      Cm = -0.1202     CD =  0.02787   =>   CDf =  0.00535    CDp =  0.02252

 Side 1  free  transition at x/c =  0.6109   62
 Side 2 forced transition at x/c =  1.0000   74

  32   rms: 0.4394E-01   max: 0.1648E+00   D at   72  2
       a =  4.000      CL =  1.0064
      Cm = -0.1293     CD =  0.02618   =>   CDf =  0.00524    CDp =  0.02094

 Side 1  free  transition at x/c =  0.6123   63
 Side 2 forced transition at x/c =  1.0000   74

  33   rms: 0.8600E-01   max: 0.3588E+00   D at   84  1
       a =  4.000      CL =  0.9546
      Cm = -0.1202     CD =  0.02787   =>   CDf =  0.00535    CDp =  0.02252

 Side 1  free  transition at x/c =  0.6109   62
 Side 2 forced transition at x/c =  1.0000   74

  34   rms: 0.4385E-01   max: 0.1645E+00   D at   72  2
       a =  4.000      CL =  1.0063
      Cm = -0.1293     CD =  0.02618   =>   CDf =  0.00524    CDp =  0.02094

 Side 1  free  transition at x/c =  0.6123   63
 Side 2 forced transition at x/c =  1.0000   74

  35   rms: 0.8589E-01   max: 0.3582E+00   D at   84  1
       a =  4.000      CL =  0.9546
      Cm = -0.1202     CD =  0.02787   =>   CDf =  0.00535    CDp =  0.02252

 Side 1  free  transition at x/c =  0.6109   62
 Side 2 forced transition at x/c =  1.0000   74

  36   rms: 0.4390E-01   max: 0.1647E+00   D at   72  2
       a =  4.000      CL =  1.0064
      Cm = -0.1293     CD =  0.02618   =>   CDf =  0.00524    CDp =  0.02094

 Side 1  free  transition at x/c =  0.6123   63
 Side 2 forced transition at x/c =  1.0000   74

  37   rms: 0.8596E-01   max: 0.3586E+00   D at   84  1
       a =  4.000      CL =  0.9546
      Cm = -0.1202     CD =  0.02787   =>   CDf =  0.00535    CDp =  0.02252

 Side 1  free  transition at x/c =  0.6109   62
 Side 2 forced transition at x/c =  1.0000   74

  38   rms: 0.4387E-01   max: 0.1646E+00   D at   72  2
       a =  4.000      CL =  1.0063
      Cm = -0.1293     CD =  0.02618   =>   CDf =  0.00524    CDp =  0.02094

 Side 1  free  transition at x/c =  0.6123   63
 Side 2 forced transition at x/c =  1.0000   74

  39   rms: 0.8591E-01   max: 0.3583E+00   D at   84  1
       a =  4.000      CL =  0.9546
      Cm = -0.1202     CD =  0.02787   =>   CDf =  0.00535    CDp =  0.02252

 Side 1  free  transition at x/c =  0.6109   62
 Side 2 forced transition at x/c =  1.0000   74

  40   rms: 0.4389E-01   max: 0.1646E+00   D at   72  2
       a =  4.000      CL =  1.0064
      Cm = -0.1293     CD =  0.02618   =>   CDf =  0.00524    CDp =  0.02094

 Side 1  free  transition at x/c =  0.6123   63
 Side 2 forced transition at x/c =  1.0000   74

  41   rms: 0.8594E-01   max: 0.3585E+00   D at   84  1
       a =  4.000      CL =  0.9546
      Cm = -0.1202     CD =  0.02787   =>   CDf =  0.00535    CDp =  0.02252

 Side 1  free  transition at x/c =  0.6109   62
 Side 2 forced transition at x/c =  1.0000   74

  42   rms: 0.4387E-01   max: 0.1646E+00   D at   72  2
       a =  4.000      CL =  1.0063
      Cm = -0.1293     CD =  0.02618   =>   CDf =  0.00524    CDp =  0.02094

 Side 1  free  transition at x/c =  0.6123   63
 Side 2 forced transition at x/c =  1.0000   74

  43   rms: 0.8592E-01   max: 0.3584E+00   D at   84  1
       a =  4.000      CL =  0.9546
      Cm = -0.1202     CD =  0.02787   =>   CDf =  0.00535    CDp =  0.02252

 Side 1  free  transition at x/c =  0.6109   62
 Side 2 forced transition at x/c =  1.0000   74

  44   rms: 0.4388E-01   max: 0.1646E+00   D at   72  2
       a =  4.000      CL =  1.0063
      Cm = -0.1293     CD =  0.02618   =>   CDf =  0.00524    CDp =  0.02094

 Side 1  free  transition at x/c =  0.6123   63
 Side 2 forced transition at x/c =  1.0000   74

  45   rms: 0.8593E-01   max: 0.3584E+00   D at   84  1
       a =  4.000      CL =  0.9546
      Cm = -0.1202     CD =  0.02787   =>   CDf =  0.00535    CDp =  0.02252

 Side 1  free  transition at x/c =  0.6109   62
 Side 2 forced transition at x/c =  1.0000   74

  46   rms: 0.4387E-01   max: 0.1646E+00   D at   72  2
       a =  4.000      CL =  1.0063
      Cm = -0.1293     CD =  0.02618   =>   CDf =  0.00524    CDp =  0.02094

 Side 1  free  transition at x/c =  0.6123   63
 Side 2 forced transition at x/c =  1.0000   74

  47   rms: 0.8592E-01   max: 0.3584E+00   D at   84  1
       a =  4.000      CL =  0.9546
      Cm = -0.1202     CD =  0.02787   =>   CDf =  0.00535    CDp =  0.02252

 Side 1  free  transition at x/c =  0.6109   62
 Side 2 forced transition at x/c =  1.0000   74

  48   rms: 0.4388E-01   max: 0.1646E+00   D at   72  2
       a =  4.000      CL =  1.0063
      Cm = -0.1293     CD =  0.02618   =>   CDf =  0.00524    CDp =  0.02094

 Side 1  free  transition at x/c =  0.6123   63
 Side 2 forced transition at x/c =  1.0000   74

  49   rms: 0.8593E-01   max: 0.3585E+00   D at   84  1
       a =  4.000      CL =  0.9546
      Cm = -0.1202     CD =  0.02787   =>   CDf =  0.00535    CDp =  0.02252

 Side 1  free  transition at x/c =  0.6109   62
 Side 2 forced transition at x/c =  1.0000   74

  50   rms: 0.4387E-01   max: 0.1646E+00   D at   72  2
       a =  4.000      CL =  1.0063
      Cm = -0.1293     CD =  0.02618   =>   CDf =  0.00524    CDp =  0.02094

 Side 1  free  transition at x/c =  0.6123   63
 Side 2 forced transition at x/c =  1.0000   74

  51   rms: 0.8592E-01   max: 0.3584E+00   D at   84  1
       a =  4.000      CL =  0.9546
      Cm = -0.1202     CD =  0.02787   =>   CDf =  0.00535    CDp =  0.02252

 Side 1  free  transition at x/c =  0.6109   62
 Side 2 forced transition at x/c =  1.0000   74

  52   rms: 0.4388E-01   max: 0.1646E+00   D at   72  2
       a =  4.000      CL =  1.0063
      Cm = -0.1293     CD =  0.02618   =>   CDf =  0.00524    CDp =  0.02094

 Side 1  free  transition at x/c =  0.6123   63
 Side 2 forced transition at x/c =  1.0000   74

  53   rms: 0.8593E-01   max: 0.3584E+00   D at   84  1
       a =  4.000      CL =  0.9546
      Cm = -0.1202     CD =  0.02787   =>   CDf =  0.00535    CDp =  0.02252

 Side 1  free  transition at x/c =  0.6109   62
 Side 2 forced transition at x/c =  1.0000   74

  54   rms: 0.4388E-01   max: 0.1646E+00   D at   72  2
       a =  4.000      CL =  1.0063
      Cm = -0.1293     CD =  0.02618   =>   CDf =  0.00524    CDp =  0.02094

[...]

 Side 1  free  transition at x/c =  0.5126   62
 Side 2 forced transition at x/c =  1.0000   68

  14   rms: 0.5719E-01   max: 0.3036E+00   D at   64  1
       a = 11.000      CL =  1.1475
      Cm = -0.0649     CD =  0.05637   =>   CDf =  0.00468    CDp =  0.05169

 Side 1  free  transition at x/c =  0.5092   61
 Side 2 forced transition at x/c =  1.0000   68

  15   rms: 0.1458E-01   max: -.1568E+00   T at   61  1
       a = 11.000      CL =  1.1600
      Cm = -0.0657     CD =  0.05431   =>   CDf =  0.00468    CDp =  0.04963

 Side 1  free  transition at x/c =  0.5126   62
 Side 2 forced transition at x/c =  1.0000   68

  16   rms: 0.5720E-01   max: 0.3037E+00   D at   64  1
       a = 11.000      CL =  1.1475
      Cm = -0.0649     CD =  0.05637   =>   CDf =  0.00468    CDp =  0.05169

 Side 1  free  transition at x/c =  0.5092   61
 Side 2 forced transition at x/c =  1.0000   68

  17   rms: 0.1459E-01   max: -.1568E+00   T at   61  1
       a = 11.000      CL =  1.1600
      Cm = -0.0657     CD =  0.05431   =>   CDf =  0.00468    CDp =  0.04963

 Side 1  free  transition at x/c =  0.5126   62
 Side 2 forced transition at x/c =  1.0000   68

  18   rms: 0.5721E-01   max: 0.3037E+00   D at   64  1
       a = 11.000      CL =  1.1475
      Cm = -0.0649     CD =  0.05637   =>   CDf =  0.00468    CDp =  0.05169

 Side 1  free  transition at x/c =  0.5092   61
 Side 2 forced transition at x/c =  1.0000   68

  19   rms: 0.1459E-01   max: -.1568E+00   T at   61  1
       a = 11.000      CL =  1.1600
      Cm = -0.0657     CD =  0.05431   =>   CDf =  0.00468    CDp =  0.04963

 Side 1  free  transition at x/c =  0.5126   62
 Side 2 forced transition at x/c =  1.0000   68

  20   rms: 0.5721E-01   max: 0.3037E+00   D at   64  1
       a = 11.000      CL =  1.1475
      Cm = -0.0649     CD =  0.05637   =>   CDf =  0.00468    CDp =  0.05169

 Side 1  free  transition at x/c =  0.5092   61
 Side 2 forced transition at x/c =  1.0000   68

  21   rms: 0.1459E-01   max: -.1568E+00   T at   61  1
       a = 11.000      CL =  1.1600
      Cm = -0.0657     CD =  0.05431   =>   CDf =  0.00468    CDp =  0.04963

 Side 1  free  transition at x/c =  0.5126   62
 Side 2 forced transition at x/c =  1.0000   68

  22   rms: 0.5721E-01   max: 0.3037E+00   D at   64  1
       a = 11.000      CL =  1.1475
      Cm = -0.0649     CD =  0.05637   =>   CDf =  0.00468    CDp =  0.05169

 Side 1  free  transition at x/c =  0.5092   61
 Side 2 forced transition at x/c =  1.0000   68

  23   rms: 0.1459E-01   max: -.1568E+00   T at   61  1
       a = 11.000      CL =  1.1600
      Cm = -0.0657     CD =  0.05431   =>   CDf =  0.00468    CDp =  0.04963

 Side 1  free  transition at x/c =  0.5126   62
 Side 2 forced transition at x/c =  1.0000   68

  24   rms: 0.5721E-01   max: 0.3037E+00   D at   64  1
       a = 11.000      CL =  1.1475
      Cm = -0.0649     CD =  0.05637   =>   CDf =  0.00468    CDp =  0.05169

 Side 1  free  transition at x/c =  0.5092   61
 Side 2 forced transition at x/c =  1.0000   68

  25   rms: 0.1459E-01   max: -.1568E+00   T at   61  1
       a = 11.000      CL =  1.1600
      Cm = -0.0657     CD =  0.05431   =>   CDf =  0.00468    CDp =  0.04963

 Side 1  free  transition at x/c =  0.5126   62
 Side 2 forced transition at x/c =  1.0000   68

  26   rms: 0.5721E-01   max: 0.3037E+00   D at   64  1
       a = 11.000      CL =  1.1475
      Cm = -0.0649     CD =  0.05637   =>   CDf =  0.00468    CDp =  0.05169

 Side 1  free  transition at x/c =  0.5092   61
 Side 2 forced transition at x/c =  1.0000   68

  27   rms: 0.1459E-01   max: -.1568E+00   T at   61  1
       a = 11.000      CL =  1.1600
      Cm = -0.0657     CD =  0.05431   =>   CDf =  0.00468    CDp =  0.04963

 Side 1  free  transition at x/c =  0.5126   62
 Side 2 forced transition at x/c =  1.0000   68

  28   rms: 0.5721E-01   max: 0.3037E+00   D at   64  1
       a = 11.000      CL =  1.1475
      Cm = -0.0649     CD =  0.05637   =>   CDf =  0.00468    CDp =  0.05169

 Side 1  free  transition at x/c =  0.5092   61
 Side 2 forced transition at x/c =  1.0000   68

  29   rms: 0.1459E-01   max: -.1568E+00   T at   61  1
       a = 11.000      CL =  1.1600
      Cm = -0.0657     CD =  0.05431   =>   CDf =  0.00468    CDp =  0.04963

 Side 1  free  transition at x/c =  0.5126   62
 Side 2 forced transition at x/c =  1.0000   68

  30   rms: 0.5721E-01   max: 0.3037E+00   D at   64  1
       a = 11.000      CL =  1.1475
      Cm = -0.0649     CD =  0.05637   =>   CDf =  0.00468    CDp =  0.05169

 Side 1  free  transition at x/c =  0.5092   61
 Side 2 forced transition at x/c =  1.0000   68

  31   rms: 0.1459E-01   max: -.1568E+00   T at   61  1
       a = 11.000      CL =  1.1600
      Cm = -0.0657     CD =  0.05431   =>   CDf =  0.00468    CDp =  0.04963

 Side 1  free  transition at x/c =  0.5126   62
 Side 2 forced transition at x/c =  1.0000   68

  32   rms: 0.5721E-01   max: 0.3037E+00   D at   64  1
       a = 11.000      CL =  1.1475
      Cm = -0.0649     CD =  0.05637   =>   CDf =  0.00468    CDp =  0.05169

 Side 1  free  transition at x/c =  0.5092   61
 Side 2 forced transition at x/c =  1.0000   68

  33   rms: 0.1459E-01   max: -.1568E+00   T at   61  1
       a = 11.000      CL =  1.1600
      Cm = -0.0657     CD =  0.05431   =>   CDf =  0.00468    CDp =  0.04963

 Side 1  free  transition at x/c =  0.5126   62
 Side 2 forced transition at x/c =  1.0000   68

  34   rms: 0.5721E-01   max: 0.3037E+00   D at   64  1
       a = 11.000      CL =  1.1475
      Cm = -0.0649     CD =  0.05637   =>   CDf =  0.00468    CDp =  0.05169

 Side 1  free  transition at x/c =  0.5092   61
 Side 2 forced transition at x/c =  1.0000   68

  35   rms: 0.1459E-01   max: -.1568E+00   T at   61  1
       a = 11.000      CL =  1.1600
      Cm = -0.0657     CD =  0.05431   =>   CDf =  0.00468    CDp =  0.04963

 Side 1  free  transition at x/c =  0.5126   62
 Side 2 forced transition at x/c =  1.0000   68

  36   rms: 0.5721E-01   max: 0.3037E+00   D at   64  1
       a = 11.000      CL =  1.1475
      Cm = -0.0649     CD =  0.05637   =>   CDf =  0.00468    CDp =  0.05169

 Side 1  free  transition at x/c =  0.5092   61
 Side 2 forced transition at x/c =  1.0000   68

  37   rms: 0.1459E-01   max: -.1568E+00   T at   61  1
       a = 11.000      CL =  1.1600
      Cm = -0.0657     CD =  0.05431   =>   CDf =  0.00468    CDp =  0.04963

 Side 1  free  transition at x/c =  0.5126   62
 Side 2 forced transition at x/c =  1.0000   68

  38   rms: 0.5721E-01   max: 0.3037E+00   D at   64  1
       a = 11.000      CL =  1.1475
      Cm = -0.0649     CD =  0.05637   =>   CDf =  0.00468    CDp =  0.05169

 Side 1  free  transition at x/c =  0.5092   61
 Side 2 forced transition at x/c =  1.0000   68

  39   rms: 0.1459E-01   max: -.1568E+00   T at   61  1
       a = 11.000      CL =  1.1600
      Cm = -0.0657     CD =  0.05431   =>   CDf =  0.00468    CDp =  0.04963

 Side 1  free  transition at x/c =  0.5126   62
 Side 2 forced transition at x/c =  1.0000   68

  40   rms: 0.5721E-01   max: 0.3037E+00   D at   64  1
       a = 11.000      CL =  1.1475
      Cm = -0.0649     CD =  0.05637   =>   CDf =  0.00468    CDp =  0.05169

 Side 1  free  transition at x/c =  0.5092   61
 Side 2 forced transition at x/c =  1.0000   68

  41   rms: 0.1459E-01   max: -.1568E+00   T at   61  1
       a = 11.000      CL =  1.1600
      Cm = -0.0657     CD =  0.05431   =>   CDf =  0.00468    CDp =  0.04963

 Side 1  free  transition at x/c =  0.5126   62
 Side 2 forced transition at x/c =  1.0000   68

  42   rms: 0.5721E-01   max: 0.3037E+00   D at   64  1
       a = 11.000      CL =  1.1475
      Cm = -0.0649     CD =  0.05637   =>   CDf =  0.00468    CDp =  0.05169

 Side 1  free  transition at x/c =  0.5092   61
 Side 2 forced transition at x/c =  1.0000   68

  43   rms: 0.1459E-01   max: -.1568E+00   T at   61  1
       a = 11.000      CL =  1.1600
      Cm = -0.0657     CD =  0.05431   =>   CDf =  0.00468    CDp =  0.04963

 Side 1  free  transition at x/c =  0.5126   62
 Side 2 forced transition at x/c =  1.0000   68

  44   rms: 0.5721E-01   max: 0.3037E+00   D at   64  1
       a = 11.000      CL =  1.1475
      Cm = -0.0649     CD =  0.05637   =>   CDf =  0.00468    CDp =  0.05169

 Side 1  free  transition at x/c =  0.5092   61
 Side 2 forced transition at x/c =  1.0000   68

  45   rms: 0.1459E-01   max: -.1568E+00   T at   61  1
       a = 11.000      CL =  1.1600
      Cm = -0.0657     CD =  0.05431   =>   CDf =  0.00468    CDp =  0.04963

 Side 1  free  transition at x/c =  0.5126   62
 Side 2 forced transition at x/c =  1.0000   68

  46   rms: 0.5720E-01   max: 0.3037E+00   D at   64  1
       a = 11.000      CL =  1.1475
      Cm = -0.0649     CD =  0.05637   =>   CDf =  0.00468    CDp =  0.05169

 Side 1  free  transition at x/c =  0.5092   61
 Side 2 forced transition at x/c =  1.0000   68

  47   rms: 0.1459E-01   max: -.1568E+00   T at   61  1
       a = 11.000      CL =  1.1600
      Cm = -0.0657     CD =  0.05431   =>   CDf =  0.00468    CDp =  0.04963

 Side 1  free  transition at x/c =  0.5126   62
 Side 2 forced transition at x/c =  1.0000   68

  48   rms: 0.5721E-01   max: 0.3037E+00   D at   64  1
       a = 11.000      CL =  1.1475
      Cm = -0.0649     CD =  0.05637   =>   CDf =  0.00468    CDp =  0.05169

 Side 1  free  transition at x/c =  0.5092   61
 Side 2 forced transition at x/c =  1.0000   68

  49   rms: 0.1459E-01   max: -.1568E+00   T at   61  1
       a = 11.000      CL =  1.1600
      Cm = -0.0657     CD =  0.05431   =>   CDf =  0.00468    CDp =  0.04963

 Side 1  free  transition at x/c =  0.5126   62
 Side 2 forced transition at x/c =  1.0000   68

  50   rms: 0.5721E-01   max: 0.3037E+00   D at   64  1
       a = 11.000      CL =  1.1475
      Cm = -0.0649     CD =  0.05637   =>   CDf =  0.00468    CDp =  0.05169

 Side 1  free  transition at x/c =  0.5092   61
 Side 2 forced transition at x/c =  1.0000   68

  51   rms: 0.1459E-01   max: -.1568E+00   T at   61  1
       a = 11.000      CL =  1.1600
      Cm = -0.0657     CD =  0.05431   =>   CDf =  0.00468    CDp =  0.04963

 Side 1  free  transition at x/c =  0.5126   62
 Side 2 forced transition at x/c =  1.0000   68

  52   rms: 0.5721E-01   max: 0.3037E+00   D at   64  1
       a = 11.000      CL =  1.1475
      Cm = -0.0649     CD =  0.05637   =>   CDf =  0.00468    CDp =  0.05169

 Side 1  free  transition at x/c =  0.5092   61
 Side 2 forced transition at x/c =  1.0000   68

  53   rms: 0.1459E-01   max: -.1568E+00   T at   61  1
       a = 11.000      CL =  1.1600
      Cm = -0.0657     CD =  0.05431   =>   CDf =  0.00468    CDp =  0.04963

 Side 1  free  transition at x/c =  0.5126   62
 Side 2 forced transition at x/c =  1.0000   68

  54   rms: 0.5721E-01   max: 0.3037E+00   D at   64  1
       a = 11.000      CL =  1.1475
      Cm = -0.0649     CD =  0.05637   =>   CDf =  0.00468    CDp =  0.05169

 Side 1  free  transition at x/c =  0.5092   61
 Side 2 forced transition at x/c =  1.0000   68

  55   rms: 0.1459E-01   max: -.1568E+00   T at   61  1
       a = 11.000      CL =  1.1600
      Cm = -0.0657     CD =  0.05431   =>   CDf =  0.00468    CDp =  0.04963

 Side 1  free  transition at x/c =  0.5126   62
 Side 2 forced transition at x/c =  1.0000   68

  56   rms: 0.5721E-01   max: 0.3037E+00   D at   64  1
       a = 11.000      CL =  1.1475
      Cm = -0.0649     CD =  0.05637   =>   CDf =  0.00468    CDp =  0.05169

 Side 1  free  transition at x/c =  0.5092   61
 Side 2 forced transition at x/c =  1.0000   68

  57   rms: 0.1459E-01   max: -.1568E+00   T at   61  1
       a = 11.000      CL =  1.1600
      Cm = -0.0657     CD =  0.05431   =>   CDf =  0.00468    CDp =  0.04963

 Side 1  free  transition at x/c =  0.5126   62
 Side 2 forced transition at x/c =  1.0000   68

  58   rms: 0.5721E-01   max: 0.3037E+00   D at   64  1
       a = 11.000      CL =  1.1475
      Cm = -0.0649     CD =  0.05637   =>   CDf =  0.00468    CDp =  0.05169

 Side 1  free  transition at x/c =  0.5092   61
 Side 2 forced transition at x/c =  1.0000   68

  59   rms: 0.1459E-01   max: -.1568E+00   T at   61  1
       a = 11.000      CL =  1.1600
      Cm = -0.0657     CD =  0.05431   =>   CDf =  0.00468    CDp =  0.04963

 Side 1  free  transition at x/c =  0.5126   62
 Side 2 forced transition at x/c =  1.0000   68

  60   rms: 0.5721E-01   max: 0.3037E+00   D at   64  1
       a = 11.000      CL =  1.1475
      Cm = -0.0649     CD =  0.05637   =>   CDf =  0.00468    CDp =  0.05169

 Side 1  free  transition at x/c =  0.5092   61
 Side 2 forced transition at x/c =  1.0000   68

  61   rms: 0.1459E-01   max: -.1568E+00   T at   61  1
       a = 11.000      CL =  1.1600
      Cm = -0.0657     CD =  0.05431   =>   CDf =  0.00468    CDp =  0.04963

 Side 1  free  transition at x/c =  0.5126   62
 Side 2 forced transition at x/c =  1.0000   68

  62   rms: 0.5721E-01   max: 0.3037E+00   D at   64  1
       a = 11.000      CL =  1.1475
      Cm = -0.0649     CD =  0.05637   =>   CDf =  0.00468    CDp =  0.05169

 Side 1  free  transition at x/c =  0.5092   61
 Side 2 forced transition at x/c =  1.0000   68

  63   rms: 0.1459E-01   max: -.1568E+00   T at   61  1
       a = 11.000      CL =  1.1600
      Cm = -0.0657     CD =  0.05431   =>   CDf =  0.00468    CDp =  0.04963

 Side 1  free  transition at x/c =  0.5126   62
 Side 2 forced transition at x/c =  1.0000   68

  64   rms: 0.5721E-01   max: 0.3037E+00   D at   64  1
       a = 11.000      CL =  1.1475
      Cm = -0.0649     CD =  0.05637   =>   CDf =  0.00468    CDp =  0.05169

 Side 1  free  transition at x/c =  0.5092   61
 Side 2 forced transition at x/c =  1.0000   68

  65   rms: 0.1459E-01   max: -.1568E+00   T at   61  1
       a = 11.000      CL =  1.1600
      Cm = -0.0657     CD =  0.05431   =>   CDf =  0.00468    CDp =  0.04963

 Side 1  free  transition at x/c =  0.5126   62
 Side 2 forced transition at x/c =  1.0000   68

  66   rms: 0.5721E-01   max: 0.3037E+00   D at   64  1
       a = 11.000      CL =  1.1475
      Cm = -0.0649     CD =  0.05637   =>   CDf =  0.00468    CDp =  0.05169

 Side 1  free  transition at x/c =  0.5092   61
 Side 2 forced transition at x/c =  1.0000   68

  67   rms: 0.1459E-01   max: -.1568E+00   T at   61  1
       a = 11.000      CL =  1.1600
      Cm = -0.0657     CD =  0.05431   =>   CDf =  0.00468    CDp =  0.04963

 Side 1  free  transition at x/c =  0.5126   62
 Side 2 forced transition at x/c =  1.0000   68

  68   rms: 0.5721E-01   max: 0.3037E+00   D at   64  1
       a = 11.000      CL =  1.1475
      Cm = -0.0649     CD =  0.05637   =>   CDf =  0.00468    CDp =  0.05169

 Side 1  free  transition at x/c =  0.5092   61
 Side 2 forced transition at x/c =  1.0000   68

  69   rms: 0.1459E-01   max: -.1568E+00   T at   61  1
       a = 11.000      CL =  1.1600
      Cm = -0.0657     CD =  0.05431   =>   CDf =  0.00468    CDp =  0.04963

 Side 1  free  transition at x/c =  0.5126   62
 Side 2 forced transition at x/c =  1.0000   68

  70   rms: 0.5721E-01   max: 0.3037E+00   D at   64  1
       a = 11.000      CL =  1.1475
      Cm = -0.0649     CD =  0.05637   =>   CDf =  0.00468    CDp =  0.05169

 Side 1  free  transition at x/c =  0.5092   61
 Side 2 forced transition at x/c =  1.0000   68

  71   rms: 0.1459E-01   max: -.1568E+00   T at   61  1
       a = 11.000      CL =  1.1600
      Cm = -0.0657     CD =  0.05431   =>   CDf =  0.00468    CDp =  0.04963

 Side 1  free  transition at x/c =  0.5126   62
 Side 2 forced transition at x/c =  1.0000   68

  72   rms: 0.5721E-01   max: 0.3037E+00   D at   64  1
       a = 11.000      CL =  1.1475
      Cm = -0.0649     CD =  0.05637   =>   CDf =  0.00468    CDp =  0.05169

 Side 1  free  transition at x/c =  0.5092   61
 Side 2 forced transition at x/c =  1.0000   68

  73   rms: 0.1459E-01   max: -.1568E+00   T at   61  1
       a = 11.000      CL =  1.1600
      Cm = -0.0657     CD =  0.05431   =>   CDf =  0.00468    CDp =  0.04963

 Side 1  free  transition at x/c =  0.5126   62
 Side 2 forced transition at x/c =  1.0000   68

  74   rms: 0.5721E-01   max: 0.3037E+00   D at   64  1
       a = 11.000      CL =  1.1475
      Cm = -0.0649     CD =  0.05637   =>   CDf =  0.00468    CDp =  0.05169

 Side 1  free  transition at x/c =  0.5092   61
 Side 2 forced transition at x/c =  1.0000   68

  75   rms: 0.1459E-01   max: -.1568E+00   T at   61  1
       a = 11.000      CL =  1.1600
      Cm = -0.0657     CD =  0.05431   =>   CDf =  0.00468    CDp =  0.04963

 Side 1  free  transition at x/c =  0.5126   62
 Side 2 forced transition at x/c =  1.0000   68

  76   rms: 0.5721E-01   max: 0.3037E+00   D at   64  1
       a = 11.000      CL =  1.1475
      Cm = -0.0649     CD =  0.05637   =>   CDf =  0.00468    CDp =  0.05169

 Side 1  free  transition at x/c =  0.5092   61
 Side 2 forced transition at x/c =  1.0000   68

  77   rms: 0.1459E-01   max: -.1568E+00   T at   61  1
       a = 11.000      CL =  1.1600
      Cm = -0.0657     CD =  0.05431   =>   CDf =  0.00468    CDp =  0.04963

 Side 1  free  transition at x/c =  0.5126   62
 Side 2 forced transition at x/c =  1.0000   68

  78   rms: 0.5721E-01   max: 0.3037E+00   D at   64  1
       a = 11.000      CL =  1.1475
      Cm = -0.0649     CD =  0.05637   =>   CDf =  0.00468    CDp =  0.05169

 Side 1  free  transition at x/c =  0.5092   61
 Side 2 forced transition at x/c =  1.0000   68

  79   rms: 0.1459E-01   max: -.1568E+00   T at   61  1
       a = 11.000      CL =  1.1600
      Cm = -0.0657     CD =  0.05431   =>   CDf =  0.00468    CDp =  0.04963

 Side 1  free  transition at x/c =  0.5126   62
 Side 2 forced transition at x/c =  1.0000   68

  80   rms: 0.5721E-01   max: 0.3037E+00   D at   64  1
       a = 11.000      CL =  1.1475
      Cm = -0.0649     CD =  0.05637   =>   CDf =  0.00468    CDp =  0.05169

 Side 1  free  transition at x/c =  0.5092   61
 Side 2 forced transition at x/c =  1.0000   68

  81   rms: 0.1459E-01   max: -.1568E+00   T at   61  1
       a = 11.000      CL =  1.1600
      Cm = -0.0657     CD =  0.05431   =>   CDf =  0.00468    CDp =  0.04963

 Side 1  free  transition at x/c =  0.5126   62
 Side 2 forced transition at x/c =  1.0000   68

  82   rms: 0.5721E-01   max: 0.3037E+00   D at   64  1
       a = 11.000      CL =  1.1475
      Cm = -0.0649     CD =  0.05637   =>   CDf =  0.00468    CDp =  0.05169

 Side 1  free  transition at x/c =  0.5092   61
 Side 2 forced transition at x/c =  1.0000   68

  83   rms: 0.1459E-01   max: -.1568E+00   T at   61  1
       a = 11.000      CL =  1.1600
      Cm = -0.0657     CD =  0.05431   =>   CDf =  0.00468    CDp =  0.04963

 Side 1  free  transition at x/c =  0.5126   62
 Side 2 forced transition at x/c =  1.0000   68

  84   rms: 0.5721E-01   max: 0.3037E+00   D at   64  1
       a = 11.000      CL =  1.1475
      Cm = -0.0649     CD =  0.05637   =>   CDf =  0.00468    CDp =  0.05169

 Side 1  free  transition at x/c =  0.5092   61
 Side 2 forced transition at x/c =  1.0000   68

  85   rms: 0.1459E-01   max: -.1568E+00   T at   61  1
       a = 11.000      CL =  1.1600
      Cm = -0.0657     CD =  0.05431   =>   CDf =  0.00468    CDp =  0.04963

 Side 1  free  transition at x/c =  0.5126   62
 Side 2 forced transition at x/c =  1.0000   68

  86   rms: 0.5721E-01   max: 0.3037E+00   D at   64  1
       a = 11.000      CL =  1.1475
      Cm = -0.0649     CD =  0.05637   =>   CDf =  0.00468    CDp =  0.05169

 Side 1  free  transition at x/c =  0.5092   61
 Side 2 forced transition at x/c =  1.0000   68

  87   rms: 0.1459E-01   max: -.1568E+00   T at   61  1
       a = 11.000      CL =  1.1600
      Cm = -0.0657     CD =  0.05431   =>   CDf =  0.00468    CDp =  0.04963

 Side 1  free  transition at x/c =  0.5126   62
 Side 2 forced transition at x/c =  1.0000   68

  88   rms: 0.5720E-01   max: 0.3037E+00   D at   64  1

[TIMEOUT]
