
 ===================================================
  XFOIL Version 6.99
  Copyright (C) 2000   Mark Drela, Harold Youngren

  This software comes with ABSOLUTELY NO WARRANTY,
    subject to the GNU General Public License.

  Caveat computor
 ===================================================

 File  xfoil.def  not found

   QUIT    Exit program

  .OPER    Direct operating point(s)
  .MDES    Complex mapping design routine
  .QDES    Surface speed design routine
  .GDES    Geometry design routine

   SAVE f  Write airfoil to labeled coordinate file
   PSAV f  Write airfoil to plain coordinate file
   ISAV f  Write airfoil to ISES coordinate file
   MSAV f  Write airfoil to MSES coordinate file
   REVE    Reverse written-airfoil node ordering

   LOAD f  Read buffer airfoil from coordinate file
   NACA i  Set NACA 4,5-digit airfoil and buffer airfoil
   INTE    Set buffer airfoil by interpolating two airfoils
   NORM    Buffer airfoil normalization toggle
   XYCM rr Change CM reference location, currently  0.25000 0.00000

   BEND    Display structural properties of current airfoil

   PCOP    Set current-airfoil panel nodes directly from buffer airfoil points
   PANE    Set current-airfoil panel nodes ( 160 ) based on curvature
  .PPAR    Show/change paneling

  .PLOP    Plotting options

   WDEF f  Write  current-settings file
   RDEF f  Reread current-settings file
   NAME s  Specify new airfoil name
   NINC    Increment name version number

   Z       Zoom    | (available in all menus)
   U       Unzoom  | 

 XFOIL   c>  
 Labeled airfoil file.  Name:  ONERA HOR07 AIRFOIL                             

 Number of input coordinate points: 100
 Counterclockwise ordering
 Max thickness =     0.071785  at x =   0.245
 Max camber    =     0.044488  at x =   0.396

  LE  x,y  =  -0.00001   0.00031  |   Chord =   1.00001
  TE  x,y  =   1.00000   0.00000  |

 Current airfoil nodes set from buffer airfoil nodes ( 100 )

 WARNING: Poor input coordinate distribution
          Excessive panel angle   50.0  at i =  45
          Repaneling with PANE and/or PPAR suggested
           (doing GDES,CADD before repaneling _may_
            improve excessively coarse LE spacing

 XFOIL   c>  
 XFOIL   c>  
 Blunt trailing edge.  Gap =  0.00982

 Paneling parameters used...
   Number of panel nodes       160
   Panel bunching parameter    1.000
   TE/LE panel density ratio   0.150
   Refined-area/LE panel density ratio    0.200
   Top    side refined area x/c limits  1.000 1.000
   Bottom side refined area x/c limits  1.000 1.000

 XFOIL   c>  
.OPERi   c>  
 Xtr/c     =  1.0000    top    side
 Xtr/c     =  1.0000    bottom side
 Ncrit     =    9.00   ( 0.070 % turb. level )
 Vacc      =  0.0100

 Klag  =  5.6000     Uxwt  =    1.00
 A     =  6.7000     B     =  0.7500       KCt = 0.01485
 CtiniK=  1.8000     CtiniX=  3.3000

..VPAR   c>  
..VPAR   c>  
.OPERi   c>  
 M  =    0.0000
 Re =    200000

.OPERv   c>  
.OPERv   c>  
.OPERv   c>  
 Polar  1 newly created for accumulation
 Airfoil archived with polar: ONERA HOR07 AIRFOIL                             

Enter  polar save filename  OR  <return> for no file   s>  
 New polar save file available

Enter  polar dump filename  OR  <return> for no file   s>  
 Polar dump file will NOT be written

 Polar accumulation enabled

.OPERva   c>   Calculating unit vorticity distributions ...
 Calculating wake trajectory ...
 Calculating source influence matrix ...

 Solving BL system ...

 Initializing BL ...
    side            1  ...
 MRCHUE: Inverse mode at  15     Hk =   3.800
 MRCHUE: Inverse mode at  16     Hk =   4.438
 MRCHUE: Convergence failed at  19  side 1    Res =  0.3666E+01
 MRCHUE: Inverse mode at  20     Hk =   3.800
 MRCHUE: Inverse mode at  53     Hk =   4.106
 MRCHUE: Inverse mode at  54     Hk =   4.498
 MRCHUE: Inverse mode at  55     Hk =   4.884
 MRCHUE: Inverse mode at  56     Hk =   5.263
 MRCHUE: Inverse mode at  57     Hk =   5.638
 MRCHUE: Inverse mode at  58     Hk =   6.008
 MRCHUE: Inverse mode at  59     Hk =   6.374
 MRCHUE: Inverse mode at  60     Hk =   6.736
 MRCHUE: Inverse mode at  61     Hk =   5.131
 MRCHUE: Inverse mode at  62     Hk =   3.803
 MRCHUE: Inverse mode at  63     Hk =   2.788
    side            2  ...
 MRCHUE: Inverse mode at  12     Hk =   3.800
 MRCHUE: Convergence failed at  13  side 2    Res =  0.1796E+01
 MRCHUE: Inverse mode at  14     Hk =   4.826
 MRCHUE: Inverse mode at  15     Hk =   5.793
 MRCHUE: Inverse mode at  16     Hk =   6.828
 MRCHUE: Inverse mode at  17     Hk =   7.981
 MRCHUE: Inverse mode at  18     Hk =   9.303
 MRCHUE: Inverse mode at  19     Hk =   8.163
 MRCHUE: Inverse mode at  20     Hk =   2.502
 MRCHUE: Inverse mode at  21     Hk =   2.500
 MRCHUE: Inverse mode at  22     Hk =   2.500
 MRCHUE: Inverse mode at  23     Hk =   2.500
 MRCHUE: Inverse mode at  25     Hk =   2.500

 MRCHDU: Convergence failed at  20  side 2    Res =  0.1785E+01
 MRCHDU: Convergence failed at  21  side 2    Res =  0.1732E+02
 MRCHDU: Convergence failed at  22  side 2    Res =  0.1131E+02
 MRCHDU: Convergence failed at  23  side 2    Res =  0.8120E+01
 MRCHDU: Convergence failed at  24  side 2    Res =  0.2639E+02
 MRCHDU: Convergence failed at  25  side 2    Res =  0.7048E+02
 MRCHDU: Convergence failed at  26  side 2    Res =  0.7546E+02
 MRCHDU: Convergence failed at  27  side 2    Res =  0.2120E+02
 MRCHDU: Convergence failed at  28  side 2    Res =  0.2461E+02
 MRCHDU: Convergence failed at  29  side 2    Res =  0.1776E+02
 MRCHDU: Convergence failed at  30  side 2    Res =  0.2809E+02
 MRCHDU: Convergence failed at  31  side 2    Res =  0.3625E+02
 MRCHDU: Convergence failed at  32  side 2    Res =  0.3454E+02
 MRCHDU: Convergence failed at  33  side 2    Res =  0.4505E+02
 MRCHDU: Convergence failed at  34  side 2    Res =  0.4926E+02
 MRCHDU: Convergence failed at  35  side 2    Res =  0.5246E+02
 MRCHDU: Convergence failed at  36  side 2    Res =  0.5007E+02
 MRCHDU: Convergence failed at  37  side 2    Res =  0.4062E+02
 MRCHDU: Convergence failed at  38  side 2    Res =  0.4467E+02
 MRCHDU: Convergence failed at  39  side 2    Res =  0.4677E+02
 MRCHDU: Convergence failed at  40  side 2    Res =  0.3393E+03
 MRCHDU: Convergence failed at  41  side 2    Res =  0.6400E+02
 MRCHDU: Convergence failed at  42  side 2    Res =  0.2669E+03
 MRCHDU: Convergence failed at  43  side 2    Res =  0.2755E+02
 MRCHDU: Convergence failed at  44  side 2    Res =  0.3437E+02
 MRCHDU: Convergence failed at  45  side 2    Res =  0.1274E+03
 MRCHDU: Convergence failed at  46  side 2    Res =  0.5798E+02
 MRCHDU: Convergence failed at  47  side 2    Res =  0.1589E+03
 MRCHDU: Convergence failed at  48  side 2    Res =  0.1412E+03
 MRCHDU: Convergence failed at  49  side 2    Res =  0.6503E+02
 MRCHDU: Convergence failed at  50  side 2    Res =  0.7683E+02
 MRCHDU: Convergence failed at  51  side 2    Res =  0.7332E+02
 MRCHDU: Convergence failed at  52  side 2    Res =  0.4277E+02
 MRCHDU: Convergence failed at  53  side 2    Res =  0.1097E+03
 MRCHDU: Convergence failed at  54  side 2    Res =  0.8548E+02
 MRCHDU: Convergence failed at  55  side 2    Res =  0.8891E+02
 MRCHDU: Convergence failed at  56  side 2    Res =  0.9326E+02
 MRCHDU: Convergence failed at  57  side 2    Res =  0.8825E+02
 MRCHDU: Convergence failed at  58  side 2    Res =  0.9120E+02
 MRCHDU: Convergence failed at  59  side 2    Res =  0.1005E+03
 MRCHDU: Convergence failed at  60  side 2    Res =  0.9998E+02
 MRCHDU: Convergence failed at  61  side 2    Res =  0.6360E+03
 MRCHDU: Convergence failed at  62  side 2    Res =  0.1220E+04
 MRCHDU: Convergence failed at  63  side 2    Res =  0.2965E+02
 MRCHDU: Convergence failed at  64  side 2    Res =  0.4564E+02
 MRCHDU: Convergence failed at  65  side 2    Res =  0.2982E+02
 MRCHDU: Convergence failed at  66  side 2    Res =  0.3001E+02
 MRCHDU: Convergence failed at  67  side 2    Res =  0.1254E+03
 MRCHDU: Convergence failed at  68  side 2    Res =  0.3733E+02
 MRCHDU: Convergence failed at  69  side 2    Res =  0.3711E+02
 MRCHDU: Convergence failed at  70  side 2    Res =  0.3784E+02
 MRCHDU: Convergence failed at  71  side 2    Res =  0.3831E+02
 MRCHDU: Convergence failed at  72  side 2    Res =  0.3833E+02
 MRCHDU: Convergence failed at  73  side 2    Res =  0.3725E+02
 MRCHDU: Convergence failed at  74  side 2    Res =  0.3528E+02
 MRCHDU: Convergence failed at  75  side 2    Res =  0.3523E+02
 MRCHDU: Convergence failed at  76  side 2    Res =  0.4079E+02
 MRCHDU: Convergence failed at  77  side 2    Res =  0.2807E+02
 MRCHDU: Convergence failed at  78  side 2    Res =  0.3749E+02
 MRCHDU: Convergence failed at  79  side 2    Res =  0.3676E+02
 MRCHDU: Convergence failed at  80  side 2    Res =  0.4321E+02
 MRCHDU: Convergence failed at  81  side 2    Res =  0.3755E+02
 MRCHDU: Convergence failed at  82  side 2    Res =  0.4178E+02
 MRCHDU: Convergence failed at  83  side 2    Res =  0.2197E+03
 MRCHDU: Convergence failed at  84  side 2    Res =  0.3331E+03
 MRCHDU: Convergence failed at  85  side 2    Res =  0.1361E+03
 Side 1  free  transition at x/c =  0.7566   61
 Side 2  free  transition at x/c =  0.0493   19

   1   rms: 0.1918E+01   max: 0.8386E+01   T at   19  2   RLX: 0.088
       a = -4.000      CL = -2.1043
      Cm =  0.5078     CD =  0.00762   =>   CDf =  0.00378    CDp =  0.00383

 MRCHDU: Convergence failed at  27  side 2    Res =  0.3231E+00
 MRCHDU: Convergence failed at  28  side 2    Res =  0.2513E-02
 MRCHDU: Convergence failed at  61  side 2    Res =  0.2233E+00
 MRCHDU: Convergence failed at  62  side 2    Res =  0.2377E+00
 MRCHDU: Convergence failed at  63  side 2    Res =  0.2545E+00
 MRCHDU: Convergence failed at  64  side 2    Res =  0.2701E+00
 MRCHDU: Convergence failed at  65  side 2    Res =  0.2828E+00
 MRCHDU: Convergence failed at  66  side 2    Res =  0.2953E+00
 MRCHDU: Convergence failed at  67  side 2    Res =  0.3096E+00
 MRCHDU: Convergence failed at  68  side 2    Res =  0.3241E+00
 MRCHDU: Convergence failed at  69  side 2    Res =  0.3367E+00
 MRCHDU: Convergence failed at  70  side 2    Res =  0.3487E+00
 MRCHDU: Convergence failed at  71  side 2    Res =  0.3600E+00
 MRCHDU: Convergence failed at  72  side 2    Res =  0.3712E+00
 MRCHDU: Convergence failed at  73  side 2    Res =  0.3835E+00
 MRCHDU: Convergence failed at  74  side 2    Res =  0.3955E+00
 MRCHDU: Convergence failed at  75  side 2    Res =  0.4072E+00
 MRCHDU: Convergence failed at  76  side 2    Res =  0.4176E+00
 MRCHDU: Convergence failed at  77  side 2    Res =  0.4284E+00
 MRCHDU: Convergence failed at  78  side 2    Res =  0.4415E+00
 MRCHDU: Convergence failed at  79  side 2    Res =  0.4537E+00
 MRCHDU: Convergence failed at  80  side 2    Res =  0.4658E+00
 MRCHDU: Convergence failed at  81  side 2    Res =  0.4797E+00
 MRCHDU: Convergence failed at  82  side 2    Res =  0.4935E+00
 MRCHDU: Convergence failed at  83  side 2    Res =  0.5079E+00
 MRCHDU: Convergence failed at  84  side 2    Res =  0.5227E+00
 MRCHDU: Convergence failed at  85  side 2    Res =  0.5349E+00
 Side 1  free  transition at x/c =  0.7637   61
 Side 2  free  transition at x/c =  0.0425   19

   2   rms: 0.7663E+00   max: 0.3455E+01   T at   19  2   RLX: 0.263
       a = -4.000      CL = -1.0378
      Cm =  0.1651     CD =  0.03230   =>   CDf =  0.00497    CDp =  0.02734

 MRCHDU: Convergence failed at  19  side 2    Res =  0.7106E+01
 Side 1  free  transition at x/c =  0.7928   63
 Side 2  free  transition at x/c =  0.0370   18

   3   rms: 0.9817E+00   max: 0.4188E+01   T at   18  2   RLX: 0.263
       a = -4.000      CL = -0.9362
      Cm =  0.0825     CD =  0.03666   =>   CDf =  0.00427    CDp =  0.03239

 Side 1  free  transition at x/c =  0.8125   64
 Side 2  free  transition at x/c =  0.0443   19

   4   rms: 0.7310E+00   max: -.8513E+01   T at   19  2   RLX: 0.059
       a = -4.000      CL = -0.8406
      Cm =  0.0762     CD =  0.04951   =>   CDf =  0.00376    CDp =  0.04575

 Side 1  free  transition at x/c =  0.8163   64
 Side 2  free  transition at x/c =  0.0482   19

   5   rms: 0.4896E+00   max: -.1404E+01   C at   64  1   RLX: 0.356
       a = -4.000      CL = -0.5977
      Cm =  0.0195     CD =  0.04603   =>   CDf =  0.00365    CDp =  0.04238

 Side 1  free  transition at x/c =  0.8380   66
 Side 2  free  transition at x/c =  0.0479   19

   6   rms: 0.3801E+00   max: -.9561E+00   C at   66  1   RLX: 0.523
       a = -4.000      CL = -0.3021
      Cm = -0.0603     CD =  0.03570   =>   CDf =  0.00357    CDp =  0.03212

 Side 1  free  transition at x/c =  0.8597   67
 Side 2  free  transition at x/c =  0.0493   19

   7   rms: 0.3233E+00   max: -.1056E+01   D at   79  2   RLX: 0.473
       a = -4.000      CL = -0.1965
      Cm = -0.0809     CD =  0.03632   =>   CDf =  0.00364    CDp =  0.03269

 MRCHDU: Convergence failed at  87  side 2    Res =  0.2896E-01
 Side 1  free  transition at x/c =  0.8744   68
 Side 2  free  transition at x/c =  0.0669   21

   8   rms: 0.3933E+00   max: 0.1656E+01   T at   21  2   RLX: 0.750
       a = -4.000      CL = -0.0499
      Cm = -0.0938     CD =  0.02470   =>   CDf =  0.00671    CDp =  0.01799

 MRCHDU: Convergence failed at  25  side 2    Res =  0.1692E+01
 MRCHDU: Convergence failed at  26  side 2    Res =  0.1477E+03
 MRCHDU: Convergence failed at  27  side 2    Res =  0.3795E+01
 MRCHDU: Convergence failed at  28  side 2    Res =  0.2513E+01
 MRCHDU: Convergence failed at  29  side 2    Res =  0.2539E+01
 MRCHDU: Convergence failed at  30  side 2    Res =  0.3075E+01
 MRCHDU: Convergence failed at  31  side 2    Res =  0.3186E+01
 MRCHDU: Convergence failed at  32  side 2    Res =  0.3434E+01
 MRCHDU: Convergence failed at  33  side 2    Res =  0.3613E+01
 MRCHDU: Convergence failed at  34  side 2    Res =  0.3835E+01
 MRCHDU: Convergence failed at  35  side 2    Res =  0.4090E+01
 MRCHDU: Convergence failed at  36  side 2    Res =  0.4422E+01
 MRCHDU: Convergence failed at  37  side 2    Res =  0.4853E+01
 MRCHDU: Convergence failed at  38  side 2    Res =  0.5647E+01
 MRCHDU: Convergence failed at  39  side 2    Res =  0.5888E+01
 MRCHDU: Convergence failed at  40  side 2    Res =  0.5350E+01
 MRCHDU: Convergence failed at  41  side 2    Res =  0.5282E+01
 MRCHDU: Convergence failed at  42  side 2    Res =  0.6395E+01
 MRCHDU: Convergence failed at  43  side 2    Res =  0.7685E+01
 MRCHDU: Convergence failed at  44  side 2    Res =  0.8004E+01
 MRCHDU: Convergence failed at  45  side 2    Res =  0.7524E+01
 MRCHDU: Convergence failed at  46  side 2    Res =  0.7246E+01
 MRCHDU: Convergence failed at  47  side 2    Res =  0.7484E+01
 MRCHDU: Convergence failed at  48  side 2    Res =  0.7706E+01
 MRCHDU: Convergence failed at  49  side 2    Res =  0.7734E+01
 MRCHDU: Convergence failed at  50  side 2    Res =  0.7824E+01
 MRCHDU: Convergence failed at  51  side 2    Res =  0.8288E+01
 MRCHDU: Convergence failed at  52  side 2    Res =  0.8914E+01
 MRCHDU: Convergence failed at  53  side 2    Res =  0.9119E+01
 MRCHDU: Convergence failed at  54  side 2    Res =  0.8873E+01
 MRCHDU: Convergence failed at  55  side 2    Res =  0.8741E+01
 MRCHDU: Convergence failed at  56  side 2    Res =  0.8892E+01
 MRCHDU: Convergence failed at  57  side 2    Res =  0.9105E+01
 MRCHDU: Convergence failed at  58  side 2    Res =  0.9210E+01
 MRCHDU: Convergence failed at  59  side 2    Res =  0.9178E+01
 MRCHDU: Convergence failed at  60  side 2    Res =  0.9110E+01
 MRCHDU: Convergence failed at  61  side 2    Res =  0.9053E+01
 MRCHDU: Convergence failed at  62  side 2    Res =  0.8930E+01
 MRCHDU: Convergence failed at  63  side 2    Res =  0.8774E+01
 MRCHDU: Convergence failed at  64  side 2    Res =  0.8677E+01
 MRCHDU: Convergence failed at  65  side 2    Res =  0.8640E+01
 MRCHDU: Convergence failed at  66  side 2    Res =  0.8536E+01
 MRCHDU: Convergence failed at  67  side 2    Res =  0.8348E+01
 MRCHDU: Convergence failed at  68  side 2    Res =  0.7754E+01
 MRCHDU: Convergence failed at  69  side 2    Res =  0.7681E+01
 MRCHDU: Convergence failed at  70  side 2    Res =  0.7625E+01
 MRCHDU: Convergence failed at  71  side 2    Res =  0.7241E+01
 MRCHDU: Convergence failed at  72  side 2    Res =  0.7145E+01
 MRCHDU: Convergence failed at  73  side 2    Res =  0.6712E+01
 MRCHDU: Convergence failed at  74  side 2    Res =  0.6562E+01
 MRCHDU: Convergence failed at  75  side 2    Res =  0.6454E+01
 MRCHDU: Convergence failed at  76  side 2    Res =  0.6454E+01
 MRCHDU: Convergence failed at  77  side 2    Res =  0.6370E+01
 MRCHDU: Convergence failed at  78  side 2    Res =  0.6063E+01
 MRCHDU: Convergence failed at  79  side 2    Res =  0.5970E+01
 MRCHDU: Convergence failed at  80  side 2    Res =  0.5995E+01
 MRCHDU: Convergence failed at  81  side 2    Res =  0.5814E+01
 MRCHDU: Convergence failed at  82  side 2    Res =  0.4506E+01
 MRCHDU: Convergence failed at  83  side 2    Res =  0.5561E+01
 MRCHDU: Convergence failed at  84  side 2    Res =  0.5936E+01
 MRCHDU: Convergence failed at  85  side 2    Res =  0.6621E+01
 Side 1  free  transition at x/c =  0.8955   70
 Side 2  free  transition at x/c =  0.0513   20

   9   rms: 0.4236E+00   max: 0.3951E+00   D at   95  2   RLX: 0.691
       a = -4.000      CL = -0.2500
      Cm = -0.0138     CD =  0.02714   =>   CDf =  0.00359    CDp =  0.02354

 Side 1  free  transition at x/c =  0.9101   71
 Side 2  free  transition at x/c =  0.0506   20

  10   rms: 0.2029E+00   max: -.1193E+01   T at   20  2   RLX: 0.419
       a = -4.000      CL = -0.1435
      Cm = -0.0510     CD =  0.02213   =>   CDf =  0.00754    CDp =  0.01459

 Side 1  free  transition at x/c =  0.9150   71
 Side 2  free  transition at x/c =  0.0517   20

  11   rms: 0.1211E+00   max: -.5521E+00   D at   20  2   RLX: 0.906
       a = -4.000      CL = -0.0305
      Cm = -0.0906     CD =  0.02780   =>   CDf =  0.00572    CDp =  0.02208

 Side 1  free  transition at x/c =  0.9187   72
 Side 2  free  transition at x/c =  0.0526   19

  12   rms: 0.1766E-01   max: -.1789E+00   T at   19  2
       a = -4.000      CL = -0.0225
      Cm = -0.0930     CD =  0.02851   =>   CDf =  0.00471    CDp =  0.02380

 Side 1  free  transition at x/c =  0.9175   72
 Side 2  free  transition at x/c =  0.0536   19

  13   rms: 0.1026E-01   max: -.4691E-01   T at   19  2
       a = -4.000      CL = -0.0227
      Cm = -0.0930     CD =  0.02865   =>   CDf =  0.00457    CDp =  0.02408

 Side 1  free  transition at x/c =  0.9174   72
 Side 2  free  transition at x/c =  0.0540   19

  14   rms: 0.5982E-03   max: -.4528E-02   T at   19  2
       a = -4.000      CL = -0.0227
      Cm = -0.0930     CD =  0.02868   =>   CDf =  0.00461    CDp =  0.02407

 Side 1  free  transition at x/c =  0.9174   72
 Side 2  free  transition at x/c =  0.0540   19

  15   rms: 0.6565E-05   max: -.8226E-04   T at   19  2
       a = -4.000      CL = -0.0227
      Cm = -0.0930     CD =  0.02868   =>   CDf =  0.00461    CDp =  0.02407
 plradd ia,ip,cpol            1           0  2.10823980E-03

 Point added to stored polar  1
 Point written to save file  hor07_Re200k.base.pol                           
 Dump file unspecified or not available
 Calculating wake trajectory ...
 Calculating source influence matrix ...

 Solving BL system ...

 Side 1  free  transition at x/c =  0.9174   72
 Side 2  free  transition at x/c =  0.0540   19

   1   rms: 0.1721E+00   max: -.1336E+01   T at   19  2   RLX: 0.374
       a = -3.500      CL = -0.0078
      Cm = -0.0917     CD =  0.02988   =>   CDf =  0.00461    CDp =  0.02528

 Side 1  free  transition at x/c =  0.8985   71
 Side 2  free  transition at x/c =  0.0594   19

   2   rms: 0.2187E+00   max: 0.3107E+01   T at   19  2   RLX: 0.425
       a = -3.500      CL = -0.0026
      Cm = -0.0915     CD =  0.02924   =>   CDf =  0.00427    CDp =  0.02497

 Side 1  free  transition at x/c =  0.8891   70
 Side 2  free  transition at x/c =  0.0525   19

   3   rms: 0.1614E+00   max: -.1013E+01   T at   19  2   RLX: 0.493
       a = -3.500      CL = -0.0073
      Cm = -0.0890     CD =  0.03497   =>   CDf =  0.00389    CDp =  0.03107

 Side 1  free  transition at x/c =  0.8814   70
 Side 2  free  transition at x/c =  0.0564   19

   4   rms: 0.1939E+00   max: -.4219E+01   T at   19  2   RLX: 0.119
       a = -3.500      CL = -0.0155
      Cm = -0.0868     CD =  0.03916   =>   CDf =  0.00395    CDp =  0.03521

 Side 1  free  transition at x/c =  0.8802   70
 Side 2  free  transition at x/c =  0.0666   20

   5   rms: 0.1080E+00   max: -.7532E+00   T at   20  2   RLX: 0.664
       a = -3.500      CL =  0.0076
      Cm = -0.0883     CD =  0.03286   =>   CDf =  0.00411    CDp =  0.02876

 Side 1  free  transition at x/c =  0.8774   69
 Side 2  free  transition at x/c =  0.0718   20

   6   rms: 0.5736E+00   max: -.1253E+02   T at   20  2   RLX: 0.040
       a = -3.500      CL =  0.0055
      Cm = -0.0882     CD =  0.03615   =>   CDf =  0.00417    CDp =  0.03198

 Side 1  free  transition at x/c =  0.8771   69
 Side 2  free  transition at x/c =  0.0754   20

   7   rms: 0.2509E+00   max: -.7125E+00   D at   58  2   RLX: 0.702
       a = -3.500      CL =  0.0256
      Cm = -0.0957     CD =  0.03081   =>   CDf =  0.00395    CDp =  0.02687

 Side 1  free  transition at x/c =  0.8771   69
 Side 2  free  transition at x/c =  0.0556   19

   8   rms: 0.1186E+00   max: -.1230E+01   T at   19  2   RLX: 0.406
       a = -3.500      CL =  0.0086
      Cm = -0.0910     CD =  0.03416   =>   CDf =  0.00417    CDp =  0.02999

 Side 1  free  transition at x/c =  0.8767   69
 Side 2  free  transition at x/c =  0.0576   19

   9   rms: 0.1730E+00   max: -.7015E+00   D at   20  2   RLX: 0.713
       a = -3.500      CL =  0.0234
      Cm = -0.0931     CD =  0.03011   =>   CDf =  0.00411    CDp =  0.02600

 Side 1  free  transition at x/c =  0.8771   69
 Side 2  free  transition at x/c =  0.0512   19

  10   rms: 0.1660E+00   max: -.7515E+00   D at   19  2   RLX: 0.665
       a = -3.500      CL =  0.0165
      Cm = -0.0900     CD =  0.03181   =>   CDf =  0.00415    CDp =  0.02766

 Side 1  free  transition at x/c =  0.8770   69
 Side 2  free  transition at x/c =  0.0530   19

  11   rms: 0.1301E+00   max: -.1017E+01   T at   19  2   RLX: 0.491
       a = -3.500      CL =  0.0142
      Cm = -0.0896     CD =  0.03312   =>   CDf =  0.00418    CDp =  0.02894

 Side 1  free  transition at x/c =  0.8769   69
 Side 2  free  transition at x/c =  0.0580   19

  12   rms: 0.2264E+00   max: -.4567E+01   T at   19  2   RLX: 0.109
       a = -3.500      CL =  0.0116
      Cm = -0.0894     CD =  0.03601   =>   CDf =  0.00416    CDp =  0.03186

 Side 1  free  transition at x/c =  0.8767   69
 Side 2  free  transition at x/c =  0.0553   19

  13   rms: 0.1987E+00   max: -.7958E+00   D at   19  2   RLX: 0.628
       a = -3.500      CL =  0.0185
      Cm = -0.0928     CD =  0.03110   =>   CDf =  0.00401    CDp =  0.02710

 Side 1  free  transition at x/c =  0.8770   69
 Side 2  free  transition at x/c =  0.0521   19

  14   rms: 0.1482E+00   max: -.8038E+00   T at   19  2   RLX: 0.622
       a = -3.500      CL =  0.0163
      Cm = -0.0907     CD =  0.03172   =>   CDf =  0.00418    CDp =  0.02754

 Side 1  free  transition at x/c =  0.8774   69
 Side 2  free  transition at x/c =  0.0553   19

  15   rms: 0.1236E+00   max: -.1568E+01   T at   19  2   RLX: 0.319
       a = -3.500      CL =  0.0131
      Cm = -0.0903     CD =  0.03399   =>   CDf =  0.00417    CDp =  0.02982

 Side 1  free  transition at x/c =  0.8770   69
 Side 2  free  transition at x/c =  0.0565   19

  16   rms: 0.2193E+00   max: -.7535E+00   D at   19  2   RLX: 0.664
       a = -3.500      CL =  0.0254
      Cm = -0.0947     CD =  0.02915   =>   CDf =  0.00405    CDp =  0.02511

 Side 1  free  transition at x/c =  0.8777   70
 Side 2  free  transition at x/c =  0.0496   18

  17   rms: 0.2418E+00   max: -.8266E+00   D at   19  2   RLX: 0.605
       a = -3.500      CL = -0.0026
      Cm = -0.0859     CD =  0.03598   =>   CDf =  0.00392    CDp =  0.03205

 Side 1  free  transition at x/c =  0.8778   70
 Side 2  free  transition at x/c =  0.0494   18

  18   rms: 0.2226E+00   max: -.7820E+00   D at   19  2   RLX: 0.639
       a = -3.500      CL =  0.0039
      Cm = -0.0879     CD =  0.03382   =>   CDf =  0.00386    CDp =  0.02996

 Side 1  free  transition at x/c =  0.8775   70
 Side 2  free  transition at x/c =  0.0487   18

  19   rms: 0.2159E+00   max: -.7207E+00   D at   19  2   RLX: 0.694
       a = -3.500      CL =  0.0164
      Cm = -0.0913     CD =  0.03054   =>   CDf =  0.00396    CDp =  0.02658

 Side 1  free  transition at x/c =  0.8778   70
 Side 2  free  transition at x/c =  0.0471   18

  20   rms: 0.2443E+00   max: 0.6910E+00   T at   18  2   RLX: 0.736
       a = -3.500      CL =  0.0353
      Cm = -0.0961     CD =  0.02567   =>   CDf =  0.00420    CDp =  0.02147

 Side 1  free  transition at x/c =  0.8794   70
 Side 2  free  transition at x/c =  0.0434   18

  21   rms: 0.6852E+00   max: 0.2446E+01   T at   18  2   RLX: 0.260
       a = -3.500      CL =  0.0567
      Cm = -0.0997     CD =  0.02149   =>   CDf =  0.00483    CDp =  0.01666

 Side 1  free  transition at x/c =  0.8825   70
 Side 2  free  transition at x/c =  0.0393   18

  22   rms: 0.2650E+00   max: -.8725E+00   D at   27  2   RLX: 0.573
       a = -3.500      CL =  0.0609
      Cm = -0.0999     CD =  0.01932   =>   CDf =  0.00543    CDp =  0.01389

 Side 1  free  transition at x/c =  0.8840   70
 Side 2  free  transition at x/c =  0.0385   18

  23   rms: 0.9633E-01   max: -.4488E+00   D at   27  2
       a = -3.500      CL =  0.0580
      Cm = -0.0985     CD =  0.01744   =>   CDf =  0.00623    CDp =  0.01120

 Side 1  free  transition at x/c =  0.8842   70
 Side 2  free  transition at x/c =  0.0384   17

  24   rms: 0.1888E-01   max: 0.1244E+00   D at   18  2
       a = -3.500      CL =  0.0550
      Cm = -0.0977     CD =  0.01875   =>   CDf =  0.00665    CDp =  0.01211

 Side 1  free  transition at x/c =  0.8834   70
 Side 2  free  transition at x/c =  0.0385   18

  25   rms: 0.3285E-01   max: 0.1300E+00   D at   20  2
       a = -3.500      CL =  0.0556
      Cm = -0.0979     CD =  0.01837   =>   CDf =  0.00690    CDp =  0.01147

 Side 1  free  transition at x/c =  0.8837   70
 Side 2  free  transition at x/c =  0.0386   18

  26   rms: 0.1182E-02   max: 0.7916E-02   D at   18  2
       a = -3.500      CL =  0.0555
      Cm = -0.0979     CD =  0.01837   =>   CDf =  0.00675    CDp =  0.01162

 Side 1  free  transition at x/c =  0.8836   70
 Side 2  free  transition at x/c =  0.0386   18

  27   rms: 0.8386E-05   max: 0.3703E-04   D at   18  2
       a = -3.500      CL =  0.0555
      Cm = -0.0979     CD =  0.01837   =>   CDf =  0.00675    CDp =  0.01162
 plradd ia,ip,cpol            2           0  3.66030051E-03

 Point added to stored polar  1
 Point written to save file  hor07_Re200k.base.pol                           
 Dump file unspecified or not available
 Calculating wake trajectory ...
 Calculating source influence matrix ...

 Solving BL system ...

 Side 1  free  transition at x/c =  0.8836   70
 Side 2  free  transition at x/c =  0.0386   18

   1   rms: 0.2315E+00   max: -.6685E+00   D at   23  2   RLX: 0.748
       a = -3.000      CL =  0.0996
      Cm = -0.0983     CD =  0.01459   =>   CDf =  0.00675    CDp =  0.00784

 Side 1  free  transition at x/c =  0.8602   68
 Side 2  free  transition at x/c =  0.0442   18

   2   rms: 0.9155E-01   max: 0.9923E+00   D at   18  2
       a = -3.000      CL =  0.1119
      Cm = -0.0977     CD =  0.01575   =>   CDf =  0.00729    CDp =  0.00846

 Side 1  free  transition at x/c =  0.8513   68
 Side 2  free  transition at x/c =  0.0451   18

   3   rms: 0.1700E-01   max: 0.9108E-01   D at   20  2
       a = -3.000      CL =  0.1114
      Cm = -0.0977     CD =  0.01561   =>   CDf =  0.00731    CDp =  0.00830

 Side 1  free  transition at x/c =  0.8524   68
 Side 2  free  transition at x/c =  0.0451   18

   4   rms: 0.7444E-03   max: 0.7028E-02   D at   19  2
       a = -3.000      CL =  0.1114
      Cm = -0.0977     CD =  0.01561   =>   CDf =  0.00726    CDp =  0.00836

 Side 1  free  transition at x/c =  0.8523   68
 Side 2  free  transition at x/c =  0.0451   18

   5   rms: 0.4505E-05   max: 0.3122E-04   D at   19  2
       a = -3.000      CL =  0.1114
      Cm = -0.0977     CD =  0.01561   =>   CDf =  0.00725    CDp =  0.00836
 plradd ia,ip,cpol            3           0  3.66030051E-03

 Point added to stored polar  1
 Point written to save file  hor07_Re200k.base.pol                           
 Dump file unspecified or not available
 Calculating wake trajectory ...
 Calculating source influence matrix ...

 Solving BL system ...

 Side 1  free  transition at x/c =  0.8523   68
 Side 2  free  transition at x/c =  0.0451   18

   1   rms: 0.1285E+00   max: -.5437E+00   T at   18  2   RLX: 0.920
       a = -2.500      CL =  0.1623
      Cm = -0.0967     CD =  0.01410   =>   CDf =  0.00729    CDp =  0.00681

 Side 1  free  transition at x/c =  0.8291   67
 Side 2  free  transition at x/c =  0.0508   18

   2   rms: 0.1369E+00   max: -.4885E+00   D at   20  2
       a = -2.500      CL =  0.1702
      Cm = -0.0976     CD =  0.01251   =>   CDf =  0.00764    CDp =  0.00487

 Side 1  free  transition at x/c =  0.8269   67
 Side 2  free  transition at x/c =  0.0585   18

   3   rms: 0.3505E-01   max: 0.4263E+00   D at   18  2
       a = -2.500      CL =  0.1694
      Cm = -0.0973     CD =  0.01359   =>   CDf =  0.00759    CDp =  0.00600

 Side 1  free  transition at x/c =  0.8260   67
 Side 2  free  transition at x/c =  0.0559   18

   4   rms: 0.2422E-02   max: 0.2423E-01   T at   18  2
       a = -2.500      CL =  0.1693
      Cm = -0.0973     CD =  0.01363   =>   CDf =  0.00761    CDp =  0.00602

 Side 1  free  transition at x/c =  0.8260   67
 Side 2  free  transition at x/c =  0.0556   18

   5   rms: 0.3622E-04   max: -.3863E-03   D at   19  2
       a = -2.500      CL =  0.1693
      Cm = -0.0973     CD =  0.01363   =>   CDf =  0.00762    CDp =  0.00602
 plradd ia,ip,cpol            4           0  3.66030051E-03

 Point added to stored polar  1
 Point written to save file  hor07_Re200k.base.pol                           
 Dump file unspecified or not available
 Calculating wake trajectory ...
 Calculating source influence matrix ...

 Solving BL system ...

 Side 1  free  transition at x/c =  0.8260   67
 Side 2  free  transition at x/c =  0.0556   18

   1   rms: 0.1504E+00   max: -.1433E+01   T at   18  2   RLX: 0.349
       a = -2.000      CL =  0.1895
      Cm = -0.0973     CD =  0.01319   =>   CDf =  0.00762    CDp =  0.00557

 Side 1  free  transition at x/c =  0.8165   66
 Side 2  free  transition at x/c =  0.0643   19

   2   rms: 0.4236E+00   max: -.1951E+01   T at   19  2   RLX: 0.256
       a = -2.000      CL =  0.2008
      Cm = -0.0976     CD =  0.01218   =>   CDf =  0.00779    CDp =  0.00440

 MRCHDU: Convergence failed at  20  side 2    Res =  0.2292E+01
 MRCHDU: Convergence failed at  21  side 2    Res =  0.1352E+02
 MRCHDU: Convergence failed at  22  side 2    Res =  0.5150E+02
 MRCHDU: Convergence failed at  23  side 2    Res =  0.1411E+03
 MRCHDU: Convergence failed at  24  side 2    Res =  0.6387E+02
 MRCHDU: Convergence failed at  25  side 2    Res =  0.2990E+02
 MRCHDU: Convergence failed at  26  side 2    Res =  0.2091E+02
 MRCHDU: Convergence failed at  27  side 2    Res =  0.1536E+02
 MRCHDU: Convergence failed at  28  side 2    Res =  0.1163E+02
 MRCHDU: Convergence failed at  29  side 2    Res =  0.1449E+02
 MRCHDU: Convergence failed at  30  side 2    Res =  0.1649E+02
 MRCHDU: Convergence failed at  31  side 2    Res =  0.1800E+02
 MRCHDU: Convergence failed at  32  side 2    Res =  0.1916E+02
 MRCHDU: Convergence failed at  33  side 2    Res =  0.2043E+02
 MRCHDU: Convergence failed at  34  side 2    Res =  0.2325E+02
 MRCHDU: Convergence failed at  35  side 2    Res =  0.2872E+02
 MRCHDU: Convergence failed at  36  side 2    Res =  0.3393E+02
 MRCHDU: Convergence failed at  37  side 2    Res =  0.3048E+02
 MRCHDU: Convergence failed at  38  side 2    Res =  0.2239E+02
 MRCHDU: Convergence failed at  39  side 2    Res =  0.1779E+02
 MRCHDU: Convergence failed at  40  side 2    Res =  0.2217E+02
 MRCHDU: Convergence failed at  41  side 2    Res =  0.4018E+02
 MRCHDU: Convergence failed at  42  side 2    Res =  0.4193E+02
 MRCHDU: Convergence failed at  43  side 2    Res =  0.2763E+02
 MRCHDU: Convergence failed at  44  side 2    Res =  0.2313E+02
 MRCHDU: Convergence failed at  45  side 2    Res =  0.2364E+02
 MRCHDU: Convergence failed at  46  side 2    Res =  0.2363E+02
 MRCHDU: Convergence failed at  47  side 2    Res =  0.2181E+02
 MRCHDU: Convergence failed at  48  side 2    Res =  0.2074E+02
 MRCHDU: Convergence failed at  49  side 2    Res =  0.2258E+02
 MRCHDU: Convergence failed at  50  side 2    Res =  0.2557E+02
 MRCHDU: Convergence failed at  51  side 2    Res =  0.2568E+02
 MRCHDU: Convergence failed at  52  side 2    Res =  0.2263E+02
 MRCHDU: Convergence failed at  53  side 2    Res =  0.2067E+02
 MRCHDU: Convergence failed at  54  side 2    Res =  0.2059E+02
 MRCHDU: Convergence failed at  55  side 2    Res =  0.2095E+02
 MRCHDU: Convergence failed at  56  side 2    Res =  0.2077E+02
 MRCHDU: Convergence failed at  57  side 2    Res =  0.2990E+02
 MRCHDU: Convergence failed at  58  side 2    Res =  0.3018E+02
 MRCHDU: Convergence failed at  59  side 2    Res =  0.3040E+02
 MRCHDU: Convergence failed at  60  side 2    Res =  0.3039E+02
 MRCHDU: Convergence failed at  61  side 2    Res =  0.3024E+02
 MRCHDU: Convergence failed at  62  side 2    Res =  0.4029E+02
 MRCHDU: Convergence failed at  63  side 2    Res =  0.4443E+02
 MRCHDU: Convergence failed at  64  side 2    Res =  0.5366E+02
 MRCHDU: Convergence failed at  65  side 2    Res =  0.3065E+02
 MRCHDU: Convergence failed at  66  side 2    Res =  0.1479E+02
 MRCHDU: Convergence failed at  67  side 2    Res =  0.1606E+02
 MRCHDU: Convergence failed at  68  side 2    Res =  0.1623E+02
 MRCHDU: Convergence failed at  69  side 2    Res =  0.1647E+02
 MRCHDU: Convergence failed at  70  side 2    Res =  0.1688E+02
 MRCHDU: Convergence failed at  71  side 2    Res =  0.1758E+02
 MRCHDU: Convergence failed at  72  side 2    Res =  0.1867E+02
 MRCHDU: Convergence failed at  73  side 2    Res =  0.1929E+02
 MRCHDU: Convergence failed at  74  side 2    Res =  0.1843E+02
 MRCHDU: Convergence failed at  75  side 2    Res =  0.1861E+02
 MRCHDU: Convergence failed at  76  side 2    Res =  0.2235E+02
 MRCHDU: Convergence failed at  77  side 2    Res =  0.2285E+02
 MRCHDU: Convergence failed at  78  side 2    Res =  0.2120E+02
 MRCHDU: Convergence failed at  79  side 2    Res =  0.2482E+02
 MRCHDU: Convergence failed at  80  side 2    Res =  0.2554E+02
 MRCHDU: Convergence failed at  81  side 2    Res =  0.2908E+02
 MRCHDU: Convergence failed at  82  side 2    Res =  0.3604E+02
 MRCHDU: Convergence failed at  83  side 2    Res =  0.9571E+02
 MRCHDU: Convergence failed at  87  side 2    Res =  0.1940E+01
 MRCHDU: Convergence failed at  88  side 2    Res =  0.2782E+01
 MRCHDU: Convergence failed at  89  side 2    Res =  0.4253E+01
 Side 1  free  transition at x/c =  0.8128   66
 Side 2  free  transition at x/c =  0.0805   20

   3   rms: 0.6595E+00   max: 0.1664E+01   T at   47  2   RLX: 0.901
       a = -2.000      CL =  0.1098
      Cm = -0.0637     CD =  0.01167   =>   CDf =  0.00353    CDp =  0.00814

 Side 1  free  transition at x/c =  0.8022   66
 Side 2  free  transition at x/c =  0.0718   19

   4   rms: 0.2836E+00   max: -.1606E+01   T at   19  2   RLX: 0.311
       a = -2.000      CL =  0.1781
      Cm = -0.0761     CD =  0.01630   =>   CDf =  0.00722    CDp =  0.00908

 Side 1  free  transition at x/c =  0.8023   66
 Side 2  free  transition at x/c =  0.0822   20

   5   rms: 0.4783E+00   max: -.2641E+01   D at   45  2   RLX: 0.189
       a = -2.000      CL =  0.1948
      Cm = -0.0815     CD =  0.01384   =>   CDf =  0.00775    CDp =  0.00609

 Side 1  free  transition at x/c =  0.8025   66
 Side 2  free  transition at x/c =  0.0855   20

   6   rms: 0.5284E+00   max: -.2691E+01   D at   35  2   RLX: 0.186
       a = -2.000      CL =  0.2010
      Cm = -0.0846     CD =  0.01295   =>   CDf =  0.00787    CDp =  0.00508

 Side 1  free  transition at x/c =  0.8026   66
 Side 2  free  transition at x/c =  0.0887   20

   7   rms: 0.2771E+00   max: -.1705E+01   D at   39  2   RLX: 0.293
       a = -2.000      CL =  0.2071
      Cm = -0.0880     CD =  0.01278   =>   CDf =  0.00808    CDp =  0.00470

 Side 1  free  transition at x/c =  0.8027   66
 Side 2  free  transition at x/c =  0.0940   21

   8   rms: 0.2065E+00   max: -.1262E+01   D at   40  2   RLX: 0.396
       a = -2.000      CL =  0.2121
      Cm = -0.0915     CD =  0.01255   =>   CDf =  0.00811    CDp =  0.00444

 Side 1  free  transition at x/c =  0.8026   66
 Side 2  free  transition at x/c =  0.0979   21

   9   rms: 0.1265E+00   max: -.9155E+00   D at   44  2   RLX: 0.546
       a = -2.000      CL =  0.2193
      Cm = -0.0943     CD =  0.01262   =>   CDf =  0.00796    CDp =  0.00467

 Side 1  free  transition at x/c =  0.8025   66
 Side 2  free  transition at x/c =  0.1021   21

  10   rms: 0.6921E-01   max: -.6720E+00   D at   44  2   RLX: 0.744
       a = -2.000      CL =  0.2245
      Cm = -0.0962     CD =  0.01276   =>   CDf =  0.00778    CDp =  0.00498

 Side 1  free  transition at x/c =  0.8024   66
 Side 2  free  transition at x/c =  0.1076   22

  11   rms: 0.2942E-01   max: -.3156E+00   D at   44  2
       a = -2.000      CL =  0.2266
      Cm = -0.0971     CD =  0.01269   =>   CDf =  0.00763    CDp =  0.00506

 Side 1  free  transition at x/c =  0.8023   66
 Side 2  free  transition at x/c =  0.1075   22

  12   rms: 0.3073E-02   max: -.3967E-01   D at   44  2
       a = -2.000      CL =  0.2266
      Cm = -0.0971     CD =  0.01271   =>   CDf =  0.00764    CDp =  0.00507

 Side 1  free  transition at x/c =  0.8023   66
 Side 2  free  transition at x/c =  0.1072   22

  13   rms: 0.4774E-04   max: -.7072E-03   D at   44  2
       a = -2.000      CL =  0.2266
      Cm = -0.0971     CD =  0.01271   =>   CDf =  0.00765    CDp =  0.00506
 plradd ia,ip,cpol            5           0  3.66030051E-03

 Point added to stored polar  1
 Point written to save file  hor07_Re200k.base.pol                           
 Dump file unspecified or not available
 Calculating wake trajectory ...
 Calculating source influence matrix ...

 Solving BL system ...

 Side 1  free  transition at x/c =  0.8023   66
 Side 2  free  transition at x/c =  0.1071   22

   1   rms: 0.2146E+00   max: -.2396E+01   T at   22  2   RLX: 0.209
       a = -1.500      CL =  0.2377
      Cm = -0.0970     CD =  0.01266   =>   CDf =  0.00765    CDp =  0.00501

 Side 1  free  transition at x/c =  0.7984   65
 Side 2  free  transition at x/c =  0.1188   23

   2   rms: 0.3053E+00   max: -.3501E+01   T at   23  2   RLX: 0.143
       a = -1.500      CL =  0.2462
      Cm = -0.0972     CD =  0.01275   =>   CDf =  0.00779    CDp =  0.00495

 Side 1  free  transition at x/c =  0.7951   65
 Side 2  free  transition at x/c =  0.1267   23

   3   rms: 0.2080E+00   max: -.3355E+01   T at   23  2   RLX: 0.149
       a = -1.500      CL =  0.2526
      Cm = -0.0971     CD =  0.01347   =>   CDf =  0.00781    CDp =  0.00566

 Side 1  free  transition at x/c =  0.7923   65
 Side 2  free  transition at x/c =  0.1389   24

   4   rms: 0.1277E+00   max: -.1244E+01   T at   24  2   RLX: 0.402
       a = -1.500      CL =  0.2638
      Cm = -0.0972     CD =  0.01236   =>   CDf =  0.00767    CDp =  0.00470

 Side 1  free  transition at x/c =  0.7866   66
 Side 2  free  transition at x/c =  0.1553   24

   5   rms: 0.6540E-01   max: -.7183E+00   T at   24  2   RLX: 0.696
       a = -1.500      CL =  0.2768
      Cm = -0.0967     CD =  0.01264   =>   CDf =  0.00773    CDp =  0.00492

 Side 1  free  transition at x/c =  0.7825   65
 Side 2  free  transition at x/c =  0.1753   26

   6   rms: 0.3785E-01   max: -.2488E+00   T at   26  2
       a = -1.500      CL =  0.2833
      Cm = -0.0971     CD =  0.01225   =>   CDf =  0.00776    CDp =  0.00450

 Side 1  free  transition at x/c =  0.7782   65
 Side 2  free  transition at x/c =  0.1867   26

   7   rms: 0.5032E-02   max: 0.5457E-01   D at   26  2
       a = -1.500      CL =  0.2832
      Cm = -0.0969     CD =  0.01253   =>   CDf =  0.00764    CDp =  0.00489

 Side 1  free  transition at x/c =  0.7786   65
 Side 2  free  transition at x/c =  0.1854   26

   8   rms: 0.2191E-03   max: -.2814E-02   D at   28  2
       a = -1.500      CL =  0.2832
      Cm = -0.0969     CD =  0.01253   =>   CDf =  0.00765    CDp =  0.00488

 Side 1  free  transition at x/c =  0.7786   65
 Side 2  free  transition at x/c =  0.1853   26

   9   rms: 0.1676E-05   max: -.7543E-05   D at   28  2
       a = -1.500      CL =  0.2832
      Cm = -0.0969     CD =  0.01253   =>   CDf =  0.00765    CDp =  0.00488
 plradd ia,ip,cpol            6           0  3.66030051E-03

 Point added to stored polar  1
 Point written to save file  hor07_Re200k.base.pol                           
 Dump file unspecified or not available
 Calculating wake trajectory ...
 Calculating source influence matrix ...

 Solving BL system ...

 Side 1  free  transition at x/c =  0.7786   65
 Side 2  free  transition at x/c =  0.1853   26

   1   rms: 0.1196E+00   max: -.1247E+01   T at   26  2   RLX: 0.401
       a = -1.000      CL =  0.3056
      Cm = -0.0967     CD =  0.01262   =>   CDf =  0.00765    CDp =  0.00497

 Side 1  free  transition at x/c =  0.7697   64
 Side 2  free  transition at x/c =  0.2071   28

   2   rms: 0.8005E-01   max: 0.6725E+00   D at   28  2
       a = -1.000      CL =  0.3397
      Cm = -0.0971     CD =  0.01212   =>   CDf =  0.00777    CDp =  0.00435

 Side 1  free  transition at x/c =  0.7549   63
 Side 2  free  transition at x/c =  0.2205   28

   3   rms: 0.7369E-01   max: -.5850E+00   D at   29  2   RLX: 0.855
       a = -1.000      CL =  0.3396
      Cm = -0.0962     CD =  0.01319   =>   CDf =  0.00806    CDp =  0.00513

 MRCHDU: Convergence failed at  29  side 2    Res =  0.1271E+02
 MRCHDU: Convergence failed at  30  side 2    Res =  0.5411E+01
 MRCHDU: Convergence failed at  31  side 2    Res =  0.5149E+01
 MRCHDU: Convergence failed at  32  side 2    Res =  0.1383E+02
 MRCHDU: Convergence failed at  33  side 2    Res =  0.7264E+02
 MRCHDU: Convergence failed at  34  side 2    Res =  0.1729E+03
 MRCHDU: Convergence failed at  35  side 2    Res =  0.1225E+03
 MRCHDU: Convergence failed at  36  side 2    Res =  0.7452E+02
 MRCHDU: Convergence failed at  37  side 2    Res =  0.3643E+02
 MRCHDU: Convergence failed at  38  side 2    Res =  0.4097E+02
 MRCHDU: Convergence failed at  39  side 2    Res =  0.2046E+03
 MRCHDU: Convergence failed at  40  side 2    Res =  0.5003E+02
 MRCHDU: Convergence failed at  41  side 2    Res =  0.5301E+02
 MRCHDU: Convergence failed at  42  side 2    Res =  0.1867E+03
 MRCHDU: Convergence failed at  43  side 2    Res =  0.3724E+03
 MRCHDU: Convergence failed at  44  side 2    Res =  0.6426E+03
 MRCHDU: Convergence failed at  45  side 2    Res =  0.1557E+03
 MRCHDU: Convergence failed at  46  side 2    Res =  0.1263E+03
 MRCHDU: Convergence failed at  47  side 2    Res =  0.8529E+02
 MRCHDU: Convergence failed at  48  side 2    Res =  0.5302E+02
 MRCHDU: Convergence failed at  49  side 2    Res =  0.3288E+02
 MRCHDU: Convergence failed at  50  side 2    Res =  0.2964E+02
 MRCHDU: Convergence failed at  51  side 2    Res =  0.3355E+02
 MRCHDU: Convergence failed at  52  side 2    Res =  0.3433E+02
 MRCHDU: Convergence failed at  53  side 2    Res =  0.3043E+02
 MRCHDU: Convergence failed at  54  side 2    Res =  0.2569E+02
 MRCHDU: Convergence failed at  55  side 2    Res =  0.2344E+02
 MRCHDU: Convergence failed at  56  side 2    Res =  0.2204E+02
 MRCHDU: Convergence failed at  57  side 2    Res =  0.2051E+02
 MRCHDU: Convergence failed at  58  side 2    Res =  0.1893E+02
 MRCHDU: Convergence failed at  59  side 2    Res =  0.1782E+02
 MRCHDU: Convergence failed at  60  side 2    Res =  0.1684E+02
 MRCHDU: Convergence failed at  61  side 2    Res =  0.1569E+02
 MRCHDU: Convergence failed at  62  side 2    Res =  0.1447E+02
 MRCHDU: Convergence failed at  63  side 2    Res =  0.1338E+02
 MRCHDU: Convergence failed at  64  side 2    Res =  0.1237E+02
 MRCHDU: Convergence failed at  65  side 2    Res =  0.1139E+02
 MRCHDU: Convergence failed at  66  side 2    Res =  0.1052E+02
 MRCHDU: Convergence failed at  67  side 2    Res =  0.9750E+01
 MRCHDU: Convergence failed at  68  side 2    Res =  0.9040E+01
 MRCHDU: Convergence failed at  69  side 2    Res =  0.8350E+01
 MRCHDU: Convergence failed at  70  side 2    Res =  0.7630E+01
 MRCHDU: Convergence failed at  71  side 2    Res =  0.6827E+01
 MRCHDU: Convergence failed at  72  side 2    Res =  0.6185E+01
 MRCHDU: Convergence failed at  73  side 2    Res =  0.5995E+01
 MRCHDU: Convergence failed at  74  side 2    Res =  0.5617E+01
 MRCHDU: Convergence failed at  75  side 2    Res =  0.4571E+01
 MRCHDU: Convergence failed at  76  side 2    Res =  0.4198E+01
 MRCHDU: Convergence failed at  77  side 2    Res =  0.4186E+01
 MRCHDU: Convergence failed at  78  side 2    Res =  0.3590E+01
 MRCHDU: Convergence failed at  79  side 2    Res =  0.3322E+01
 MRCHDU: Convergence failed at  80  side 2    Res =  0.2878E+01
 MRCHDU: Convergence failed at  81  side 2    Res =  0.2296E+01
 Side 1  free  transition at x/c =  0.7580   64
 Side 2  free  transition at x/c =  0.2307   29

   4   rms: 0.3708E+00   max: -.2013E+01   D at   82  2   RLX: 0.248
       a = -1.000      CL =  0.2138
      Cm = -0.0544     CD =  0.01034   =>   CDf =  0.00434    CDp =  0.00599

 Side 1  free  transition at x/c =  0.7577   64
 Side 2  free  transition at x/c =  0.2320   29

   5   rms: 0.1159E+00   max: -.6489E+00   D at   31  2   RLX: 0.771
       a = -1.000      CL =  0.3142
      Cm = -0.0879     CD =  0.01257   =>   CDf =  0.00863    CDp =  0.00394

 Side 1  free  transition at x/c =  0.7577   64
 Side 2  free  transition at x/c =  0.2280   29

   6   rms: 0.2933E-01   max: -.3187E+00   D at   31  2
       a = -1.000      CL =  0.3392
      Cm = -0.0966     CD =  0.01247   =>   CDf =  0.00791    CDp =  0.00456

 Side 1  free  transition at x/c =  0.7577   64
 Side 2  free  transition at x/c =  0.2268   29

   7   rms: 0.3062E-02   max: -.6318E-01   D at   31  2
       a = -1.000      CL =  0.3391
      Cm = -0.0966     CD =  0.01247   =>   CDf =  0.00776    CDp =  0.00472

 Side 1  free  transition at x/c =  0.7577   64
 Side 2  free  transition at x/c =  0.2263   29

   8   rms: 0.1410E-03   max: -.3268E-02   D at   31  2
       a = -1.000      CL =  0.3391
      Cm = -0.0966     CD =  0.01247   =>   CDf =  0.00776    CDp =  0.00471

 Side 1  free  transition at x/c =  0.7577   64
 Side 2  free  transition at x/c =  0.2263   29

   9   rms: 0.7127E-06   max: -.5530E-05   D at   31  2
       a = -1.000      CL =  0.3391
      Cm = -0.0966     CD =  0.01247   =>   CDf =  0.00776    CDp =  0.00471
 plradd ia,ip,cpol            7           0  3.66030051E-03

 Point added to stored polar  1
 Point written to save file  hor07_Re200k.base.pol                           
 Dump file unspecified or not available
 Calculating wake trajectory ...
 Calculating source influence matrix ...

 Solving BL system ...

 Side 1  free  transition at x/c =  0.7577   64
 Side 2  free  transition at x/c =  0.2263   29

   1   rms: 0.1065E+00   max: -.8773E+00   T at   29  2   RLX: 0.570
       a = -0.500      CL =  0.3705
      Cm = -0.0963     CD =  0.01242   =>   CDf =  0.00779    CDp =  0.00463

 Side 1  free  transition at x/c =  0.7481   64
 Side 2  free  transition at x/c =  0.2473   29

   2   rms: 0.5134E-01   max: -.4301E+00   T at   29  2
       a = -0.500      CL =  0.3961
      Cm = -0.0966     CD =  0.01232   =>   CDf =  0.00779    CDp =  0.00453

 Side 1  free  transition at x/c =  0.7359   63
 Side 2  free  transition at x/c =  0.2686   31

   3   rms: 0.1400E-01   max: -.1367E+00   D at   30  2
       a = -0.500      CL =  0.3955
      Cm = -0.0964     CD =  0.01230   =>   CDf =  0.00789    CDp =  0.00440

 Side 1  free  transition at x/c =  0.7381   63
 Side 2  free  transition at x/c =  0.2703   31

   4   rms: 0.2963E-02   max: 0.3436E-01   D at   31  2
       a = -0.500      CL =  0.3956
      Cm = -0.0965     CD =  0.01232   =>   CDf =  0.00778    CDp =  0.00454

 Side 1  free  transition at x/c =  0.7379   63
 Side 2  free  transition at x/c =  0.2698   31

   5   rms: 0.4840E-04   max: -.6038E-03   D at   33  2
       a = -0.500      CL =  0.3956
      Cm = -0.0965     CD =  0.01232   =>   CDf =  0.00779    CDp =  0.00453
 plradd ia,ip,cpol            8           0  5.78579400E-03

 Point added to stored polar  1
 Point written to save file  hor07_Re200k.base.pol                           
 Dump file unspecified or not available
 Calculating wake trajectory ...
 Calculating source influence matrix ...

 Solving BL system ...

 Side 1  free  transition at x/c =  0.7379   63
 Side 2  free  transition at x/c =  0.2698   31

   1   rms: 0.1312E+00   max: -.1122E+01   T at   31  2   RLX: 0.446
       a =  0.000      CL =  0.4211
      Cm = -0.0967     CD =  0.01215   =>   CDf =  0.00779    CDp =  0.00436

 Side 1  free  transition at x/c =  0.7269   63
 Side 2  free  transition at x/c =  0.2828   32

   2   rms: 0.2388E+00   max: -.1833E+01   T at   32  2   RLX: 0.273
       a =  0.000      CL =  0.4306
      Cm = -0.0966     CD =  0.01236   =>   CDf =  0.00809    CDp =  0.00427

 Side 1  free  transition at x/c =  0.7249   63
 Side 2  free  transition at x/c =  0.2918   32

   3   rms: 0.1051E+00   max: -.9037E+00   T at   32  2   RLX: 0.553
       a =  0.000      CL =  0.4429
      Cm = -0.0964     CD =  0.01260   =>   CDf =  0.00804    CDp =  0.00456

 Side 1  free  transition at x/c =  0.7223   62
 Side 2  free  transition at x/c =  0.3127   34

   4   rms: 0.6045E-01   max: -.3989E+00   C at   34  2
       a =  0.000      CL =  0.4525
      Cm = -0.0966     CD =  0.01174   =>   CDf =  0.00792    CDp =  0.00382

 Side 1  free  transition at x/c =  0.7173   63
 Side 2  free  transition at x/c =  0.3300   34

   5   rms: 0.5968E-02   max: -.7532E-01   D at   35  2
       a =  0.000      CL =  0.4527
      Cm = -0.0965     CD =  0.01205   =>   CDf =  0.00769    CDp =  0.00436

 Side 1  free  transition at x/c =  0.7178   63
 Side 2  free  transition at x/c =  0.3269   33

   6   rms: 0.6470E-03   max: 0.5330E-02   D at   34  2
       a =  0.000      CL =  0.4527
      Cm = -0.0965     CD =  0.01205   =>   CDf =  0.00770    CDp =  0.00435

 Side 1  free  transition at x/c =  0.7178   63
 Side 2  free  transition at x/c =  0.3267   33

   7   rms: 0.2949E-05   max: -.4014E-04   D at   34  2
       a =  0.000      CL =  0.4527
      Cm = -0.0965     CD =  0.01205   =>   CDf =  0.00770    CDp =  0.00435
 plradd ia,ip,cpol            9           0  0.20417885    

 Point added to stored polar  1
 Point written to save file  hor07_Re200k.base.pol                           
 Dump file unspecified or not available
 Calculating wake trajectory ...
 Calculating source influence matrix ...

 Solving BL system ...

 Side 1  free  transition at x/c =  0.7178   63
 Side 2  free  transition at x/c =  0.3267   33

   1   rms: 0.1190E+00   max: -.1016E+01   T at   33  2   RLX: 0.492
       a =  0.500      CL =  0.4810
      Cm = -0.0965     CD =  0.01200   =>   CDf =  0.00770    CDp =  0.00430

 MRCHDU: Convergence failed at  38  side 2    Res =  0.1936E+01
 MRCHDU: Convergence failed at  39  side 2    Res =  0.2648E+01
 MRCHDU: Convergence failed at  40  side 2    Res =  0.3301E+01
 Side 1  free  transition at x/c =  0.7079   62
 Side 2  free  transition at x/c =  0.3836   38

   2   rms: 0.6354E-01   max: -.4009E+00   T at   38  2
       a =  0.500      CL =  0.5101
      Cm = -0.0968     CD =  0.01164   =>   CDf =  0.00740    CDp =  0.00425

 Side 1  free  transition at x/c =  0.6969   62
 Side 2  free  transition at x/c =  0.5490   50

   3   rms: 0.2701E+00   max: -.4319E+01   C at   50  2   RLX: 0.116
       a =  0.500      CL =  0.5042
      Cm = -0.0954     CD =  0.01134   =>   CDf =  0.00717    CDp =  0.00417

 Side 1  free  transition at x/c =  0.6972   62
 Side 2  free  transition at x/c =  0.5620   50

   4   rms: 0.1628E+00   max: -.2644E+01   C at   50  2   RLX: 0.189
       a =  0.500      CL =  0.5056
      Cm = -0.0959     CD =  0.01128   =>   CDf =  0.00707    CDp =  0.00421

 Side 1  free  transition at x/c =  0.6976   62
 Side 2  free  transition at x/c =  0.7324   62

   5   rms: 0.1977E+01   max: -.2673E+02   C at   62  2   RLX: 0.019
       a =  0.500      CL =  0.5042
      Cm = -0.0951     CD =  0.01067   =>   CDf =  0.00642    CDp =  0.00425

 Side 1  free  transition at x/c =  0.6976   62
 Side 2  free  transition at x/c =  0.7471   62

   6   rms: 0.2102E+01   max: -.2523E+02   C at   62  2   RLX: 0.020
       a =  0.500      CL =  0.5031
      Cm = -0.0949     CD =  0.01059   =>   CDf =  0.00634    CDp =  0.00425

 Side 1  free  transition at x/c =  0.6977   62
 Side 2  free  transition at x/c =  0.7546   63

   7   rms: 0.1594E+01   max: -.1961E+02   C at   63  2   RLX: 0.026
       a =  0.500      CL =  0.5022
      Cm = -0.0947     CD =  0.01056   =>   CDf =  0.00632    CDp =  0.00423

 Side 1  free  transition at x/c =  0.6978   62
 Side 2  free  transition at x/c =  0.7672   64

   8   rms: 0.1234E+01   max: -.1517E+02   C at   64  2   RLX: 0.033
       a =  0.500      CL =  0.5012
      Cm = -0.0945     CD =  0.01051   =>   CDf =  0.00629    CDp =  0.00422

 Side 1  free  transition at x/c =  0.6979   62
 Side 2  free  transition at x/c =  0.7958   66

   9   rms: 0.1103E+01   max: -.1371E+02   C at   66  2   RLX: 0.036
       a =  0.500      CL =  0.5001
      Cm = -0.0942     CD =  0.01045   =>   CDf =  0.00624    CDp =  0.00420

 Side 1  free  transition at x/c =  0.6980   62
 Side 2  free  transition at x/c =  0.8572   70

  10   rms: 0.5571E+01   max: -.6534E+02   C at   70  2   RLX: 0.008
       a =  0.500      CL =  0.4998
      Cm = -0.0940     CD =  0.01034   =>   CDf =  0.00615    CDp =  0.00419

 Side 1  free  transition at x/c =  0.6980   62
 Side 2  free  transition at x/c =  0.8846   71

  11   rms: 0.5772E+02   max: 0.6501E+03   C at   71  2   RLX: 0.002
       a =  0.500      CL =  0.4990
      Cm = -0.0939     CD =  0.01047   =>   CDf =  0.00613    CDp =  0.00433

 Side 1  free  transition at x/c =  0.6982   62
 Side 2  free  transition at x/c =  0.7619   63

  12   rms: 0.1392E+01   max: -.1672E+02   C at   63  2   RLX: 0.030
       a =  0.500      CL =  0.4984
      Cm = -0.0939     CD =  0.01053   =>   CDf =  0.00630    CDp =  0.00423

 Side 1  free  transition at x/c =  0.6982   62
 Side 2  free  transition at x/c =  0.7879   65

  13   rms: 0.1200E+01   max: -.1461E+02   C at   65  2   RLX: 0.034
       a =  0.500      CL =  0.4974
      Cm = -0.0937     CD =  0.01046   =>   CDf =  0.00625    CDp =  0.00421

 Side 1  free  transition at x/c =  0.6983   62
 Side 2  free  transition at x/c =  0.8253   68

  14   rms: 0.1266E+01   max: -.1572E+02   C at   68  2   RLX: 0.032
       a =  0.500      CL =  0.4966
      Cm = -0.0934     CD =  0.01038   =>   CDf =  0.00619    CDp =  0.00419

 Side 1  free  transition at x/c =  0.6984   62
 Side 2  free  transition at x/c =  0.7587   63

  15   rms: 0.3659E+00   max: -.4458E+01   C at   63  2   RLX: 0.112
       a =  0.500      CL =  0.4967
      Cm = -0.0936     CD =  0.01049   =>   CDf =  0.00631    CDp =  0.00419

 Side 1  free  transition at x/c =  0.6986   62
 Side 2 forced transition at x/c =  1.0000   80

  16   rms: 0.3641E-01   max: 0.3655E+00   D at   38  2
       a =  0.500      CL =  0.5014
      Cm = -0.0946     CD =  0.01016   =>   CDf =  0.00611    CDp =  0.00405

 Side 1  free  transition at x/c =  0.6993   62
 Side 2 forced transition at x/c =  1.0000   80

  17   rms: 0.1338E-01   max: 0.1042E+00   D at   39  2
       a =  0.500      CL =  0.5011
      Cm = -0.0946     CD =  0.01017   =>   CDf =  0.00609    CDp =  0.00407

 Side 1  free  transition at x/c =  0.6992   62
 Side 2  free  transition at x/c =  0.5543   50

  18   rms: 0.1056E+00   max: -.1634E+01   C at   50  2   RLX: 0.306
       a =  0.500      CL =  0.5042
      Cm = -0.0958     CD =  0.01104   =>   CDf =  0.00688    CDp =  0.00416

 Side 1  free  transition at x/c =  0.6992   62
 Side 2  free  transition at x/c =  0.5836   52

  19   rms: 0.1400E+00   max: -.2117E+01   C at   52  2   RLX: 0.236
       a =  0.500      CL =  0.5048
      Cm = -0.0959     CD =  0.01096   =>   CDf =  0.00679    CDp =  0.00418

 Side 1  free  transition at x/c =  0.6991   62
 Side 2  free  transition at x/c =  0.6058   53

  20   rms: 0.1522E+00   max: -.2213E+01   C at   53  2   RLX: 0.226
       a =  0.500      CL =  0.5053
      Cm = -0.0960     CD =  0.01092   =>   CDf =  0.00672    CDp =  0.00420

 Side 1  free  transition at x/c =  0.6991   62
 Side 2  free  transition at x/c =  0.6266   55

  21   rms: 0.1336E+00   max: -.1980E+01   C at   55  2   RLX: 0.253
       a =  0.500      CL =  0.5056
      Cm = -0.0961     CD =  0.01086   =>   CDf =  0.00666    CDp =  0.00420

 Side 1  free  transition at x/c =  0.6991   62
 Side 2  free  transition at x/c =  0.6533   56

  22   rms: 0.1350E+00   max: -.1854E+01   C at   56  2   RLX: 0.270
       a =  0.500      CL =  0.5056
      Cm = -0.0961     CD =  0.01080   =>   CDf =  0.00658    CDp =  0.00421

 Side 1  free  transition at x/c =  0.6991   62
 Side 2  free  transition at x/c =  0.6799   58

  23   rms: 0.9976E-01   max: -.1352E+01   C at   58  2   RLX: 0.370
       a =  0.500      CL =  0.5054
      Cm = -0.0960     CD =  0.01072   =>   CDf =  0.00650    CDp =  0.00421

 Side 1  free  transition at x/c =  0.6992   62
 Side 2  free  transition at x/c =  0.7086   60

  24   rms: 0.5664E-01   max: -.7482E+00   C at   60  2   RLX: 0.668
       a =  0.500      CL =  0.5049
      Cm = -0.0958     CD =  0.01064   =>   CDf =  0.00642    CDp =  0.00422

 Side 1  free  transition at x/c =  0.6992   62
 Side 2  free  transition at x/c =  0.7403   62

  25   rms: 0.9168E-02   max: -.1194E+00   C at   62  2
       a =  0.500      CL =  0.5045
      Cm = -0.0957     CD =  0.01061   =>   CDf =  0.00634    CDp =  0.00427

 Side 1  free  transition at x/c =  0.6992   62
 Side 2  free  transition at x/c =  0.7438   62

  26   rms: 0.3327E-02   max: -.4263E-01   C at   62  2
       a =  0.500      CL =  0.5045
      Cm = -0.0957     CD =  0.01061   =>   CDf =  0.00633    CDp =  0.00428

 Side 1  free  transition at x/c =  0.6992   62
 Side 2  free  transition at x/c =  0.7457   62

  27   rms: 0.2871E-04   max: -.3638E-03   C at   62  2
       a =  0.500      CL =  0.5045
      Cm = -0.0957     CD =  0.01061   =>   CDf =  0.00632    CDp =  0.00429
 plradd ia,ip,cpol           10           0  0.20417885    

 Point added to stored polar  1
 Point written to save file  hor07_Re200k.base.pol                           
 Dump file unspecified or not available
 Calculating wake trajectory ...
 Calculating source influence matrix ...

 Solving BL system ...

 Side 1  free  transition at x/c =  0.6992   62
 Side 2  free  transition at x/c =  0.7457   62

   1   rms: 0.4688E+01   max: -.5900E+02   C at   62  2   RLX: 0.008
       a =  1.000      CL =  0.5039
      Cm = -0.0954     CD =  0.01053   =>   CDf =  0.00633    CDp =  0.00420

 Side 1  free  transition at x/c =  0.6991   62
 Side 2  free  transition at x/c =  0.7694   64

   2   rms: 0.4059E+01   max: -.5180E+02   C at   64  2   RLX: 0.010
       a =  1.000      CL =  0.5033
      Cm = -0.0951     CD =  0.01045   =>   CDf =  0.00627    CDp =  0.00419

 Side 1  free  transition at x/c =  0.6990   62
 Side 2  free  transition at x/c =  0.7990   66

   3   rms: 0.3960E+01   max: -.5023E+02   C at   66  2   RLX: 0.010
       a =  1.000      CL =  0.5026
      Cm = -0.0947     CD =  0.01038   =>   CDf =  0.00621    CDp =  0.00417

 Side 1  free  transition at x/c =  0.6989   62
 Side 2  free  transition at x/c =  0.8293   68

   4   rms: 0.5388E+01   max: -.6632E+02   C at   68  2   RLX: 0.008
       a =  1.000      CL =  0.5021
      Cm = -0.0945     CD =  0.01031   =>   CDf =  0.00616    CDp =  0.00415

 Side 1  free  transition at x/c =  0.6988   62
 Side 2  free  transition at x/c =  0.8549   69

   5   rms: 0.1329E+02   max: -.1525E+03   C at   69  2   RLX: 0.003
       a =  1.000      CL =  0.5019
      Cm = -0.0944     CD =  0.01026   =>   CDf =  0.00612    CDp =  0.00414

 Side 1  free  transition at x/c =  0.6987   62
 Side 2  free  transition at x/c =  0.8784   71

   6   rms: 0.7654E+02   max: 0.8837E+03   C at   71  2   RLX: 0.002
       a =  1.000      CL =  0.5013
      Cm = -0.0943     CD =  0.01040   =>   CDf =  0.00611    CDp =  0.00430

 Side 1  free  transition at x/c =  0.6988   62
 Side 2  free  transition at x/c =  0.7554   63

   7   rms: 0.4379E+01   max: -.5634E+02   C at   63  2   RLX: 0.009
       a =  1.000      CL =  0.5012
      Cm = -0.0943     CD =  0.01050   =>   CDf =  0.00631    CDp =  0.00419

 Side 1  free  transition at x/c =  0.6987   62
 Side 2  free  transition at x/c =  0.7816   65

   8   rms: 0.3995E+01   max: -.5146E+02   C at   65  2   RLX: 0.010
       a =  1.000      CL =  0.5006
      Cm = -0.0940     CD =  0.01042   =>   CDf =  0.00625    CDp =  0.00417

 Side 1  free  transition at x/c =  0.6986   62
 Side 2  free  transition at x/c =  0.8140   67

   9   rms: 0.4690E+01   max: -.5868E+02   C at   67  2   RLX: 0.009
       a =  1.000      CL =  0.5000
      Cm = -0.0937     CD =  0.01035   =>   CDf =  0.00619    CDp =  0.00416

 Side 1  free  transition at x/c =  0.6985   62
 Side 2  free  transition at x/c =  0.8411   69

  10   rms: 0.7674E+01   max: -.9407E+02   C at   69  2   RLX: 0.005
       a =  1.000      CL =  0.4997
      Cm = -0.0936     CD =  0.01029   =>   CDf =  0.00615    CDp =  0.00414

 Side 1  free  transition at x/c =  0.6984   62
 Side 2  free  transition at x/c =  0.8642   70

  11   rms: 0.5077E+02   max: -.5855E+03   C at   70  2   RLX: 0.001
       a =  1.000      CL =  0.4998
      Cm = -0.0935     CD =  0.01025   =>   CDf =  0.00612    CDp =  0.00413

 Side 1  free  transition at x/c =  0.6984   62
 Side 2  free  transition at x/c =  0.8909   72

  12   rms: 0.1935E+02   max: 0.2255E+03   C at   72  2   RLX: 0.007
       a =  1.000      CL =  0.4989
      Cm = -0.0933     CD =  0.01037   =>   CDf =  0.00611    CDp =  0.00426

 Side 1  free  transition at x/c =  0.6984   62
 Side 2  free  transition at x/c =  0.8093   66

  13   rms: 0.4957E+01   max: -.6029E+02   C at   66  2   RLX: 0.008
       a =  1.000      CL =  0.4986
      Cm = -0.0932     CD =  0.01036   =>   CDf =  0.00621    CDp =  0.00416

 Side 1  free  transition at x/c =  0.6983   62
 Side 2  free  transition at x/c =  0.8393   68

  14   rms: 0.9115E+01   max: -.1071E+03   C at   68  2   RLX: 0.005
       a =  1.000      CL =  0.4983
      Cm = -0.0930     CD =  0.01030   =>   CDf =  0.00616    CDp =  0.00414

 Side 1  free  transition at x/c =  0.6983   62
 Side 2  free  transition at x/c =  0.8639   70

  15   rms: 0.1352E+03   max: -.1565E+04   C at   70  2   RLX: 0.000
       a =  1.000      CL =  0.4984
      Cm = -0.0930     CD =  0.01025   =>   CDf =  0.00612    CDp =  0.00413

 Side 1  free  transition at x/c =  0.6983   62
 Side 2  free  transition at x/c =  0.8889   72

  16   rms: 0.1614E+02   max: 0.1888E+03   C at   72  2   RLX: 0.008
       a =  1.000      CL =  0.4974
      Cm = -0.0928     CD =  0.01038   =>   CDf =  0.00611    CDp =  0.00427

 Side 1  free  transition at x/c =  0.6983   62
 Side 2  free  transition at x/c =  0.8095   67

  17   rms: 0.4726E+01   max: -.6089E+02   C at   67  2   RLX: 0.008
       a =  1.000      CL =  0.4971
      Cm = -0.0926     CD =  0.01037   =>   CDf =  0.00621    CDp =  0.00415

 Side 1  free  transition at x/c =  0.6982   62
 Side 2  free  transition at x/c =  0.8387   68

  18   rms: 0.8488E+01   max: -.1011E+03   C at   68  2   RLX: 0.005
       a =  1.000      CL =  0.4968
      Cm = -0.0925     CD =  0.01031   =>   CDf =  0.00616    CDp =  0.00414

 Side 1  free  transition at x/c =  0.6981   62
 Side 2  free  transition at x/c =  0.8640   70

  19   rms: 0.1762E+03   max: 0.2044E+04   C at   70  2   RLX: 0.001
       a =  1.000      CL =  0.4965
      Cm = -0.0925     CD =  0.01046   =>   CDf =  0.00613    CDp =  0.00433

 Side 1  free  transition at x/c =  0.6982   62
 Side 2  free  transition at x/c =  0.7998   66

  20   rms: 0.4457E+01   max: -.5671E+02   C at   66  2   RLX: 0.009
       a =  1.000      CL =  0.4961
      Cm = -0.0923     CD =  0.01041   =>   CDf =  0.00623    CDp =  0.00418

 Side 1  free  transition at x/c =  0.6981   62
 Side 2  free  transition at x/c =  0.8312   68

  21   rms: 0.6637E+01   max: -.8176E+02   C at   68  2   RLX: 0.006
       a =  1.000      CL =  0.4957
      Cm = -0.0921     CD =  0.01034   =>   CDf =  0.00618    CDp =  0.00416

 Side 1  free  transition at x/c =  0.6980   62
 Side 2  free  transition at x/c =  0.8566   70

  22   rms: 0.5304E+02   max: -.6350E+03   C at   70  2   RLX: 0.001
       a =  1.000      CL =  0.4958
      Cm = -0.0921     CD =  0.01030   =>   CDf =  0.00614    CDp =  0.00415

 Side 1  free  transition at x/c =  0.6980   62
 Side 2  free  transition at x/c =  0.8798   71

  23   rms: 0.1613E+02   max: 0.1829E+03   C at   71  2   RLX: 0.008
       a =  1.000      CL =  0.4948
      Cm = -0.0919     CD =  0.01042   =>   CDf =  0.00612    CDp =  0.00429

 Side 1  free  transition at x/c =  0.6980   62
 Side 2  free  transition at x/c =  0.8053   66

  24   rms: 0.5157E+01   max: -.6382E+02   C at   66  2   RLX: 0.008
       a =  1.000      CL =  0.4945
      Cm = -0.0917     CD =  0.01041   =>   CDf =  0.00623    CDp =  0.00418

 Side 1  free  transition at x/c =  0.6979   62
 Side 2  free  transition at x/c =  0.8364   68

  25   rms: 0.8044E+01   max: -.9724E+02   C at   68  2   RLX: 0.005
       a =  1.000      CL =  0.4942
      Cm = -0.0916     CD =  0.01034   =>   CDf =  0.00618    CDp =  0.00416

 Side 1  free  transition at x/c =  0.6978   62
 Side 2  free  transition at x/c =  0.8622   70

  26   rms: 0.1740E+03   max: 0.2039E+04   C at   70  2   RLX: 0.001
       a =  1.000      CL =  0.4939
      Cm = -0.0916     CD =  0.01050   =>   CDf =  0.00614    CDp =  0.00436

 Side 1  free  transition at x/c =  0.6979   62
 Side 2  free  transition at x/c =  0.8021   66

  27   rms: 0.4554E+01   max: -.5755E+02   C at   66  2   RLX: 0.009
       a =  1.000      CL =  0.4935
      Cm = -0.0914     CD =  0.01044   =>   CDf =  0.00624    CDp =  0.00420

 Side 1  free  transition at x/c =  0.6978   62
 Side 2  free  transition at x/c =  0.8338   68

  28   rms: 0.6884E+01   max: -.8426E+02   C at   68  2   RLX: 0.006
       a =  1.000      CL =  0.4931
      Cm = -0.0912     CD =  0.01037   =>   CDf =  0.00619    CDp =  0.00419

 Side 1  free  transition at x/c =  0.6977   62
 Side 2  free  transition at x/c =  0.8596   70

  29   rms: 0.8587E+02   max: -.1018E+04   C at   70  2   RLX: 0.000
       a =  1.000      CL =  0.4932
      Cm = -0.0912     CD =  0.01032   =>   CDf =  0.00615    CDp =  0.00418

 Side 1  free  transition at x/c =  0.6977   62
 Side 2  free  transition at x/c =  0.8811   71

  30   rms: 0.1587E+02   max: 0.1787E+03   C at   71  2   RLX: 0.008
       a =  1.000      CL =  0.4923
      Cm = -0.0910     CD =  0.01045   =>   CDf =  0.00613    CDp =  0.00432

 Side 1  free  transition at x/c =  0.6977   62
 Side 2  free  transition at x/c =  0.8150   67

  31   rms: 0.5079E+01   max: -.6438E+02   C at   67  2   RLX: 0.008
       a =  1.000      CL =  0.4920
      Cm = -0.0908     CD =  0.01042   =>   CDf =  0.00622    CDp =  0.00420

 Side 1  free  transition at x/c =  0.6977   62
 Side 2  free  transition at x/c =  0.8467   69

  32   rms: 0.1179E+02   max: -.1433E+03   C at   69  2   RLX: 0.003
       a =  1.000      CL =  0.4919
      Cm = -0.0907     CD =  0.01036   =>   CDf =  0.00617    CDp =  0.00419

 Side 1  free  transition at x/c =  0.6976   62
 Side 2  free  transition at x/c =  0.8688   70

  33   rms: 0.2409E+02   max: 0.2724E+03   C at   70  2   RLX: 0.006
       a =  1.000      CL =  0.4912
      Cm = -0.0906     CD =  0.01050   =>   CDf =  0.00614    CDp =  0.00436

 Side 1  free  transition at x/c =  0.6976   62
 Side 2  free  transition at x/c =  0.8119   67

  34   rms: 0.4828E+01   max: -.6189E+02   C at   67  2   RLX: 0.008
       a =  1.000      CL =  0.4908
      Cm = -0.0904     CD =  0.01045   =>   CDf =  0.00623    CDp =  0.00421

 Side 1  free  transition at x/c =  0.6975   62
 Side 2  free  transition at x/c =  0.8441   69

  35   rms: 0.1004E+02   max: -.1239E+03   C at   69  2   RLX: 0.004
       a =  1.000      CL =  0.4906
      Cm = -0.0902     CD =  0.01038   =>   CDf =  0.00618    CDp =  0.00420

 Side 1  free  transition at x/c =  0.6975   62
 Side 2  free  transition at x/c =  0.8661   70

  36   rms: 0.2809E+02   max: 0.3218E+03   C at   70  2   RLX: 0.005
       a =  1.000      CL =  0.4900
      Cm = -0.0902     CD =  0.01053   =>   CDf =  0.00615    CDp =  0.00438

 Side 1  free  transition at x/c =  0.6975   62
 Side 2  free  transition at x/c =  0.8101   67

  37   rms: 0.4624E+01   max: -.5968E+02   C at   67  2   RLX: 0.008
       a =  1.000      CL =  0.4896
      Cm = -0.0900     CD =  0.01047   =>   CDf =  0.00624    CDp =  0.00423

 Side 1  free  transition at x/c =  0.6974   62
 Side 2  free  transition at x/c =  0.8426   69

  38   rms: 0.8882E+01   max: -.1105E+03   C at   69  2   RLX: 0.005
       a =  1.000      CL =  0.4894
      Cm = -0.0898     CD =  0.01041   =>   CDf =  0.00619    CDp =  0.00422

 Side 1  free  transition at x/c =  0.6974   62
 Side 2  free  transition at x/c =  0.8645   70

  39   rms: 0.3464E+02   max: 0.4000E+03   C at   70  2   RLX: 0.004
       a =  1.000      CL =  0.4889
      Cm = -0.0898     CD =  0.01056   =>   CDf =  0.00616    CDp =  0.00440

 Side 1  free  transition at x/c =  0.6974   62
 Side 2  free  transition at x/c =  0.8097   67

  40   rms: 0.4467E+01   max: -.5774E+02   C at   67  2   RLX: 0.009
       a =  1.000      CL =  0.4885
      Cm = -0.0896     CD =  0.01050   =>   CDf =  0.00625    CDp =  0.00425

 Side 1  free  transition at x/c =  0.6973   62
 Side 2  free  transition at x/c =  0.8424   69

  41   rms: 0.8124E+01   max: -.1014E+03   C at   69  2   RLX: 0.005
       a =  1.000      CL =  0.4882
      Cm = -0.0894     CD =  0.01044   =>   CDf =  0.00619    CDp =  0.00424

 Side 1  free  transition at x/c =  0.6973   62
 Side 2  free  transition at x/c =  0.8642   70

  42   rms: 0.4501E+02   max: 0.5211E+03   C at   70  2   RLX: 0.003
       a =  1.000      CL =  0.4878
      Cm = -0.0894     CD =  0.01059   =>   CDf =  0.00616    CDp =  0.00443

 Side 1  free  transition at x/c =  0.6973   62
 Side 2  free  transition at x/c =  0.8104   67

  43   rms: 0.4345E+01   max: -.5604E+02   C at   67  2   RLX: 0.009
       a =  1.000      CL =  0.4873
      Cm = -0.0891     CD =  0.01052   =>   CDf =  0.00625    CDp =  0.00427

 Side 1  free  transition at x/c =  0.6973   62
 Side 2  free  transition at x/c =  0.8431   69

  44   rms: 0.7633E+01   max: -.9509E+02   C at   69  2   RLX: 0.005
       a =  1.000      CL =  0.4870
      Cm = -0.0890     CD =  0.01046   =>   CDf =  0.00620    CDp =  0.00426

 Side 1  free  transition at x/c =  0.6972   62
 Side 2  free  transition at x/c =  0.8651   70

  45   rms: 0.6093E+02   max: 0.7031E+03   C at   70  2   RLX: 0.002
       a =  1.000      CL =  0.4867
      Cm = -0.0890     CD =  0.01061   =>   CDf =  0.00617    CDp =  0.00445

 Side 1  free  transition at x/c =  0.6973   62
 Side 2  free  transition at x/c =  0.8123   67

  46   rms: 0.4262E+01   max: -.5463E+02   C at   67  2   RLX: 0.009
       a =  1.000      CL =  0.4862
      Cm = -0.0887     CD =  0.01054   =>   CDf =  0.00625    CDp =  0.00429

 Side 1  free  transition at x/c =  0.6972   62
 Side 2  free  transition at x/c =  0.8449   69

  47   rms: 0.7383E+01   max: -.9132E+02   C at   69  2   RLX: 0.005
       a =  1.000      CL =  0.4859
      Cm = -0.0886     CD =  0.01048   =>   CDf =  0.00620    CDp =  0.00428

 Side 1  free  transition at x/c =  0.6971   62
 Side 2  free  transition at x/c =  0.8668   70

  48   rms: 0.2711E+02   max: 0.3085E+03   C at   70  2   RLX: 0.005
       a =  1.000      CL =  0.4853
      Cm = -0.0885     CD =  0.01062   =>   CDf =  0.00617    CDp =  0.00445

 Side 1  free  transition at x/c =  0.6971   62
 Side 2  free  transition at x/c =  0.8149   67

  49   rms: 0.4340E+01   max: -.5514E+02   C at   67  2   RLX: 0.009
       a =  1.000      CL =  0.4849
      Cm = -0.0883     CD =  0.01056   =>   CDf =  0.00625    CDp =  0.00431

 Side 1  free  transition at x/c =  0.6971   62
 Side 2  free  transition at x/c =  0.8473   69

  50   rms: 0.7765E+01   max: -.9510E+02   C at   69  2   RLX: 0.005
       a =  1.000      CL =  0.4847
      Cm = -0.0881     CD =  0.01050   =>   CDf =  0.00620    CDp =  0.00430

 Side 1  free  transition at x/c =  0.6970   62
 Side 2  free  transition at x/c =  0.8691   70

  51   rms: 0.2631E+02   max: 0.2961E+03   C at   70  2   RLX: 0.005
       a =  1.000      CL =  0.4841
      Cm = -0.0880     CD =  0.01064   =>   CDf =  0.00617    CDp =  0.00447

 Side 1  free  transition at x/c =  0.6970   62
 Side 2  free  transition at x/c =  0.8177   67

  52   rms: 0.4448E+01   max: -.5596E+02   C at   67  2   RLX: 0.009
       a =  1.000      CL =  0.4837
      Cm = -0.0878     CD =  0.01058   =>   CDf =  0.00625    CDp =  0.00433

 Side 1  free  transition at x/c =  0.6970   62
 Side 2  free  transition at x/c =  0.8499   69

  53   rms: 0.1022E+02   max: -.1228E+03   C at   69  2   RLX: 0.004
       a =  1.000      CL =  0.4835
      Cm = -0.0877     CD =  0.01052   =>   CDf =  0.00620    CDp =  0.00432

 Side 1  free  transition at x/c =  0.6969   62
 Side 2  free  transition at x/c =  0.8718   71

  54   rms: 0.2278E+02   max: 0.2667E+03   C at   71  2   RLX: 0.006
       a =  1.000      CL =  0.4829
      Cm = -0.0876     CD =  0.01067   =>   CDf =  0.00618    CDp =  0.00449

 Side 1  free  transition at x/c =  0.6969   62
 Side 2  free  transition at x/c =  0.8192   67

  55   rms: 0.4496E+01   max: -.5629E+02   C at   67  2   RLX: 0.009
       a =  1.000      CL =  0.4825
      Cm = -0.0874     CD =  0.01060   =>   CDf =  0.00626    CDp =  0.00434

 Side 1  free  transition at x/c =  0.6969   62
 Side 2  free  transition at x/c =  0.8513   69

  56   rms: 0.1488E+02   max: -.1765E+03   C at   69  2   RLX: 0.003
       a =  1.000      CL =  0.4824
      Cm = -0.0873     CD =  0.01055   =>   CDf =  0.00620    CDp =  0.00434

 Side 1  free  transition at x/c =  0.6968   62
 Side 2  free  transition at x/c =  0.8734   71

  57   rms: 0.2300E+02   max: 0.2673E+03   C at   71  2   RLX: 0.006
       a =  1.000      CL =  0.4818
      Cm = -0.0872     CD =  0.01069   =>   CDf =  0.00618    CDp =  0.00451

 Side 1  free  transition at x/c =  0.6969   62
 Side 2  free  transition at x/c =  0.8221   67

  58   rms: 0.4873E+01   max: -.5987E+02   C at   67  2   RLX: 0.008
       a =  1.000      CL =  0.4815
      Cm = -0.0870     CD =  0.01062   =>   CDf =  0.00626    CDp =  0.00437

 Side 1  free  transition at x/c =  0.6968   62
 Side 2  free  transition at x/c =  0.8538   69

  59   rms: 0.1596E+02   max: -.1876E+03   C at   69  2   RLX: 0.003
       a =  1.000      CL =  0.4814
      Cm = -0.0869     CD =  0.01057   =>   CDf =  0.00621    CDp =  0.00436

 Side 1  free  transition at x/c =  0.6967   62
 Side 2  free  transition at x/c =  0.8766   71

  60   rms: 0.1656E+02   max: 0.1888E+03   C at   71  2   RLX: 0.008
       a =  1.000      CL =  0.4806
      Cm = -0.0867     CD =  0.01069   =>   CDf =  0.00619    CDp =  0.00451

 Side 1  free  transition at x/c =  0.6968   62
 Side 2  free  transition at x/c =  0.8271   68

  61   rms: 0.4860E+01   max: -.6199E+02   C at   68  2   RLX: 0.008
       a =  1.000      CL =  0.4803
      Cm = -0.0865     CD =  0.01063   =>   CDf =  0.00626    CDp =  0.00437

 Side 1  free  transition at x/c =  0.6967   62
 Side 2  free  transition at x/c =  0.8604   70

  62   rms: 0.1261E+03   max: -.1504E+04   C at   70  2   RLX: 0.000
       a =  1.000      CL =  0.4804
      Cm = -0.0865     CD =  0.01058   =>   CDf =  0.00621    CDp =  0.00437

 Side 1  free  transition at x/c =  0.6967   62
 Side 2  free  transition at x/c =  0.8785   71

  63   rms: 0.1515E+02   max: 0.1712E+03   C at   71  2   RLX: 0.009
       a =  1.000      CL =  0.4796
      Cm = -0.0863     CD =  0.01071   =>   CDf =  0.00619    CDp =  0.00452

 Side 1  free  transition at x/c =  0.6967   62
 Side 2  free  transition at x/c =  0.8300   68

  64   rms: 0.5375E+01   max: -.6790E+02   C at   68  2   RLX: 0.007
       a =  1.000      CL =  0.4793
      Cm = -0.0862     CD =  0.01064   =>   CDf =  0.00626    CDp =  0.00438

 Side 1  free  transition at x/c =  0.6966   62
 Side 2  free  transition at x/c =  0.8628   70

  65   rms: 0.1227E+03   max: 0.1448E+04   C at   70  2   RLX: 0.001
       a =  1.000      CL =  0.4790
      Cm = -0.0862     CD =  0.01080   =>   CDf =  0.00621    CDp =  0.00459

 Side 1  free  transition at x/c =  0.6967   62
 Side 2  free  transition at x/c =  0.8126   67

  66   rms: 0.4161E+01   max: -.5326E+02   C at   67  2   RLX: 0.009
       a =  1.000      CL =  0.4786
      Cm = -0.0859     CD =  0.01072   =>   CDf =  0.00629    CDp =  0.00443

 Side 1  free  transition at x/c =  0.6966   62
 Side 2  free  transition at x/c =  0.8454   69

  67   rms: 0.6748E+01   max: -.8367E+02   C at   69  2   RLX: 0.006
       a =  1.000      CL =  0.4783
      Cm = -0.0858     CD =  0.01065   =>   CDf =  0.00624    CDp =  0.00442

 Side 1  free  transition at x/c =  0.6966   62
 Side 2  free  transition at x/c =  0.8710   71

  68   rms: 0.2890E+02   max: 0.3423E+03   C at   71  2   RLX: 0.004
       a =  1.000      CL =  0.4778
      Cm = -0.0857     CD =  0.01080   =>   CDf =  0.00621    CDp =  0.00460

 Side 1  free  transition at x/c =  0.6966   62
 Side 2  free  transition at x/c =  0.8235   67

  69   rms: 0.4693E+01   max: -.5733E+02   C at   67  2   RLX: 0.009
       a =  1.000      CL =  0.4774
      Cm = -0.0855     CD =  0.01073   =>   CDf =  0.00628    CDp =  0.00445

 Side 1  free  transition at x/c =  0.6966   62
 Side 2  free  transition at x/c =  0.8550   69

  70   rms: 0.1297E+02   max: -.1525E+03   C at   69  2   RLX: 0.003
       a =  1.000      CL =  0.4773
      Cm = -0.0854     CD =  0.01068   =>   CDf =  0.00623    CDp =  0.00445

 Side 1  free  transition at x/c =  0.6965   62
 Side 2  free  transition at x/c =  0.8808   71

  71   rms: 0.2059E+02   max: 0.2304E+03   C at   71  2   RLX: 0.007
       a =  1.000      CL =  0.4767
      Cm = -0.0853     CD =  0.01080   =>   CDf =  0.00621    CDp =  0.00459

 Side 1  free  transition at x/c =  0.6966   62
 Side 2  free  transition at x/c =  0.8360   68

  72   rms: 0.5507E+01   max: -.6749E+02   C at   68  2   RLX: 0.007
       a =  1.000      CL =  0.4764
      Cm = -0.0851     CD =  0.01073   =>   CDf =  0.00626    CDp =  0.00446

 Side 1  free  transition at x/c =  0.6965   62
 Side 2  free  transition at x/c =  0.8680   70

  73   rms: 0.5256E+02   max: 0.6022E+03   C at   70  2   RLX: 0.002
       a =  1.000      CL =  0.4760
      Cm = -0.0851     CD =  0.01087   =>   CDf =  0.00622    CDp =  0.00464

 Side 1  free  transition at x/c =  0.6966   62
 Side 2  free  transition at x/c =  0.8158   67

[...]
      Cm = -0.1580     CD =  8.10161   =>   CDf =  0.00315    CDp =  8.09846

 MRCHDU: Convergence failed at  93  side 2    Res =  0.1787E-01
 Side 1  free  transition at x/c =  0.0546   22
 Side 2 forced transition at x/c =  1.0000   72

 114   rms: 0.5883E+02   max: -.9316E+03   C at   94  2   RLX: 0.001
       a = 13.750      CL =  1.1325
      Cm = -0.1579     CD =  8.09416   =>   CDf =  0.00315    CDp =  8.09101

 MRCHDU: Convergence failed at  93  side 2    Res =  0.6946E-01
 Side 1  free  transition at x/c =  0.0546   22
 Side 2 forced transition at x/c =  1.0000   72

 115   rms: 0.6444E+02   max: -.1020E+04   C at   94  2   RLX: 0.000
       a = 13.750      CL =  1.1323
      Cm = -0.1578     CD =  8.08701   =>   CDf =  0.00315    CDp =  8.08386

 MRCHDU: Convergence failed at  93  side 2    Res =  0.1209E+00
 MRCHDU: Convergence failed at  94  side 2    Res =  0.7807E+00
 Side 1  free  transition at x/c =  0.0546   22
 Side 2 forced transition at x/c =  1.0000   72

 116   rms: 0.7101E+02   max: -.1117E+04   C at   94  2   RLX: 0.000
       a = 13.750      CL =  1.1321
      Cm = -0.1578     CD =*********   =>   CDf =  0.00315    CDp =*********

 MRCHDU: Convergence failed at  94  side 2    Res =  0.8581E-01
 Side 1  free  transition at x/c =  0.0546   22
 Side 2 forced transition at x/c =  1.0000   72

 117   rms: 0.7412E+02   max: -.1165E+04   C at   94  2   RLX: 0.000
       a = 13.750      CL =  1.1320
      Cm = -0.1577     CD =*********   =>   CDf =  0.00315    CDp =*********

 MRCHDU: Convergence failed at  93  side 2    Res =  0.1076E-01
 MRCHDU: Convergence failed at  94  side 2    Res =  0.1265E+00
 Side 1  free  transition at x/c =  0.0546   22
 Side 2 forced transition at x/c =  1.0000   72

 118   rms: 0.8168E+02   max: -.1284E+04   C at   94  2   RLX: 0.000
       a = 13.750      CL =  1.1318
      Cm = -0.1577     CD =*********   =>   CDf =  0.00315    CDp =*********

 MRCHDU: Convergence failed at  93  side 2    Res =  0.6204E-01
 MRCHDU: Convergence failed at  94  side 2    Res =  0.1266E+00
 Side 1  free  transition at x/c =  0.0546   22
 Side 2 forced transition at x/c =  1.0000   72

 119   rms: 0.8536E+02   max: -.1341E+04   C at   94  2   RLX: 0.000
       a = 13.750      CL =  1.1316
      Cm = -0.1576     CD =*********   =>   CDf =  0.00315    CDp =*********

 MRCHDU: Convergence failed at  92  side 2    Res =  0.5643E-02
 MRCHDU: Convergence failed at  93  side 2    Res =  0.1076E+00
 MRCHDU: Convergence failed at  94  side 2    Res =  0.1270E+00
 Side 1  free  transition at x/c =  0.0546   22
 Side 2 forced transition at x/c =  1.0000   72

 120   rms: 0.9029E+02   max: -.1419E+04   C at   94  2   RLX: 0.000
       a = 13.750      CL =  1.1315
      Cm = -0.1576     CD =*********   =>   CDf =  0.00315    CDp =*********

 MRCHDU: Convergence failed at  92  side 2    Res =  0.5665E-01
 MRCHDU: Convergence failed at  93  side 2    Res =  0.1077E+00
 MRCHDU: Convergence failed at  94  side 2    Res =  0.1271E+00
 Side 1  free  transition at x/c =  0.0546   22
 Side 2 forced transition at x/c =  1.0000   72

 121   rms: 0.1003E+03   max: -.1576E+04   C at   94  2   RLX: 0.000
       a = 13.750      CL =  1.1314
      Cm = -0.1576     CD =*********   =>   CDf =  0.00315    CDp =*********

 MRCHDU: Convergence failed at  92  side 2    Res =  0.1077E+00
 MRCHDU: Convergence failed at  93  side 2    Res =  0.6979E+00
 MRCHDU: Convergence failed at  94  side 2    Res =  0.1739E+01
 Side 1  free  transition at x/c =  0.0546   22
 Side 2 forced transition at x/c =  1.0000   72
 idif Ue xi dudx           1  0.14235686      4.40478325E-03   32.318699    
 Uenew xinew           2  2.41563609E-03  7.47442245E-05

 122   rms: 0.3349E+00   max: 0.1527E+01   C at   72  2   RLX: 0.541
       a = 13.750      CL =  0.9234
      Cm = -0.0995     CD =  0.58874   =>   CDf =  0.00344    CDp =  0.58530

 Side 1  free  transition at x/c =  0.0548   22
 Side 2 forced transition at x/c =  1.0000   73

 123   rms: 0.4321E+00   max: 0.5569E+01   D at    2  2   RLX: 0.187
       a = 13.750      CL =  0.8240
      Cm = -0.0586     CD =  0.52173   =>   CDf =  0.00287    CDp =  0.51886

 Side 1  free  transition at x/c =  0.0543   22
 Side 2 forced transition at x/c =  1.0000   72

 124   rms: 0.5165E+00   max: 0.4376E+01   T at   22  1   RLX: 0.178
       a = 13.750      CL =  0.8293
      Cm = -0.0470     CD =  0.40755   =>   CDf =  0.00315    CDp =  0.40439

 Side 1  free  transition at x/c =  0.0505   22
 Side 2 forced transition at x/c =  1.0000   72
 idif Ue xi dudx           1  0.16604479      5.08403778E-03   32.660023    
 Uenew xinew           2  2.46256161E-02  7.53998756E-04

 125   rms: 0.3445E+00   max: 0.1204E+01   D at   26  1   RLX: 0.570
       a = 13.750      CL =  0.8142
      Cm = -0.0660     CD =  0.26028   =>   CDf =  0.00340    CDp =  0.25688

 Side 1  free  transition at x/c =  0.0580   22
 Side 2 forced transition at x/c =  1.0000   73

 126   rms: 0.2271E+00   max: 0.1156E+01   D at   22  1   RLX: 0.652
       a = 13.750      CL =  0.7871
      Cm = -0.0612     CD =  0.20276   =>   CDf =  0.00312    CDp =  0.19964

 Side 1  free  transition at x/c =  0.0967   25
 Side 2 forced transition at x/c =  1.0000   73

 127   rms: 0.3836E+00   max: 0.3627E+01   T at   25  1   RLX: 0.414
       a = 13.750      CL =  0.8224
      Cm = -0.0450     CD =  0.15515   =>   CDf =  0.00281    CDp =  0.15234

 MRCHDU: Convergence failed at  26  side 1    Res =  0.1168E+02
 MRCHDU: Convergence failed at  27  side 1    Res =  0.2174E+03
 MRCHDU: Convergence failed at  28  side 1    Res =  0.7204E+02
 MRCHDU: Convergence failed at  29  side 1    Res =  0.4540E+02
 MRCHDU: Convergence failed at  30  side 1    Res =  0.1460E+03
 MRCHDU: Convergence failed at  31  side 1    Res =  0.1824E+03
 MRCHDU: Convergence failed at  32  side 1    Res =  0.3622E+03
 MRCHDU: Convergence failed at  33  side 1    Res =  0.6404E+03
 MRCHDU: Convergence failed at  34  side 1    Res =  0.7656E+02
 MRCHDU: Convergence failed at  35  side 1    Res =  0.7589E+02
 MRCHDU: Convergence failed at  36  side 1    Res =  0.2542E+03
 MRCHDU: Convergence failed at  37  side 1    Res =  0.6823E+02
 MRCHDU: Convergence failed at  38  side 1    Res =  0.4411E+03
 MRCHDU: Convergence failed at  39  side 1    Res =  0.1421E+03
 MRCHDU: Convergence failed at  40  side 1    Res =  0.4915E+03
 MRCHDU: Convergence failed at  41  side 1    Res =  0.3441E+03
 MRCHDU: Convergence failed at  42  side 1    Res =  0.9311E+02
 MRCHDU: Convergence failed at  43  side 1    Res =  0.9851E+02
 MRCHDU: Convergence failed at  44  side 1    Res =  0.1705E+03
 MRCHDU: Convergence failed at  45  side 1    Res =  0.1350E+03
 MRCHDU: Convergence failed at  46  side 1    Res =  0.2056E+04
 MRCHDU: Convergence failed at  47  side 1    Res =  0.4372E+03
 MRCHDU: Convergence failed at  48  side 1    Res =  0.1432E+03
 MRCHDU: Convergence failed at  49  side 1    Res =  0.9050E+02
 MRCHDU: Convergence failed at  50  side 1    Res =  0.1870E+03
 MRCHDU: Convergence failed at  51  side 1    Res =  0.1405E+03
 MRCHDU: Convergence failed at  52  side 1    Res =  0.2232E+03
 MRCHDU: Convergence failed at  53  side 1    Res =  0.4972E+03
 MRCHDU: Convergence failed at  54  side 1    Res =  0.5012E+03
 MRCHDU: Convergence failed at  55  side 1    Res =  0.8658E+03
 MRCHDU: Convergence failed at  56  side 1    Res =  0.6753E+03
 MRCHDU: Convergence failed at  57  side 1    Res =  0.1022E+04
 MRCHDU: Convergence failed at  58  side 1    Res =  0.1239E+03
 MRCHDU: Convergence failed at  59  side 1    Res =  0.1070E+03
 MRCHDU: Convergence failed at  60  side 1    Res =  0.1034E+03
 MRCHDU: Convergence failed at  61  side 1    Res =  0.2064E+03
 MRCHDU: Convergence failed at  62  side 1    Res =  0.1339E+03
 MRCHDU: Convergence failed at  63  side 1    Res =  0.1342E+03
 MRCHDU: Convergence failed at  64  side 1    Res =  0.1438E+03
 MRCHDU: Convergence failed at  65  side 1    Res =  0.1232E+03
 MRCHDU: Convergence failed at  66  side 1    Res =  0.1815E+03
 MRCHDU: Convergence failed at  67  side 1    Res =  0.1299E+03
 MRCHDU: Convergence failed at  68  side 1    Res =  0.1614E+03
 MRCHDU: Convergence failed at  69  side 1    Res =  0.8272E+03
 MRCHDU: Convergence failed at  70  side 1    Res =  0.1472E+03
 MRCHDU: Convergence failed at  71  side 1    Res =  0.7160E+03
 MRCHDU: Convergence failed at  72  side 1    Res =  0.1727E+04
 MRCHDU: Convergence failed at  73  side 1    Res =  0.7647E+03
 MRCHDU: Convergence failed at  74  side 1    Res =  0.5172E+03
 MRCHDU: Convergence failed at  75  side 1    Res =  0.4109E+03
 MRCHDU: Convergence failed at  76  side 1    Res =  0.3350E+03
 MRCHDU: Convergence failed at  77  side 1    Res =  0.2890E+03
 MRCHDU: Convergence failed at  78  side 1    Res =  0.8490E+03
 MRCHDU: Convergence failed at  79  side 1    Res =  0.8537E+03
 MRCHDU: Convergence failed at  80  side 1    Res =  0.1417E+03
 MRCHDU: Convergence failed at  81  side 1    Res =  0.1629E+03
 MRCHDU: Convergence failed at  82  side 1    Res =  0.1989E+03
 MRCHDU: Convergence failed at  83  side 1    Res =  0.2700E+03
 MRCHDU: Convergence failed at  84  side 1    Res =  0.3618E+04
 MRCHDU: Convergence failed at  85  side 1    Res =  0.2751E+04
 MRCHDU: Convergence failed at  86  side 1    Res =  0.4026E+04
 MRCHDU: Convergence failed at  87  side 1    Res =  0.3324E+04
 MRCHDU: Convergence failed at  88  side 1    Res =  0.1016E+04
 MRCHDU: Convergence failed at  89  side 1    Res =  0.1372E+03
 MRCHDU: Convergence failed at  90  side 1    Res =  0.3916E+03
 Side 1  free  transition at x/c =  0.0947   25
 Side 2 forced transition at x/c =  1.0000   72

 128   rms: 0.1509E+01   max: 0.9055E+01   D at   84  2   RLX: 0.074
       a = 13.750      CL =  1.9877
      Cm = -0.4508     CD =  0.06752   =>   CDf =  0.00247    CDp =  0.06505

 MRCHDU: Convergence failed at  84  side 2    Res =  0.4221E+01
 MRCHDU: Convergence failed at  94  side 2    Res =  0.3534E+01
 Side 1  free  transition at x/c =  0.1034   26
 Side 2 forced transition at x/c =  1.0000   72
 idif Ue xi dudx           1  0.18960254      5.70404530E-03   33.240013    
 Uenew xinew           2  4.56719883E-02  1.37400627E-03

 129   rms: 0.1070E+01   max: 0.5820E+01   D at   85  2   RLX: 0.161
       a = 13.750      CL =  1.4888
      Cm = -0.3023     CD =  0.14872   =>   CDf =  0.00322    CDp =  0.14550

 Side 1  free  transition at x/c =  0.1009   25
 Side 2 forced transition at x/c =  1.0000   73

 130   rms: 0.8858E+00   max: 0.5811E+01   C at   73  2   RLX: 0.152
       a = 13.750      CL =  1.3668
      Cm = -0.2726     CD =  0.20255   =>   CDf =  0.00310    CDp =  0.19945

 Side 1  free  transition at x/c =  0.1008   25
 Side 2 forced transition at x/c =  1.0000   73
 idif Ue xi dudx           1  0.13433041      3.61216068E-03   37.188381    
 Uenew xinew           2  2.78404984E-03  7.48634338E-05

 131   rms: 0.8045E+00   max: 0.6143E+01   C at   73  2   RLX: 0.156
       a = 13.750      CL =  1.2234
      Cm = -0.2372     CD =  0.37279   =>   CDf =  0.00340    CDp =  0.36939

 Side 1  free  transition at x/c =  0.1018   24
 Side 2 forced transition at x/c =  1.0000   74

 132   rms: 0.1141E+01   max: -.1495E+02   T at    2  2   RLX: 0.033
       a = 13.750      CL =  1.1946
      Cm = -0.2290     CD =  0.61603   =>   CDf =  0.00324    CDp =  0.61279

 Side 1  free  transition at x/c =  0.1020   24
 Side 2 forced transition at x/c =  1.0000   74

 133   rms: 0.7380E+00   max: 0.6042E+01   C at   74  2   RLX: 0.154
       a = 13.750      CL =  1.0807
      Cm = -0.2014     CD =  1.18794   =>   CDf =  0.00325    CDp =  1.18469

 Side 1  free  transition at x/c =  0.1028   24
 Side 2 forced transition at x/c =  1.0000   74

 134   rms: 0.6654E+00   max: 0.5842E+01   C at   74  2   RLX: 0.158
       a = 13.750      CL =  0.9861
      Cm = -0.1774     CD =  4.83779   =>   CDf =  0.00328    CDp =  4.83451

 Side 1  free  transition at x/c =  0.1034   24
 Side 2 forced transition at x/c =  1.0000   74

 135   rms: 0.5950E+00   max: 0.5793E+01   C at   74  2   RLX: 0.167
       a = 13.750      CL =  0.9064
      Cm = -0.1565     CD = 12.59030   =>   CDf =  0.00330    CDp = 12.58700

 Side 1  free  transition at x/c =  0.1040   24
 Side 2 forced transition at x/c =  1.0000   74

 136   rms: 0.5244E+00   max: 0.5172E+01   C at   74  2   RLX: 0.178
       a = 13.750      CL =  0.8400
      Cm = -0.1385     CD = 10.13496   =>   CDf =  0.00332    CDp = 10.13164

 Side 1  free  transition at x/c =  0.1046   24
 Side 2 forced transition at x/c =  1.0000   74

 137   rms: 0.4690E+00   max: 0.4646E+01   C at   74  2   RLX: 0.199
       a = 13.750      CL =  0.7845
      Cm = -0.1224     CD =  7.63943   =>   CDf =  0.00332    CDp =  7.63610

 Side 1  free  transition at x/c =  0.1052   24
 Side 2 forced transition at x/c =  1.0000   74

 138   rms: 0.4184E+00   max: 0.3988E+01   C at   74  2   RLX: 0.235
       a = 13.750      CL =  0.7402
      Cm = -0.1078     CD =  9.46748   =>   CDf =  0.00333    CDp =  9.46415

 MRCHDU: Convergence failed at  90  side 2    Res =  0.1317E-01
 MRCHDU: Convergence failed at  91  side 2    Res =  0.8743E+00
 Side 1  free  transition at x/c =  0.1059   24
 Side 2 forced transition at x/c =  1.0000   74

 139   rms: 0.6567E+00   max: -.7674E+01   T at   93  2   RLX: 0.065
       a = 13.750      CL =  0.7263
      Cm = -0.1023     CD = 17.22567   =>   CDf =  0.00334    CDp = 17.22233

 MRCHDU: Convergence failed at  90  side 2    Res =  0.1173E-01
 MRCHDU: Convergence failed at  91  side 2    Res =  0.5384E-01
 MRCHDU: Convergence failed at  92  side 2    Res =  0.3451E-01
 MRCHDU: Convergence failed at  93  side 2    Res =  0.3648E-01
 MRCHDU: Convergence failed at  94  side 2    Res =  0.4356E-01
 Side 1  free  transition at x/c =  0.1060   24
 Side 2 forced transition at x/c =  1.0000   74

 140   rms: 0.2183E+02   max: -.2718E+03   C at   94  2   RLX: 0.002
       a = 13.750      CL =  0.7282
      Cm = -0.1023     CD =*********   =>   CDf =  0.00333    CDp =*********

 MRCHDU: Convergence failed at  90  side 2    Res =  0.1115E-01
 MRCHDU: Convergence failed at  91  side 2    Res =  0.5458E-01
 MRCHDU: Convergence failed at  92  side 2    Res =  0.3473E-01
 MRCHDU: Convergence failed at  93  side 2    Res =  0.3595E-01
 MRCHDU: Convergence failed at  94  side 2    Res =  0.1187E-01
 MRCHDU: Convergence failed at  95  side 2    Res =  0.1321E-01
 Side 1  free  transition at x/c =  0.1061   24
 Side 2 forced transition at x/c =  1.0000   74

 141   rms: 0.1841E+02   max: -.3334E+03   C at   96  2   RLX: 0.001
       a = 13.750      CL =  0.7302
      Cm = -0.1025     CD =*********   =>   CDf =  0.00334    CDp =*********

 MRCHDU: Convergence failed at  90  side 2    Res =  0.1075E-01
 MRCHDU: Convergence failed at  91  side 2    Res =  0.5514E-01
 MRCHDU: Convergence failed at  92  side 2    Res =  0.3484E-01
 MRCHDU: Convergence failed at  93  side 2    Res =  0.3256E-01
 MRCHDU: Convergence failed at  94  side 2    Res =  0.8900E-02
 MRCHDU: Convergence failed at  95  side 2    Res =  0.6304E-02
 MRCHDU: Convergence failed at  96  side 2    Res =  0.1237E-01
 Side 1  free  transition at x/c =  0.1061   24
 Side 2 forced transition at x/c =  1.0000   74

 142   rms: 0.2041E+02   max: -.3638E+03   T at   96  2   RLX: 0.001
       a = 13.750      CL =  0.7321
      Cm = -0.1028     CD =*********   =>   CDf =  0.00334    CDp =*********

 MRCHDU: Convergence failed at  90  side 2    Res =  0.1037E-01
 MRCHDU: Convergence failed at  91  side 2    Res =  0.5565E-01
 MRCHDU: Convergence failed at  92  side 2    Res =  0.3486E-01
 MRCHDU: Convergence failed at  93  side 2    Res =  0.2890E-01
 MRCHDU: Convergence failed at  94  side 2    Res =  0.6673E-02
 MRCHDU: Convergence failed at  95  side 2    Res =  0.3628E-02
 MRCHDU: Convergence failed at  96  side 2    Res =  0.2736E-02
 Side 1  free  transition at x/c =  0.1061   24
 Side 2 forced transition at x/c =  1.0000   74

 143   rms: 0.4147E+02   max: -.8419E+03   T at   96  2   RLX: 0.001
       a = 13.750      CL =  0.7328
      Cm = -0.1029     CD =*********   =>   CDf =  0.00334    CDp =*********

 MRCHDU: Convergence failed at  90  side 2    Res =  0.1022E-01
 MRCHDU: Convergence failed at  91  side 2    Res =  0.5583E-01
 MRCHDU: Convergence failed at  92  side 2    Res =  0.3458E-01
 MRCHDU: Convergence failed at  93  side 2    Res =  0.2449E-01
 MRCHDU: Convergence failed at  94  side 2    Res =  0.4678E-02
 MRCHDU: Convergence failed at  95  side 2    Res =  0.1872E-02
 MRCHDU: Convergence failed at  96  side 2    Res =  0.6466E-03
 Side 1  free  transition at x/c =  0.1061   24
 Side 2 forced transition at x/c =  1.0000   74

 144   rms: 0.1228E+03   max: -.2361E+04   T at   96  2   RLX: 0.000
       a = 13.750      CL =  0.7329
      Cm = -0.1029     CD =+Infinity   =>   CDf =  0.00334    CDp =+Infinity

 MRCHDU: Convergence failed at  90  side 2    Res =  0.1019E-01
 MRCHDU: Convergence failed at  91  side 2    Res =  0.5580E-01
 MRCHDU: Convergence failed at  92  side 2    Res =  0.3386E-01
 MRCHDU: Convergence failed at  93  side 2    Res =  0.1967E-01
 MRCHDU: Convergence failed at  94  side 2    Res =  0.2975E-02
 MRCHDU: Convergence failed at  95  side 2    Res =  0.7008E-03
 Side 1  free  transition at x/c =  0.1061   24
 Side 2 forced transition at x/c =  1.0000   74

 145   rms: 0.1709E+03   max: -.2747E+04   T at   96  2   RLX: 0.000
       a = 13.750      CL =  0.7327
      Cm = -0.1028     CD =+Infinity   =>   CDf =  0.00334    CDp =+Infinity

 MRCHDU: Convergence failed at  90  side 2    Res =  0.1022E-01
 MRCHDU: Convergence failed at  91  side 2    Res =  0.5558E-01
 MRCHDU: Convergence failed at  92  side 2    Res =  0.3218E-01
 MRCHDU: Convergence failed at  93  side 2    Res =  0.1401E-01
 MRCHDU: Convergence failed at  94  side 2    Res =  0.1383E-02
 Side 1  free  transition at x/c =  0.1061   24
 Side 2 forced transition at x/c =  1.0000   74

 146   rms: 0.5183E+02   max: -.7811E+03   T at   94  2   RLX: 0.001
       a = 13.750      CL =  0.7324
      Cm = -0.1028     CD =+Infinity   =>   CDf =  0.00334    CDp =+Infinity

 MRCHDU: Convergence failed at  90  side 2    Res =  0.1023E-01
 MRCHDU: Convergence failed at  91  side 2    Res =  0.5510E-01
 MRCHDU: Convergence failed at  92  side 2    Res =  0.2883E-01
 MRCHDU: Convergence failed at  93  side 2    Res =  0.8675E-02
 MRCHDU: Convergence failed at  94  side 2    Res =  0.3614E-03
 Side 1  free  transition at x/c =  0.1061   24
 Side 2 forced transition at x/c =  1.0000   74

 147   rms: 0.1885E+02   max: -.2963E+03   T at   94  2   RLX: 0.002
       a = 13.750      CL =  0.7321
      Cm = -0.1027     CD =+Infinity   =>   CDf =  0.00334    CDp =+Infinity

 MRCHDU: Convergence failed at  90  side 2    Res =  0.1019E-01
 MRCHDU: Convergence failed at  91  side 2    Res =  0.5409E-01
 MRCHDU: Convergence failed at  92  side 2    Res =  0.2394E-01
 MRCHDU: Convergence failed at  93  side 2    Res =  0.4775E-02
 Side 1  free  transition at x/c =  0.1061   24
 Side 2 forced transition at x/c =  1.0000   74

 148   rms: 0.8982E+01   max: -.1289E+03   T at   96  2   RLX: 0.004
       a = 13.750      CL =  0.7315
      Cm = -0.1025     CD =+Infinity   =>   CDf =  0.00334    CDp =+Infinity

 MRCHDU: Convergence failed at  90  side 2    Res =  0.1010E-01
 MRCHDU: Convergence failed at  91  side 2    Res =  0.5173E-01
 MRCHDU: Convergence failed at  92  side 2    Res =  0.1762E-01
 MRCHDU: Convergence failed at  93  side 2    Res =  0.1928E-02
 Side 1  free  transition at x/c =  0.1061   24
 Side 2 forced transition at x/c =  1.0000   74

 149   rms: 0.4157E+01   max: -.6413E+02   T at   93  2   RLX: 0.008
       a = 13.750      CL =  0.7305
      Cm = -0.1021     CD =+Infinity   =>   CDf =  0.00334    CDp =+Infinity

 MRCHDU: Convergence failed at  90  side 2    Res =  0.9845E-02
 MRCHDU: Convergence failed at  91  side 2    Res =  0.4747E-01

[TIMEOUT]
