
 ===================================================
  XFOIL Version 6.99
  Copyright (C) 2000   Mark Drela, Harold Youngren

  This software comes with ABSOLUTELY NO WARRANTY,
    subject to the GNU General Public License.

  Caveat computor
 ===================================================

 File  xfoil.def  not found

   QUIT    Exit program

  .OPER    Direct operating point(s)
  .MDES    Complex mapping design routine
  .QDES    Surface speed design routine
  .GDES    Geometry design routine

   SAVE f  Write airfoil to labeled coordinate file
   PSAV f  Write airfoil to plain coordinate file
   ISAV f  Write airfoil to ISES coordinate file
   MSAV f  Write airfoil to MSES coordinate file
   REVE    Reverse written-airfoil node ordering

   LOAD f  Read buffer airfoil from coordinate file
   NACA i  Set NACA 4,5-digit airfoil and buffer airfoil
   INTE    Set buffer airfoil by interpolating two airfoils
   NORM    Buffer airfoil normalization toggle
   XYCM rr Change CM reference location, currently  0.25000 0.00000

   BEND    Display structural properties of current airfoil

   PCOP    Set current-airfoil panel nodes directly from buffer airfoil points
   PANE    Set current-airfoil panel nodes ( 160 ) based on curvature
  .PPAR    Show/change paneling

  .PLOP    Plotting options

   WDEF f  Write  current-settings file
   RDEF f  Reread current-settings file
   NAME s  Specify new airfoil name
   NINC    Increment name version number

   Z       Zoom    | (available in all menus)
   U       Unzoom  | 

 XFOIL   c>  
 Labeled airfoil file.  Name:  ONERA HOR12 AIRFOIL                             

 Number of input coordinate points: 121
 Counterclockwise ordering
 Max thickness =     0.119461  at x =   0.239
 Max camber    =     0.038354  at x =   0.487

  LE  x,y  =  -0.00001   0.00032  |   Chord =   1.00001
  TE  x,y  =   1.00000   0.00000  |

 Current airfoil nodes set from buffer airfoil nodes ( 121 )

 XFOIL   c>  
 XFOIL   c>  
 Blunt trailing edge.  Gap =  0.00904

 Paneling parameters used...
   Number of panel nodes       160
   Panel bunching parameter    1.000
   TE/LE panel density ratio   0.150
   Refined-area/LE panel density ratio    0.200
   Top    side refined area x/c limits  1.000 1.000
   Bottom side refined area x/c limits  1.000 1.000

 XFOIL   c>  
.OPERi   c>  
 Xtr/c     =  1.0000    top    side
 Xtr/c     =  1.0000    bottom side
 Ncrit     =    9.00   ( 0.070 % turb. level )
 Vacc      =  0.0100

 Klag  =  5.6000     Uxwt  =    1.00
 A     =  6.7000     B     =  0.7500       KCt = 0.01485
 CtiniK=  1.8000     CtiniX=  3.3000

..VPAR   c>  
..VPAR   c>  
.OPERi   c>  
 M  =    0.0000
 Re =    150000

.OPERv   c>  
.OPERv   c>  
.OPERv   c>  
 Polar  1 newly created for accumulation
 Airfoil archived with polar: ONERA HOR12 AIRFOIL                             

Enter  polar save filename  OR  <return> for no file   s>  
 New polar save file available

Enter  polar dump filename  OR  <return> for no file   s>  
 Polar dump file will NOT be written

 Polar accumulation enabled

.OPERva   c>   Calculating unit vorticity distributions ...
 Calculating wake trajectory ...
 Calculating source influence matrix ...

 Solving BL system ...

 Initializing BL ...
    side            1  ...
 MRCHUE: Inverse mode at  49     Hk =   3.800
 MRCHUE: Inverse mode at  50     Hk =   4.172
 MRCHUE: Inverse mode at  51     Hk =   4.537
 MRCHUE: Inverse mode at  52     Hk =   4.894
 MRCHUE: Inverse mode at  53     Hk =   5.244
 MRCHUE: Inverse mode at  54     Hk =   5.589
 MRCHUE: Inverse mode at  55     Hk =   5.931
 MRCHUE: Inverse mode at  56     Hk =   6.268
 MRCHUE: Inverse mode at  57     Hk =   6.601
 MRCHUE: Inverse mode at  58     Hk =   6.931
 MRCHUE: Inverse mode at  59     Hk =   7.258
 MRCHUE: Inverse mode at  60     Hk =   7.582
 MRCHUE: Inverse mode at  61     Hk =   7.902
 MRCHUE: Inverse mode at  62     Hk =   8.218
 MRCHUE: Inverse mode at  63     Hk =   8.531
 MRCHUE: Inverse mode at  64     Hk =   8.841
 MRCHUE: Inverse mode at  65     Hk =   9.149
 MRCHUE: Inverse mode at  66     Hk =   8.740
 MRCHUE: Inverse mode at  67     Hk =   7.409
 MRCHUE: Inverse mode at  68     Hk =   6.439
 MRCHUE: Inverse mode at  69     Hk =   5.674
 MRCHUE: Inverse mode at  70     Hk =   5.053
 MRCHUE: Inverse mode at  71     Hk =   4.539
 MRCHUE: Inverse mode at  72     Hk =   4.097
 MRCHUE: Inverse mode at  73     Hk =   3.709
 MRCHUE: Inverse mode at  74     Hk =   3.376
    side            2  ...
 MRCHUE: Inverse mode at  20     Hk =   3.800
 MRCHUE: Inverse mode at  21     Hk =   4.417
 MRCHUE: Inverse mode at  22     Hk =   5.035
 MRCHUE: Inverse mode at  23     Hk =   5.668
 MRCHUE: Inverse mode at  24     Hk =   6.332
 MRCHUE: Inverse mode at  25     Hk =   7.041
 MRCHUE: Inverse mode at  26     Hk =   7.791
 MRCHUE: Inverse mode at  27     Hk =   8.578
 MRCHUE: Inverse mode at  28     Hk =   9.391
 MRCHUE: Inverse mode at  29     Hk =  10.219
 MRCHUE: Inverse mode at  30     Hk =   6.883
 MRCHUE: Inverse mode at  31     Hk =   4.691
 MRCHUE: Inverse mode at  32     Hk =   3.286

 Side 1  free  transition at x/c =  0.8550   66
 Side 2  free  transition at x/c =  0.1072   30

   1   rms: 0.2742E+00   max: -.3040E+01   T at   30  2   RLX: 0.164
       a = -4.000      CL =  0.0246
      Cm = -0.1167     CD =  0.02057   =>   CDf =  0.00771    CDp =  0.01286

 Side 1  free  transition at x/c =  0.8669   67
 Side 2  free  transition at x/c =  0.1156   30

   2   rms: 0.3860E+00   max: -.5748E+01   T at   30  2   RLX: 0.087
       a = -4.000      CL =  0.0303
      Cm = -0.1170     CD =  0.02253   =>   CDf =  0.00775    CDp =  0.01478

 Side 1  free  transition at x/c =  0.8706   67
 Side 2  free  transition at x/c =  0.1268   31

   3   rms: 0.2776E+00   max: -.3423E+01   T at   31  2   RLX: 0.146
       a = -4.000      CL =  0.0282
      Cm = -0.1163     CD =  0.01754   =>   CDf =  0.00767    CDp =  0.00988

 Side 1  free  transition at x/c =  0.8794   68
 Side 2  free  transition at x/c =  0.1425   32

   4   rms: 0.1976E+00   max: -.2371E+01   T at   32  2   RLX: 0.211
       a = -4.000      CL =  0.0299
      Cm = -0.1173     CD =  0.01628   =>   CDf =  0.00761    CDp =  0.00866

 Side 1  free  transition at x/c =  0.8859   68
 Side 2  free  transition at x/c =  0.1590   33

   5   rms: 0.1261E+00   max: -.1021E+01   T at   33  2   RLX: 0.490
       a = -4.000      CL =  0.0317
      Cm = -0.1169     CD =  0.01588   =>   CDf =  0.00753    CDp =  0.00835

 Side 1  free  transition at x/c =  0.9102   70
 Side 2  free  transition at x/c =  0.1777   34

   6   rms: 0.5207E-01   max: 0.3648E+00   D at   34  2
       a = -4.000      CL =  0.0377
      Cm = -0.1182     CD =  0.01591   =>   CDf =  0.00759    CDp =  0.00832

 Side 1  free  transition at x/c =  0.9208   70
 Side 2  free  transition at x/c =  0.1926   35

   7   rms: 0.3846E-01   max: 0.3332E+00   D at   35  2
       a = -4.000      CL =  0.0404
      Cm = -0.1182     CD =  0.01577   =>   CDf =  0.00754    CDp =  0.00823

 Side 1  free  transition at x/c =  0.9349   71
 Side 2  free  transition at x/c =  0.1923   35

   8   rms: 0.2059E-01   max: 0.1946E+00   C at   71  1
       a = -4.000      CL =  0.0403
      Cm = -0.1185     CD =  0.01583   =>   CDf =  0.00765    CDp =  0.00818

 Side 1  free  transition at x/c =  0.9290   71
 Side 2  free  transition at x/c =  0.1911   35

   9   rms: 0.4637E-02   max: -.3485E-01   D at   90  2
       a = -4.000      CL =  0.0376
      Cm = -0.1179     CD =  0.01589   =>   CDf =  0.00765    CDp =  0.00825

 Side 1  free  transition at x/c =  0.9268   71
 Side 2  free  transition at x/c =  0.1905   35

  10   rms: 0.3251E-03   max: -.3758E-02   D at   72  1
       a = -4.000      CL =  0.0375
      Cm = -0.1179     CD =  0.01589   =>   CDf =  0.00764    CDp =  0.00825

 Side 1  free  transition at x/c =  0.9269   71
 Side 2  free  transition at x/c =  0.1905   35

  11   rms: 0.2764E-05   max: -.2134E-04   D at   90  2
       a = -4.000      CL =  0.0375
      Cm = -0.1179     CD =  0.01589   =>   CDf =  0.00764    CDp =  0.00825
 plradd ia,ip,cpol            1           0  1.68468151E-02

 Point added to stored polar  1
 Point written to save file  hor12_Re150k.base.pol                           
 Dump file unspecified or not available
 Calculating wake trajectory ...
 Calculating source influence matrix ...

 Solving BL system ...

 Side 1  free  transition at x/c =  0.9269   71
 Side 2  free  transition at x/c =  0.1905   35

   1   rms: 0.1030E+00   max: -.7962E+00   T at   35  2   RLX: 0.628
       a = -3.500      CL =  0.0800
      Cm = -0.1188     CD =  0.01574   =>   CDf =  0.00764    CDp =  0.00810

 Side 1  free  transition at x/c =  0.9120   70
 Side 2  free  transition at x/c =  0.2089   36

   2   rms: 0.4060E-01   max: 0.3310E+00   D at   37  2
       a = -3.500      CL =  0.0964
      Cm = -0.1177     CD =  0.01549   =>   CDf =  0.00760    CDp =  0.00789

 Side 1  free  transition at x/c =  0.8947   70
 Side 2  free  transition at x/c =  0.2161   36

   3   rms: 0.1581E-01   max: 0.1768E+00   D at   36  2
       a = -3.500      CL =  0.0950
      Cm = -0.1174     CD =  0.01547   =>   CDf =  0.00769    CDp =  0.00778

 Side 1  free  transition at x/c =  0.8962   70
 Side 2  free  transition at x/c =  0.2148   36

   4   rms: 0.1626E-02   max: 0.1276E-01   D at   71  1
       a = -3.500      CL =  0.0948
      Cm = -0.1174     CD =  0.01548   =>   CDf =  0.00772    CDp =  0.00777

 Side 1  free  transition at x/c =  0.8957   70
 Side 2  free  transition at x/c =  0.2146   36

   5   rms: 0.1904E-04   max: -.1841E-03   D at   70  1
       a = -3.500      CL =  0.0948
      Cm = -0.1174     CD =  0.01548   =>   CDf =  0.00772    CDp =  0.00776
 plradd ia,ip,cpol            2           0  1.68468151E-02

 Point added to stored polar  1
 Point written to save file  hor12_Re150k.base.pol                           
 Dump file unspecified or not available
 Calculating wake trajectory ...
 Calculating source influence matrix ...

 Solving BL system ...

 Side 1  free  transition at x/c =  0.8957   70
 Side 2  free  transition at x/c =  0.2146   36

   1   rms: 0.1010E+00   max: -.7941E+00   T at   36  2   RLX: 0.630
       a = -3.000      CL =  0.1286
      Cm = -0.1164     CD =  0.01523   =>   CDf =  0.00773    CDp =  0.00750

 Side 1  free  transition at x/c =  0.8808   69
 Side 2  free  transition at x/c =  0.2270   36

   2   rms: 0.6833E-01   max: -.7210E+00   T at   36  2   RLX: 0.693
       a = -3.000      CL =  0.1460
      Cm = -0.1165     CD =  0.01658   =>   CDf =  0.00804    CDp =  0.00854

 MRCHDU: Convergence failed at  38  side 2    Res =  0.3267E+01
 MRCHDU: Convergence failed at  39  side 2    Res =  0.1343E+03
 MRCHDU: Convergence failed at  40  side 2    Res =  0.6023E+01
 MRCHDU: Convergence failed at  41  side 2    Res =  0.4893E+01
 MRCHDU: Convergence failed at  42  side 2    Res =  0.5313E+01
 MRCHDU: Convergence failed at  43  side 2    Res =  0.6118E+01
 MRCHDU: Convergence failed at  44  side 2    Res =  0.6980E+01
 MRCHDU: Convergence failed at  45  side 2    Res =  0.3861E+01
 MRCHDU: Convergence failed at  46  side 2    Res =  0.4337E+01
 MRCHDU: Convergence failed at  47  side 2    Res =  0.4692E+01
 MRCHDU: Convergence failed at  48  side 2    Res =  0.5001E+01
 MRCHDU: Convergence failed at  49  side 2    Res =  0.2243E+02
 MRCHDU: Convergence failed at  50  side 2    Res =  0.3200E+02
 MRCHDU: Convergence failed at  51  side 2    Res =  0.5052E+02
 MRCHDU: Convergence failed at  52  side 2    Res =  0.9399E+02
 MRCHDU: Convergence failed at  53  side 2    Res =  0.2913E+03
 MRCHDU: Convergence failed at  54  side 2    Res =  0.2549E+03
 MRCHDU: Convergence failed at  55  side 2    Res =  0.1177E+03
 MRCHDU: Convergence failed at  56  side 2    Res =  0.8436E+02
 MRCHDU: Convergence failed at  57  side 2    Res =  0.6794E+02
 MRCHDU: Convergence failed at  58  side 2    Res =  0.5831E+02
 MRCHDU: Convergence failed at  59  side 2    Res =  0.5165E+02
 MRCHDU: Convergence failed at  60  side 2    Res =  0.4693E+02
 MRCHDU: Convergence failed at  61  side 2    Res =  0.4274E+02
 MRCHDU: Convergence failed at  62  side 2    Res =  0.4026E+02
 MRCHDU: Convergence failed at  63  side 2    Res =  0.3793E+02
 MRCHDU: Convergence failed at  64  side 2    Res =  0.3582E+02
 MRCHDU: Convergence failed at  65  side 2    Res =  0.3383E+02
 MRCHDU: Convergence failed at  66  side 2    Res =  0.3187E+02
 MRCHDU: Convergence failed at  67  side 2    Res =  0.3009E+02
 MRCHDU: Convergence failed at  68  side 2    Res =  0.2879E+02
 MRCHDU: Convergence failed at  69  side 2    Res =  0.2701E+02
 MRCHDU: Convergence failed at  70  side 2    Res =  0.2554E+02
 MRCHDU: Convergence failed at  71  side 2    Res =  0.2729E+02
 MRCHDU: Convergence failed at  72  side 2    Res =  0.2678E+02
 MRCHDU: Convergence failed at  73  side 2    Res =  0.2673E+02
 MRCHDU: Convergence failed at  74  side 2    Res =  0.2693E+02
 MRCHDU: Convergence failed at  75  side 2    Res =  0.2368E+02
 MRCHDU: Convergence failed at  76  side 2    Res =  0.2710E+02
 MRCHDU: Convergence failed at  77  side 2    Res =  0.2686E+02
 MRCHDU: Convergence failed at  78  side 2    Res =  0.2331E+02
 MRCHDU: Convergence failed at  79  side 2    Res =  0.2316E+02
 MRCHDU: Convergence failed at  80  side 2    Res =  0.2300E+02
 MRCHDU: Convergence failed at  81  side 2    Res =  0.2697E+02
 MRCHDU: Convergence failed at  82  side 2    Res =  0.3415E+02
 MRCHDU: Convergence failed at  83  side 2    Res =  0.4382E+02
 MRCHDU: Convergence failed at  84  side 2    Res =  0.6187E+02
 MRCHDU: Convergence failed at  85  side 2    Res =  0.1025E+03
 Side 1  free  transition at x/c =  0.8695   68
 Side 2  free  transition at x/c =  0.2431   37

   3   rms: 0.6153E+00   max: 0.3110E+01   T at   37  2   RLX: 0.223
       a = -3.000      CL = -0.1912
      Cm =  0.0247     CD =  0.01158   =>   CDf =  0.00450    CDp =  0.00709

 MRCHDU: Convergence failed at  43  side 2    Res =  0.3935E-01
 Side 1  free  transition at x/c =  0.8716   68
 Side 2  free  transition at x/c =  0.2227   36

   4   rms: 0.2916E+00   max: -.9709E+00   D at   41  2   RLX: 0.515
       a = -3.000      CL =  0.0079
      Cm = -0.0656     CD =  0.02669   =>   CDf =  0.00529    CDp =  0.02140

 Side 1  free  transition at x/c =  0.8663   68
 Side 2  free  transition at x/c =  0.2269   36

   5   rms: 0.3747E+00   max: -.1354E+01   D at   48  2   RLX: 0.369
       a = -3.000      CL =  0.0243
      Cm = -0.0823     CD =  0.02174   =>   CDf =  0.00528    CDp =  0.01646

 MRCHDU: Convergence failed at  38  side 2    Res =  0.2976E+01
 MRCHDU: Convergence failed at  39  side 2    Res =  0.1864E+03
 MRCHDU: Convergence failed at  40  side 2    Res =  0.1048E+02
 MRCHDU: Convergence failed at  41  side 2    Res =  0.1469E+02
 MRCHDU: Convergence failed at  42  side 2    Res =  0.6920E+02
 Side 1  free  transition at x/c =  0.8626   68
 Side 2  free  transition at x/c =  0.2400   37

   6   rms: 0.3742E+00   max: -.1514E+01   D at   76  2   RLX: 0.330
       a = -3.000      CL =  0.0255
      Cm = -0.0968     CD =  0.01656   =>   CDf =  0.00553    CDp =  0.01104

 Side 1  free  transition at x/c =  0.8618   68
 Side 2  free  transition at x/c =  0.2338   37

   7   rms: 0.4716E+00   max: -.2146E+01   D at   76  2   RLX: 0.233
       a = -3.000      CL =  0.0596
      Cm = -0.1034     CD =  0.01572   =>   CDf =  0.00670    CDp =  0.00902

 Side 1  free  transition at x/c =  0.8620   68
 Side 2  free  transition at x/c =  0.2372   37

   8   rms: 0.3478E+00   max: -.1685E+01   D at   69  2   RLX: 0.297
       a = -3.000      CL =  0.0818
      Cm = -0.1087     CD =  0.01486   =>   CDf =  0.00717    CDp =  0.00769

 MRCHDU: Convergence failed at  60  side 2    Res =  0.4335E+00
 Side 1  free  transition at x/c =  0.8623   68
 Side 2  free  transition at x/c =  0.2388   37

   9   rms: 0.1823E+00   max: -.4597E+00   D at   78  2   RLX: 0.571
       a = -3.000      CL =  0.1267
      Cm = -0.1147     CD =  0.01509   =>   CDf =  0.00784    CDp =  0.00724

 Side 1  free  transition at x/c =  0.8643   68
 Side 2  free  transition at x/c =  0.2437   38

  10   rms: 0.9590E-01   max: 0.6521E+00   D at   76  2   RLX: 0.769
       a = -3.000      CL =  0.1474
      Cm = -0.1166     CD =  0.01520   =>   CDf =  0.00788    CDp =  0.00731

 Side 1  free  transition at x/c =  0.8653   68
 Side 2  free  transition at x/c =  0.2439   38

  11   rms: 0.2904E-01   max: -.3437E+00   D at   75  2
       a = -3.000      CL =  0.1494
      Cm = -0.1162     CD =  0.01519   =>   CDf =  0.00782    CDp =  0.00736

 Side 1  free  transition at x/c =  0.8656   68
 Side 2  free  transition at x/c =  0.2430   37

  12   rms: 0.3962E-02   max: -.5747E-01   D at   75  2
       a = -3.000      CL =  0.1488
      Cm = -0.1161     CD =  0.01515   =>   CDf =  0.00784    CDp =  0.00732

 Side 1  free  transition at x/c =  0.8656   68
 Side 2  free  transition at x/c =  0.2425   37

  13   rms: 0.1227E-03   max: -.1412E-02   D at   75  2
       a = -3.000      CL =  0.1488
      Cm = -0.1161     CD =  0.01515   =>   CDf =  0.00782    CDp =  0.00734

 Side 1  free  transition at x/c =  0.8656   68
 Side 2  free  transition at x/c =  0.2425   37

  14   rms: 0.1153E-05   max: -.6327E-05   D at   71  1
       a = -3.000      CL =  0.1488
      Cm = -0.1161     CD =  0.01515   =>   CDf =  0.00782    CDp =  0.00734
 plradd ia,ip,cpol            3           0  1.68468151E-02

 Point added to stored polar  1
 Point written to save file  hor12_Re150k.base.pol                           
 Dump file unspecified or not available
 Calculating wake trajectory ...
 Calculating source influence matrix ...

 Solving BL system ...

 Side 1  free  transition at x/c =  0.8656   68
 Side 2  free  transition at x/c =  0.2425   37

   1   rms: 0.1036E+00   max: -.9048E+00   T at   37  2   RLX: 0.553
       a = -2.500      CL =  0.1792
      Cm = -0.1153     CD =  0.01515   =>   CDf =  0.00784    CDp =  0.00731

 MRCHDU: Convergence failed at  38  side 2    Res =  0.1484E+02
 MRCHDU: Convergence failed at  39  side 2    Res =  0.4707E+01
 MRCHDU: Convergence failed at  40  side 2    Res =  0.7160E+01
 MRCHDU: Convergence failed at  41  side 2    Res =  0.2134E+02
 MRCHDU: Convergence failed at  42  side 2    Res =  0.1209E+03
 MRCHDU: Convergence failed at  43  side 2    Res =  0.1113E+03
 MRCHDU: Convergence failed at  44  side 2    Res =  0.8386E+02
 MRCHDU: Convergence failed at  45  side 2    Res =  0.1540E+03
 MRCHDU: Convergence failed at  46  side 2    Res =  0.7856E+03
 MRCHDU: Convergence failed at  47  side 2    Res =  0.1678E+03
 MRCHDU: Convergence failed at  48  side 2    Res =  0.8057E+02
 MRCHDU: Convergence failed at  49  side 2    Res =  0.5042E+02
 MRCHDU: Convergence failed at  50  side 2    Res =  0.3751E+02
 MRCHDU: Convergence failed at  51  side 2    Res =  0.3097E+02
 MRCHDU: Convergence failed at  52  side 2    Res =  0.2625E+02
 MRCHDU: Convergence failed at  53  side 2    Res =  0.2378E+02
 MRCHDU: Convergence failed at  54  side 2    Res =  0.2270E+02
 MRCHDU: Convergence failed at  55  side 2    Res =  0.2197E+02
 MRCHDU: Convergence failed at  56  side 2    Res =  0.2140E+02
 MRCHDU: Convergence failed at  57  side 2    Res =  0.2092E+02
 MRCHDU: Convergence failed at  58  side 2    Res =  0.2042E+02
 MRCHDU: Convergence failed at  59  side 2    Res =  0.1993E+02
 MRCHDU: Convergence failed at  60  side 2    Res =  0.1941E+02
 MRCHDU: Convergence failed at  61  side 2    Res =  0.1901E+02
 MRCHDU: Convergence failed at  62  side 2    Res =  0.1865E+02
 MRCHDU: Convergence failed at  63  side 2    Res =  0.1829E+02
 MRCHDU: Convergence failed at  64  side 2    Res =  0.1789E+02
 MRCHDU: Convergence failed at  65  side 2    Res =  0.1738E+02
 MRCHDU: Convergence failed at  66  side 2    Res =  0.1691E+02
 MRCHDU: Convergence failed at  67  side 2    Res =  0.1638E+02
 MRCHDU: Convergence failed at  68  side 2    Res =  0.1581E+02
 MRCHDU: Convergence failed at  69  side 2    Res =  0.1531E+02
 MRCHDU: Convergence failed at  70  side 2    Res =  0.1498E+02
 MRCHDU: Convergence failed at  71  side 2    Res =  0.1485E+02
 MRCHDU: Convergence failed at  72  side 2    Res =  0.1488E+02
 MRCHDU: Convergence failed at  73  side 2    Res =  0.1498E+02
 MRCHDU: Convergence failed at  74  side 2    Res =  0.1514E+02
 MRCHDU: Convergence failed at  75  side 2    Res =  0.1513E+02
 MRCHDU: Convergence failed at  76  side 2    Res =  0.1508E+02
 MRCHDU: Convergence failed at  77  side 2    Res =  0.1538E+02
 MRCHDU: Convergence failed at  78  side 2    Res =  0.1544E+02
 MRCHDU: Convergence failed at  79  side 2    Res =  0.1563E+02
 MRCHDU: Convergence failed at  80  side 2    Res =  0.1866E+02
 MRCHDU: Convergence failed at  81  side 2    Res =  0.2441E+02
 MRCHDU: Convergence failed at  82  side 2    Res =  0.3249E+02
 MRCHDU: Convergence failed at  83  side 2    Res =  0.5154E+02
 MRCHDU: Convergence failed at  84  side 2    Res =  0.1938E+03
 MRCHDU: Convergence failed at  87  side 2    Res =  0.5153E+01
 MRCHDU: Convergence failed at  88  side 2    Res =  0.1305E+02
 MRCHDU: Convergence failed at  89  side 2    Res =  0.1505E+03
 MRCHDU: Convergence failed at  90  side 2    Res =  0.1135E+02
 Side 1  free  transition at x/c =  0.8520   68
 Side 2  free  transition at x/c =  0.2689   38

   2   rms: 0.4253E+00   max: 0.1331E+01   T at   67  2
       a = -2.500      CL =  0.1308
      Cm = -0.0936     CD =  0.01395   =>   CDf =  0.00463    CDp =  0.00932

 Side 1  free  transition at x/c =  0.8350   67
 Side 2  free  transition at x/c =  0.2394   36

   3   rms: 0.1235E+00   max: -.1163E+01   T at   36  2   RLX: 0.430
       a = -2.500      CL =  0.1652
      Cm = -0.1029     CD =  0.01682   =>   CDf =  0.00799    CDp =  0.00884

 Side 1  free  transition at x/c =  0.8364   67
 Side 2  free  transition at x/c =  0.2589   37

   4   rms: 0.5740E-01   max: -.5770E+00   T at   37  2   RLX: 0.867
       a = -2.500      CL =  0.1977
      Cm = -0.1133     CD =  0.01506   =>   CDf =  0.00810    CDp =  0.00695

 MRCHDU: Convergence failed at  39  side 2    Res =  0.2723E+03
 MRCHDU: Convergence failed at  40  side 2    Res =  0.5112E+01
 MRCHDU: Convergence failed at  41  side 2    Res =  0.1365E+02
 MRCHDU: Convergence failed at  42  side 2    Res =  0.1634E+03
 MRCHDU: Convergence failed at  43  side 2    Res =  0.4665E+02
 MRCHDU: Convergence failed at  44  side 2    Res =  0.3510E+02
 MRCHDU: Convergence failed at  45  side 2    Res =  0.4392E+02
 MRCHDU: Convergence failed at  46  side 2    Res =  0.5964E+02
 MRCHDU: Convergence failed at  47  side 2    Res =  0.1129E+03
 MRCHDU: Convergence failed at  48  side 2    Res =  0.3523E+04
 MRCHDU: Convergence failed at  49  side 2    Res =  0.1619E+03
 MRCHDU: Convergence failed at  50  side 2    Res =  0.7752E+02
 MRCHDU: Convergence failed at  51  side 2    Res =  0.5318E+02
 MRCHDU: Convergence failed at  52  side 2    Res =  0.3973E+02
 MRCHDU: Convergence failed at  53  side 2    Res =  0.3384E+02
 MRCHDU: Convergence failed at  54  side 2    Res =  0.3123E+02
 MRCHDU: Convergence failed at  55  side 2    Res =  0.2935E+02
 MRCHDU: Convergence failed at  56  side 2    Res =  0.2798E+02
 MRCHDU: Convergence failed at  57  side 2    Res =  0.2684E+02
 MRCHDU: Convergence failed at  58  side 2    Res =  0.2573E+02
 MRCHDU: Convergence failed at  59  side 2    Res =  0.2470E+02
 MRCHDU: Convergence failed at  60  side 2    Res =  0.2370E+02
 MRCHDU: Convergence failed at  61  side 2    Res =  0.2294E+02
 MRCHDU: Convergence failed at  62  side 2    Res =  0.2231E+02
 MRCHDU: Convergence failed at  63  side 2    Res =  0.2166E+02
 MRCHDU: Convergence failed at  64  side 2    Res =  0.2098E+02
 MRCHDU: Convergence failed at  65  side 2    Res =  0.2018E+02
 MRCHDU: Convergence failed at  66  side 2    Res =  0.1947E+02
 MRCHDU: Convergence failed at  67  side 2    Res =  0.1870E+02
 MRCHDU: Convergence failed at  68  side 2    Res =  0.1786E+02
 MRCHDU: Convergence failed at  69  side 2    Res =  0.1721E+02
 MRCHDU: Convergence failed at  70  side 2    Res =  0.1671E+02
 MRCHDU: Convergence failed at  71  side 2    Res =  0.1651E+02
 MRCHDU: Convergence failed at  72  side 2    Res =  0.1649E+02
 MRCHDU: Convergence failed at  73  side 2    Res =  0.1658E+02
 MRCHDU: Convergence failed at  74  side 2    Res =  0.1673E+02
 MRCHDU: Convergence failed at  75  side 2    Res =  0.1668E+02
 MRCHDU: Convergence failed at  76  side 2    Res =  0.1658E+02
 MRCHDU: Convergence failed at  77  side 2    Res =  0.1690E+02
 MRCHDU: Convergence failed at  78  side 2    Res =  0.1694E+02
 MRCHDU: Convergence failed at  79  side 2    Res =  0.1710E+02
 MRCHDU: Convergence failed at  80  side 2    Res =  0.2085E+02
 MRCHDU: Convergence failed at  81  side 2    Res =  0.2829E+02
 MRCHDU: Convergence failed at  82  side 2    Res =  0.4044E+02
 MRCHDU: Convergence failed at  83  side 2    Res =  0.7978E+02
 MRCHDU: Convergence failed at  84  side 2    Res =  0.2916E+03
 Side 1  free  transition at x/c =  0.8377   67
 Side 2  free  transition at x/c =  0.2819   39

   5   rms: 0.4204E+00   max: 0.1367E+01   C at   39  2
       a = -2.500      CL =  0.1280
      Cm = -0.0926     CD =  0.01419   =>   CDf =  0.00470    CDp =  0.00949

 Side 1  free  transition at x/c =  0.8378   67
 Side 2  free  transition at x/c =  0.2407   36

   6   rms: 0.1614E+00   max: -.1429E+01   T at   36  2   RLX: 0.350
       a = -2.500      CL =  0.1592
      Cm = -0.1012     CD =  0.01749   =>   CDf =  0.00778    CDp =  0.00970

 Side 1  free  transition at x/c =  0.8376   67
 Side 2  free  transition at x/c =  0.2594   37

   7   rms: 0.8785E-01   max: -.7145E+00   D at   41  2   RLX: 0.700
       a = -2.500      CL =  0.1895
      Cm = -0.1107     CD =  0.01531   =>   CDf =  0.00802    CDp =  0.00729

 MRCHDU: Convergence failed at  39  side 2    Res =  0.2720E+02
 MRCHDU: Convergence failed at  40  side 2    Res =  0.1054E+02
 MRCHDU: Convergence failed at  41  side 2    Res =  0.2316E+02
 MRCHDU: Convergence failed at  42  side 2    Res =  0.1315E+02
 MRCHDU: Convergence failed at  43  side 2    Res =  0.1326E+02
 MRCHDU: Convergence failed at  44  side 2    Res =  0.1616E+02
 MRCHDU: Convergence failed at  45  side 2    Res =  0.2226E+02
 MRCHDU: Convergence failed at  46  side 2    Res =  0.3145E+02
 MRCHDU: Convergence failed at  47  side 2    Res =  0.4831E+02
 MRCHDU: Convergence failed at  48  side 2    Res =  0.1036E+03
 MRCHDU: Convergence failed at  49  side 2    Res =  0.4202E+03
 MRCHDU: Convergence failed at  50  side 2    Res =  0.1975E+03
 MRCHDU: Convergence failed at  51  side 2    Res =  0.8451E+02
 MRCHDU: Convergence failed at  52  side 2    Res =  0.5508E+02
 MRCHDU: Convergence failed at  53  side 2    Res =  0.4344E+02
 MRCHDU: Convergence failed at  54  side 2    Res =  0.3762E+02
 MRCHDU: Convergence failed at  55  side 2    Res =  0.3430E+02
 MRCHDU: Convergence failed at  56  side 2    Res =  0.3176E+02
 MRCHDU: Convergence failed at  57  side 2    Res =  0.2975E+02
 MRCHDU: Convergence failed at  58  side 2    Res =  0.2806E+02
 MRCHDU: Convergence failed at  59  side 2    Res =  0.2641E+02
 MRCHDU: Convergence failed at  60  side 2    Res =  0.2494E+02
 MRCHDU: Convergence failed at  61  side 2    Res =  0.2390E+02
 MRCHDU: Convergence failed at  62  side 2    Res =  0.2307E+02
 MRCHDU: Convergence failed at  63  side 2    Res =  0.2227E+02
 MRCHDU: Convergence failed at  64  side 2    Res =  0.2149E+02
 MRCHDU: Convergence failed at  65  side 2    Res =  0.2070E+02
 MRCHDU: Convergence failed at  66  side 2    Res =  0.1996E+02
 MRCHDU: Convergence failed at  67  side 2    Res =  0.1913E+02
 MRCHDU: Convergence failed at  68  side 2    Res =  0.1835E+02
 MRCHDU: Convergence failed at  69  side 2    Res =  0.1766E+02
 MRCHDU: Convergence failed at  70  side 2    Res =  0.1720E+02
 MRCHDU: Convergence failed at  71  side 2    Res =  0.1697E+02
 MRCHDU: Convergence failed at  72  side 2    Res =  0.1691E+02
 MRCHDU: Convergence failed at  73  side 2    Res =  0.1695E+02
 MRCHDU: Convergence failed at  74  side 2    Res =  0.1705E+02
 MRCHDU: Convergence failed at  75  side 2    Res =  0.1697E+02
 MRCHDU: Convergence failed at  76  side 2    Res =  0.1685E+02
 MRCHDU: Convergence failed at  77  side 2    Res =  0.1710E+02
 MRCHDU: Convergence failed at  78  side 2    Res =  0.1712E+02
 MRCHDU: Convergence failed at  79  side 2    Res =  0.1721E+02
 MRCHDU: Convergence failed at  80  side 2    Res =  0.2013E+02
 MRCHDU: Convergence failed at  81  side 2    Res =  0.2534E+02
 MRCHDU: Convergence failed at  82  side 2    Res =  0.3219E+02
 MRCHDU: Convergence failed at  83  side 2    Res =  0.4571E+02
 MRCHDU: Convergence failed at  84  side 2    Res =  0.8876E+02
 Side 1  free  transition at x/c =  0.8376   67
 Side 2  free  transition at x/c =  0.2819   39

   8   rms: 0.4180E+00   max: 0.1361E+01   C at   39  2
       a = -2.500      CL =  0.1272
      Cm = -0.0927     CD =  0.01409   =>   CDf =  0.00469    CDp =  0.00940

 Side 1  free  transition at x/c =  0.8377   67
 Side 2  free  transition at x/c =  0.2410   36

   9   rms: 0.1644E+00   max: -.1470E+01   T at   36  2   RLX: 0.340
       a = -2.500      CL =  0.1581
      Cm = -0.1011     CD =  0.01747   =>   CDf =  0.00779    CDp =  0.00968

 Side 1  free  transition at x/c =  0.8376   67
 Side 2  free  transition at x/c =  0.2597   37

  10   rms: 0.8920E-01   max: -.7290E+00   D at   41  2   RLX: 0.686
       a = -2.500      CL =  0.1885
      Cm = -0.1105     CD =  0.01531   =>   CDf =  0.00802    CDp =  0.00728

 MRCHDU: Convergence failed at  39  side 2    Res =  0.2512E+02
 MRCHDU: Convergence failed at  40  side 2    Res =  0.1222E+02
 MRCHDU: Convergence failed at  41  side 2    Res =  0.2065E+02
 MRCHDU: Convergence failed at  42  side 2    Res =  0.1315E+02
 MRCHDU: Convergence failed at  43  side 2    Res =  0.1249E+02
 MRCHDU: Convergence failed at  44  side 2    Res =  0.1533E+02
 MRCHDU: Convergence failed at  45  side 2    Res =  0.2094E+02
 MRCHDU: Convergence failed at  46  side 2    Res =  0.2926E+02
 MRCHDU: Convergence failed at  47  side 2    Res =  0.4405E+02
 MRCHDU: Convergence failed at  48  side 2    Res =  0.8811E+02
 MRCHDU: Convergence failed at  49  side 2    Res =  0.2598E+03
 MRCHDU: Convergence failed at  50  side 2    Res =  0.2637E+03
 MRCHDU: Convergence failed at  51  side 2    Res =  0.9312E+02
 MRCHDU: Convergence failed at  52  side 2    Res =  0.5810E+02
 MRCHDU: Convergence failed at  53  side 2    Res =  0.4501E+02
 MRCHDU: Convergence failed at  54  side 2    Res =  0.3858E+02
 MRCHDU: Convergence failed at  55  side 2    Res =  0.3494E+02
 MRCHDU: Convergence failed at  56  side 2    Res =  0.3220E+02
 MRCHDU: Convergence failed at  57  side 2    Res =  0.3006E+02
 MRCHDU: Convergence failed at  58  side 2    Res =  0.2828E+02
 MRCHDU: Convergence failed at  59  side 2    Res =  0.2655E+02
 MRCHDU: Convergence failed at  60  side 2    Res =  0.2502E+02
 MRCHDU: Convergence failed at  61  side 2    Res =  0.2395E+02
 MRCHDU: Convergence failed at  62  side 2    Res =  0.2309E+02
 MRCHDU: Convergence failed at  63  side 2    Res =  0.2227E+02
 MRCHDU: Convergence failed at  64  side 2    Res =  0.2149E+02
 MRCHDU: Convergence failed at  65  side 2    Res =  0.2069E+02
 MRCHDU: Convergence failed at  66  side 2    Res =  0.1994E+02
 MRCHDU: Convergence failed at  67  side 2    Res =  0.1911E+02
 MRCHDU: Convergence failed at  68  side 2    Res =  0.1833E+02
 MRCHDU: Convergence failed at  69  side 2    Res =  0.1764E+02
 MRCHDU: Convergence failed at  70  side 2    Res =  0.1718E+02
 MRCHDU: Convergence failed at  71  side 2    Res =  0.1695E+02
 MRCHDU: Convergence failed at  72  side 2    Res =  0.1689E+02
 MRCHDU: Convergence failed at  73  side 2    Res =  0.1692E+02
 MRCHDU: Convergence failed at  74  side 2    Res =  0.1702E+02
 MRCHDU: Convergence failed at  75  side 2    Res =  0.1694E+02
 MRCHDU: Convergence failed at  76  side 2    Res =  0.1682E+02
 MRCHDU: Convergence failed at  77  side 2    Res =  0.1706E+02
 MRCHDU: Convergence failed at  78  side 2    Res =  0.1707E+02
 MRCHDU: Convergence failed at  79  side 2    Res =  0.1716E+02
 MRCHDU: Convergence failed at  80  side 2    Res =  0.2003E+02
 MRCHDU: Convergence failed at  81  side 2    Res =  0.2511E+02
 MRCHDU: Convergence failed at  82  side 2    Res =  0.3174E+02
 MRCHDU: Convergence failed at  83  side 2    Res =  0.4459E+02
 MRCHDU: Convergence failed at  84  side 2    Res =  0.8297E+02
 Side 1  free  transition at x/c =  0.8376   67
 Side 2  free  transition at x/c =  0.2823   39

  11   rms: 0.4169E+00   max: 0.1353E+01   C at   39  2
       a = -2.500      CL =  0.1271
      Cm = -0.0928     CD =  0.01407   =>   CDf =  0.00469    CDp =  0.00938

 Side 1  free  transition at x/c =  0.8377   67
 Side 2  free  transition at x/c =  0.2410   36

  12   rms: 0.1645E+00   max: -.1472E+01   T at   36  2   RLX: 0.340
       a = -2.500      CL =  0.1580
      Cm = -0.1011     CD =  0.01748   =>   CDf =  0.00779    CDp =  0.00969

 Side 1  free  transition at x/c =  0.8376   67
 Side 2  free  transition at x/c =  0.2597   37

  13   rms: 0.8915E-01   max: -.7275E+00   D at   41  2   RLX: 0.687
       a = -2.500      CL =  0.1885
      Cm = -0.1105     CD =  0.01531   =>   CDf =  0.00802    CDp =  0.00728

 MRCHDU: Convergence failed at  39  side 2    Res =  0.2450E+02
 MRCHDU: Convergence failed at  40  side 2    Res =  0.1238E+02
 MRCHDU: Convergence failed at  41  side 2    Res =  0.2036E+02
 MRCHDU: Convergence failed at  42  side 2    Res =  0.1309E+02
 MRCHDU: Convergence failed at  43  side 2    Res =  0.1247E+02
 MRCHDU: Convergence failed at  44  side 2    Res =  0.1529E+02
 MRCHDU: Convergence failed at  45  side 2    Res =  0.2088E+02
 MRCHDU: Convergence failed at  46  side 2    Res =  0.2917E+02
 MRCHDU: Convergence failed at  47  side 2    Res =  0.4390E+02
 MRCHDU: Convergence failed at  48  side 2    Res =  0.8771E+02
 MRCHDU: Convergence failed at  49  side 2    Res =  0.2574E+03
 MRCHDU: Convergence failed at  50  side 2    Res =  0.2651E+03
 MRCHDU: Convergence failed at  51  side 2    Res =  0.9321E+02
 MRCHDU: Convergence failed at  52  side 2    Res =  0.5811E+02
 MRCHDU: Convergence failed at  53  side 2    Res =  0.4501E+02
 MRCHDU: Convergence failed at  54  side 2    Res =  0.3857E+02
 MRCHDU: Convergence failed at  55  side 2    Res =  0.3494E+02
 MRCHDU: Convergence failed at  56  side 2    Res =  0.3220E+02
 MRCHDU: Convergence failed at  57  side 2    Res =  0.3007E+02
 MRCHDU: Convergence failed at  58  side 2    Res =  0.2828E+02
 MRCHDU: Convergence failed at  59  side 2    Res =  0.2656E+02
 MRCHDU: Convergence failed at  60  side 2    Res =  0.2503E+02
 MRCHDU: Convergence failed at  61  side 2    Res =  0.2396E+02
 MRCHDU: Convergence failed at  62  side 2    Res =  0.2310E+02
 MRCHDU: Convergence failed at  63  side 2    Res =  0.2229E+02
 MRCHDU: Convergence failed at  64  side 2    Res =  0.2150E+02
 MRCHDU: Convergence failed at  65  side 2    Res =  0.2071E+02
 MRCHDU: Convergence failed at  66  side 2    Res =  0.1995E+02
 MRCHDU: Convergence failed at  67  side 2    Res =  0.1912E+02
 MRCHDU: Convergence failed at  68  side 2    Res =  0.1834E+02
 MRCHDU: Convergence failed at  69  side 2    Res =  0.1765E+02
 MRCHDU: Convergence failed at  70  side 2    Res =  0.1719E+02
 MRCHDU: Convergence failed at  71  side 2    Res =  0.1695E+02
 MRCHDU: Convergence failed at  72  side 2    Res =  0.1689E+02
 MRCHDU: Convergence failed at  73  side 2    Res =  0.1693E+02
 MRCHDU: Convergence failed at  74  side 2    Res =  0.1702E+02
 MRCHDU: Convergence failed at  75  side 2    Res =  0.1694E+02
 MRCHDU: Convergence failed at  76  side 2    Res =  0.1682E+02
 MRCHDU: Convergence failed at  77  side 2    Res =  0.1707E+02
 MRCHDU: Convergence failed at  78  side 2    Res =  0.1708E+02
 MRCHDU: Convergence failed at  79  side 2    Res =  0.1717E+02
 MRCHDU: Convergence failed at  80  side 2    Res =  0.2004E+02
 MRCHDU: Convergence failed at  81  side 2    Res =  0.2514E+02
 MRCHDU: Convergence failed at  82  side 2    Res =  0.3180E+02
 MRCHDU: Convergence failed at  83  side 2    Res =  0.4474E+02
 MRCHDU: Convergence failed at  84  side 2    Res =  0.8374E+02
 Side 1  free  transition at x/c =  0.8376   67
 Side 2  free  transition at x/c =  0.2823   39

  14   rms: 0.4168E+00   max: 0.1352E+01   C at   39  2
       a = -2.500      CL =  0.1271
      Cm = -0.0928     CD =  0.01407   =>   CDf =  0.00469    CDp =  0.00938

 Side 1  free  transition at x/c =  0.8377   67
 Side 2  free  transition at x/c =  0.2410   36

  15   rms: 0.1645E+00   max: -.1472E+01   T at   36  2   RLX: 0.340
       a = -2.500      CL =  0.1580
      Cm = -0.1011     CD =  0.01748   =>   CDf =  0.00779    CDp =  0.00969

 Side 1  free  transition at x/c =  0.8376   67
 Side 2  free  transition at x/c =  0.2597   37

  16   rms: 0.8914E-01   max: -.7272E+00   D at   41  2   RLX: 0.688
       a = -2.500      CL =  0.1885
      Cm = -0.1105     CD =  0.01531   =>   CDf =  0.00802    CDp =  0.00728

 MRCHDU: Convergence failed at  39  side 2    Res =  0.2461E+02
 MRCHDU: Convergence failed at  40  side 2    Res =  0.1237E+02
 MRCHDU: Convergence failed at  41  side 2    Res =  0.2036E+02
 MRCHDU: Convergence failed at  42  side 2    Res =  0.1310E+02
 MRCHDU: Convergence failed at  43  side 2    Res =  0.1247E+02
 MRCHDU: Convergence failed at  44  side 2    Res =  0.1530E+02
 MRCHDU: Convergence failed at  45  side 2    Res =  0.2090E+02
 MRCHDU: Convergence failed at  46  side 2    Res =  0.2919E+02
 MRCHDU: Convergence failed at  47  side 2    Res =  0.4395E+02
 MRCHDU: Convergence failed at  48  side 2    Res =  0.8788E+02
 MRCHDU: Convergence failed at  49  side 2    Res =  0.2587E+03
 MRCHDU: Convergence failed at  50  side 2    Res =  0.2639E+03
 MRCHDU: Convergence failed at  51  side 2    Res =  0.9307E+02
 MRCHDU: Convergence failed at  52  side 2    Res =  0.5806E+02
 MRCHDU: Convergence failed at  53  side 2    Res =  0.4499E+02
 MRCHDU: Convergence failed at  54  side 2    Res =  0.3856E+02
 MRCHDU: Convergence failed at  55  side 2    Res =  0.3493E+02
 MRCHDU: Convergence failed at  56  side 2    Res =  0.3220E+02
 MRCHDU: Convergence failed at  57  side 2    Res =  0.3006E+02
 MRCHDU: Convergence failed at  58  side 2    Res =  0.2828E+02
 MRCHDU: Convergence failed at  59  side 2    Res =  0.2656E+02
 MRCHDU: Convergence failed at  60  side 2    Res =  0.2503E+02
 MRCHDU: Convergence failed at  61  side 2    Res =  0.2396E+02
 MRCHDU: Convergence failed at  62  side 2    Res =  0.2310E+02
 MRCHDU: Convergence failed at  63  side 2    Res =  0.2229E+02
 MRCHDU: Convergence failed at  64  side 2    Res =  0.2150E+02
 MRCHDU: Convergence failed at  65  side 2    Res =  0.2071E+02
 MRCHDU: Convergence failed at  66  side 2    Res =  0.1996E+02
 MRCHDU: Convergence failed at  67  side 2    Res =  0.1912E+02
 MRCHDU: Convergence failed at  68  side 2    Res =  0.1834E+02
 MRCHDU: Convergence failed at  69  side 2    Res =  0.1765E+02
 MRCHDU: Convergence failed at  70  side 2    Res =  0.1719E+02
 MRCHDU: Convergence failed at  71  side 2    Res =  0.1696E+02
 MRCHDU: Convergence failed at  72  side 2    Res =  0.1690E+02
 MRCHDU: Convergence failed at  73  side 2    Res =  0.1693E+02
 MRCHDU: Convergence failed at  74  side 2    Res =  0.1702E+02
 MRCHDU: Convergence failed at  75  side 2    Res =  0.1694E+02
 MRCHDU: Convergence failed at  76  side 2    Res =  0.1682E+02
 MRCHDU: Convergence failed at  77  side 2    Res =  0.1707E+02
 MRCHDU: Convergence failed at  78  side 2    Res =  0.1708E+02
 MRCHDU: Convergence failed at  79  side 2    Res =  0.1717E+02
 MRCHDU: Convergence failed at  80  side 2    Res =  0.2004E+02
 MRCHDU: Convergence failed at  81  side 2    Res =  0.2515E+02
 MRCHDU: Convergence failed at  82  side 2    Res =  0.3181E+02
 MRCHDU: Convergence failed at  83  side 2    Res =  0.4477E+02
 MRCHDU: Convergence failed at  84  side 2    Res =  0.8388E+02
 Side 1  free  transition at x/c =  0.8376   67
 Side 2  free  transition at x/c =  0.2823   39

  17   rms: 0.4169E+00   max: 0.1352E+01   C at   39  2
       a = -2.500      CL =  0.1271
      Cm = -0.0928     CD =  0.01407   =>   CDf =  0.00469    CDp =  0.00938

 Side 1  free  transition at x/c =  0.8377   67
 Side 2  free  transition at x/c =  0.2410   36

  18   rms: 0.1645E+00   max: -.1472E+01   T at   36  2   RLX: 0.340
       a = -2.500      CL =  0.1580
      Cm = -0.1011     CD =  0.01748   =>   CDf =  0.00779    CDp =  0.00969

 Side 1  free  transition at x/c =  0.8376   67
 Side 2  free  transition at x/c =  0.2597   37

  19   rms: 0.8914E-01   max: -.7272E+00   D at   41  2   RLX: 0.688
       a = -2.500      CL =  0.1885
      Cm = -0.1105     CD =  0.01531   =>   CDf =  0.00802    CDp =  0.00728

 MRCHDU: Convergence failed at  39  side 2    Res =  0.2462E+02
 MRCHDU: Convergence failed at  40  side 2    Res =  0.1237E+02
 MRCHDU: Convergence failed at  41  side 2    Res =  0.2037E+02
 MRCHDU: Convergence failed at  42  side 2    Res =  0.1310E+02
 MRCHDU: Convergence failed at  43  side 2    Res =  0.1248E+02
 MRCHDU: Convergence failed at  44  side 2    Res =  0.1530E+02
 MRCHDU: Convergence failed at  45  side 2    Res =  0.2090E+02
 MRCHDU: Convergence failed at  46  side 2    Res =  0.2920E+02
 MRCHDU: Convergence failed at  47  side 2    Res =  0.4395E+02
 MRCHDU: Convergence failed at  48  side 2    Res =  0.8790E+02
 MRCHDU: Convergence failed at  49  side 2    Res =  0.2589E+03
 MRCHDU: Convergence failed at  50  side 2    Res =  0.2638E+03
 MRCHDU: Convergence failed at  51  side 2    Res =  0.9307E+02
 MRCHDU: Convergence failed at  52  side 2    Res =  0.5806E+02
 MRCHDU: Convergence failed at  53  side 2    Res =  0.4498E+02
 MRCHDU: Convergence failed at  54  side 2    Res =  0.3856E+02
 MRCHDU: Convergence failed at  55  side 2    Res =  0.3493E+02
 MRCHDU: Convergence failed at  56  side 2    Res =  0.3220E+02
 MRCHDU: Convergence failed at  57  side 2    Res =  0.3006E+02
 MRCHDU: Convergence failed at  58  side 2    Res =  0.2828E+02
 MRCHDU: Convergence failed at  59  side 2    Res =  0.2656E+02
 MRCHDU: Convergence failed at  60  side 2    Res =  0.2503E+02
 MRCHDU: Convergence failed at  61  side 2    Res =  0.2396E+02
 MRCHDU: Convergence failed at  62  side 2    Res =  0.2310E+02
 MRCHDU: Convergence failed at  63  side 2    Res =  0.2229E+02
 MRCHDU: Convergence failed at  64  side 2    Res =  0.2150E+02
 MRCHDU: Convergence failed at  65  side 2    Res =  0.2071E+02
 MRCHDU: Convergence failed at  66  side 2    Res =  0.1996E+02
 MRCHDU: Convergence failed at  67  side 2    Res =  0.1912E+02
 MRCHDU: Convergence failed at  68  side 2    Res =  0.1834E+02
 MRCHDU: Convergence failed at  69  side 2    Res =  0.1765E+02
 MRCHDU: Convergence failed at  70  side 2    Res =  0.1719E+02
 MRCHDU: Convergence failed at  71  side 2    Res =  0.1696E+02
 MRCHDU: Convergence failed at  72  side 2    Res =  0.1689E+02
 MRCHDU: Convergence failed at  73  side 2    Res =  0.1693E+02
 MRCHDU: Convergence failed at  74  side 2    Res =  0.1702E+02
 MRCHDU: Convergence failed at  75  side 2    Res =  0.1694E+02
 MRCHDU: Convergence failed at  76  side 2    Res =  0.1682E+02
 MRCHDU: Convergence failed at  77  side 2    Res =  0.1707E+02
 MRCHDU: Convergence failed at  78  side 2    Res =  0.1708E+02
 MRCHDU: Convergence failed at  79  side 2    Res =  0.1717E+02
 MRCHDU: Convergence failed at  80  side 2    Res =  0.2004E+02
 MRCHDU: Convergence failed at  81  side 2    Res =  0.2515E+02
 MRCHDU: Convergence failed at  82  side 2    Res =  0.3181E+02
 MRCHDU: Convergence failed at  83  side 2    Res =  0.4477E+02
 MRCHDU: Convergence failed at  84  side 2    Res =  0.8387E+02
 Side 1  free  transition at x/c =  0.8376   67
 Side 2  free  transition at x/c =  0.2823   39

  20   rms: 0.4169E+00   max: 0.1352E+01   C at   39  2
       a = -2.500      CL =  0.1271
      Cm = -0.0928     CD =  0.01407   =>   CDf =  0.00469    CDp =  0.00938

 Side 1  free  transition at x/c =  0.8377   67
 Side 2  free  transition at x/c =  0.2410   36

  21   rms: 0.1645E+00   max: -.1472E+01   T at   36  2   RLX: 0.340
       a = -2.500      CL =  0.1580
      Cm = -0.1011     CD =  0.01748   =>   CDf =  0.00779    CDp =  0.00969

 Side 1  free  transition at x/c =  0.8376   67
 Side 2  free  transition at x/c =  0.2597   37

  22   rms: 0.8914E-01   max: -.7272E+00   D at   41  2   RLX: 0.688
       a = -2.500      CL =  0.1885
      Cm = -0.1105     CD =  0.01531   =>   CDf =  0.00802    CDp =  0.00728

 MRCHDU: Convergence failed at  39  side 2    Res =  0.2462E+02
 MRCHDU: Convergence failed at  40  side 2    Res =  0.1237E+02
 MRCHDU: Convergence failed at  41  side 2    Res =  0.2037E+02
 MRCHDU: Convergence failed at  42  side 2    Res =  0.1310E+02
 MRCHDU: Convergence failed at  43  side 2    Res =  0.1248E+02
 MRCHDU: Convergence failed at  44  side 2    Res =  0.1530E+02
 MRCHDU: Convergence failed at  45  side 2    Res =  0.2090E+02
 MRCHDU: Convergence failed at  46  side 2    Res =  0.2920E+02
 MRCHDU: Convergence failed at  47  side 2    Res =  0.4395E+02
 MRCHDU: Convergence failed at  48  side 2    Res =  0.8790E+02
 MRCHDU: Convergence failed at  49  side 2    Res =  0.2588E+03
 MRCHDU: Convergence failed at  50  side 2    Res =  0.2638E+03
 MRCHDU: Convergence failed at  51  side 2    Res =  0.9307E+02
 MRCHDU: Convergence failed at  52  side 2    Res =  0.5806E+02
 MRCHDU: Convergence failed at  53  side 2    Res =  0.4498E+02
 MRCHDU: Convergence failed at  54  side 2    Res =  0.3856E+02
 MRCHDU: Convergence failed at  55  side 2    Res =  0.3493E+02
 MRCHDU: Convergence failed at  56  side 2    Res =  0.3220E+02
 MRCHDU: Convergence failed at  57  side 2    Res =  0.3006E+02
 MRCHDU: Convergence failed at  58  side 2    Res =  0.2828E+02
 MRCHDU: Convergence failed at  59  side 2    Res =  0.2656E+02
 MRCHDU: Convergence failed at  60  side 2    Res =  0.2503E+02
 MRCHDU: Convergence failed at  61  side 2    Res =  0.2396E+02
 MRCHDU: Convergence failed at  62  side 2    Res =  0.2310E+02
 MRCHDU: Convergence failed at  63  side 2    Res =  0.2229E+02
 MRCHDU: Convergence failed at  64  side 2    Res =  0.2150E+02
 MRCHDU: Convergence failed at  65  side 2    Res =  0.2071E+02
 MRCHDU: Convergence failed at  66  side 2    Res =  0.1996E+02
 MRCHDU: Convergence failed at  67  side 2    Res =  0.1912E+02
 MRCHDU: Convergence failed at  68  side 2    Res =  0.1834E+02
 MRCHDU: Convergence failed at  69  side 2    Res =  0.1765E+02
 MRCHDU: Convergence failed at  70  side 2    Res =  0.1719E+02
 MRCHDU: Convergence failed at  71  side 2    Res =  0.1696E+02
 MRCHDU: Convergence failed at  72  side 2    Res =  0.1690E+02
 MRCHDU: Convergence failed at  73  side 2    Res =  0.1693E+02
 MRCHDU: Convergence failed at  74  side 2    Res =  0.1702E+02
 MRCHDU: Convergence failed at  75  side 2    Res =  0.1694E+02
 MRCHDU: Convergence failed at  76  side 2    Res =  0.1682E+02
 MRCHDU: Convergence failed at  77  side 2    Res =  0.1707E+02
 MRCHDU: Convergence failed at  78  side 2    Res =  0.1708E+02
 MRCHDU: Convergence failed at  79  side 2    Res =  0.1717E+02
 MRCHDU: Convergence failed at  80  side 2    Res =  0.2004E+02
 MRCHDU: Convergence failed at  81  side 2    Res =  0.2515E+02
 MRCHDU: Convergence failed at  82  side 2    Res =  0.3181E+02
 MRCHDU: Convergence failed at  83  side 2    Res =  0.4477E+02
 MRCHDU: Convergence failed at  84  side 2    Res =  0.8387E+02
 Side 1  free  transition at x/c =  0.8376   67
 Side 2  free  transition at x/c =  0.2823   39

  23   rms: 0.4169E+00   max: 0.1352E+01   C at   39  2
       a = -2.500      CL =  0.1271
      Cm = -0.0928     CD =  0.01407   =>   CDf =  0.00469    CDp =  0.00938

 Side 1  free  transition at x/c =  0.8377   67
 Side 2  free  transition at x/c =  0.2410   36

  24   rms: 0.1645E+00   max: -.1472E+01   T at   36  2   RLX: 0.340
       a = -2.500      CL =  0.1580
      Cm = -0.1011     CD =  0.01748   =>   CDf =  0.00779    CDp =  0.00969

 Side 1  free  transition at x/c =  0.8376   67
 Side 2  free  transition at x/c =  0.2597   37

  25   rms: 0.8914E-01   max: -.7272E+00   D at   41  2   RLX: 0.688
       a = -2.500      CL =  0.1885
      Cm = -0.1105     CD =  0.01531   =>   CDf =  0.00802    CDp =  0.00728

 MRCHDU: Convergence failed at  39  side 2    Res =  0.2462E+02
 MRCHDU: Convergence failed at  40  side 2    Res =  0.1237E+02
 MRCHDU: Convergence failed at  41  side 2    Res =  0.2037E+02
 MRCHDU: Convergence failed at  42  side 2    Res =  0.1310E+02
 MRCHDU: Convergence failed at  43  side 2    Res =  0.1248E+02
 MRCHDU: Convergence failed at  44  side 2    Res =  0.1530E+02
 MRCHDU: Convergence failed at  45  side 2    Res =  0.2090E+02
 MRCHDU: Convergence failed at  46  side 2    Res =  0.2920E+02
 MRCHDU: Convergence failed at  47  side 2    Res =  0.4395E+02
 MRCHDU: Convergence failed at  48  side 2    Res =  0.8790E+02
 MRCHDU: Convergence failed at  49  side 2    Res =  0.2588E+03
 MRCHDU: Convergence failed at  50  side 2    Res =  0.2638E+03
 MRCHDU: Convergence failed at  51  side 2    Res =  0.9307E+02
 MRCHDU: Convergence failed at  52  side 2    Res =  0.5806E+02
 MRCHDU: Convergence failed at  53  side 2    Res =  0.4498E+02
 MRCHDU: Convergence failed at  54  side 2    Res =  0.3856E+02
 MRCHDU: Convergence failed at  55  side 2    Res =  0.3493E+02
 MRCHDU: Convergence failed at  56  side 2    Res =  0.3220E+02
 MRCHDU: Convergence failed at  57  side 2    Res =  0.3006E+02
 MRCHDU: Convergence failed at  58  side 2    Res =  0.2828E+02
 MRCHDU: Convergence failed at  59  side 2    Res =  0.2656E+02
 MRCHDU: Convergence failed at  60  side 2    Res =  0.2503E+02
 MRCHDU: Convergence failed at  61  side 2    Res =  0.2396E+02
 MRCHDU: Convergence failed at  62  side 2    Res =  0.2310E+02
 MRCHDU: Convergence failed at  63  side 2    Res =  0.2229E+02
 MRCHDU: Convergence failed at  64  side 2    Res =  0.2150E+02
 MRCHDU: Convergence failed at  65  side 2    Res =  0.2071E+02
 MRCHDU: Convergence failed at  66  side 2    Res =  0.1996E+02
 MRCHDU: Convergence failed at  67  side 2    Res =  0.1912E+02
 MRCHDU: Convergence failed at  68  side 2    Res =  0.1834E+02
 MRCHDU: Convergence failed at  69  side 2    Res =  0.1765E+02
 MRCHDU: Convergence failed at  70  side 2    Res =  0.1719E+02
 MRCHDU: Convergence failed at  71  side 2    Res =  0.1696E+02
 MRCHDU: Convergence failed at  72  side 2    Res =  0.1690E+02
 MRCHDU: Convergence failed at  73  side 2    Res =  0.1693E+02
 MRCHDU: Convergence failed at  74  side 2    Res =  0.1702E+02
 MRCHDU: Convergence failed at  75  side 2    Res =  0.1694E+02
 MRCHDU: Convergence failed at  76  side 2    Res =  0.1682E+02
 MRCHDU: Convergence failed at  77  side 2    Res =  0.1707E+02
 MRCHDU: Convergence failed at  78  side 2    Res =  0.1708E+02
 MRCHDU: Convergence failed at  79  side 2    Res =  0.1717E+02
 MRCHDU: Convergence failed at  80  side 2    Res =  0.2004E+02
 MRCHDU: Convergence failed at  81  side 2    Res =  0.2515E+02
 MRCHDU: Convergence failed at  82  side 2    Res =  0.3181E+02
 MRCHDU: Convergence failed at  83  side 2    Res =  0.4477E+02
 MRCHDU: Convergence failed at  84  side 2    Res =  0.8387E+02
 Side 1  free  transition at x/c =  0.8376   67
 Side 2  free  transition at x/c =  0.2823   39

  26   rms: 0.4169E+00   max: 0.1352E+01   C at   39  2
       a = -2.500      CL =  0.1271
      Cm = -0.0928     CD =  0.01407   =>   CDf =  0.00469    CDp =  0.00938

 Side 1  free  transition at x/c =  0.8377   67
 Side 2  free  transition at x/c =  0.2410   36

  27   rms: 0.1645E+00   max: -.1472E+01   T at   36  2   RLX: 0.340
       a = -2.500      CL =  0.1580
      Cm = -0.1011     CD =  0.01748   =>   CDf =  0.00779    CDp =  0.00969

 Side 1  free  transition at x/c =  0.8376   67
 Side 2  free  transition at x/c =  0.2597   37

  28   rms: 0.8914E-01   max: -.7272E+00   D at   41  2   RLX: 0.688
       a = -2.500      CL =  0.1885
      Cm = -0.1105     CD =  0.01531   =>   CDf =  0.00802    CDp =  0.00728

 MRCHDU: Convergence failed at  39  side 2    Res =  0.2462E+02
 MRCHDU: Convergence failed at  40  side 2    Res =  0.1237E+02
 MRCHDU: Convergence failed at  41  side 2    Res =  0.2037E+02
 MRCHDU: Convergence failed at  42  side 2    Res =  0.1310E+02
 MRCHDU: Convergence failed at  43  side 2    Res =  0.1248E+02
 MRCHDU: Convergence failed at  44  side 2    Res =  0.1530E+02
 MRCHDU: Convergence failed at  45  side 2    Res =  0.2090E+02
 MRCHDU: Convergence failed at  46  side 2    Res =  0.2920E+02
 MRCHDU: Convergence failed at  47  side 2    Res =  0.4395E+02
 MRCHDU: Convergence failed at  48  side 2    Res =  0.8790E+02
 MRCHDU: Convergence failed at  49  side 2    Res =  0.2588E+03
 MRCHDU: Convergence failed at  50  side 2    Res =  0.2638E+03
 MRCHDU: Convergence failed at  51  side 2    Res =  0.9307E+02
 MRCHDU: Convergence failed at  52  side 2    Res =  0.5806E+02
 MRCHDU: Convergence failed at  53  side 2    Res =  0.4498E+02
 MRCHDU: Convergence failed at  54  side 2    Res =  0.3856E+02
 MRCHDU: Convergence failed at  55  side 2    Res =  0.3493E+02
 MRCHDU: Convergence failed at  56  side 2    Res =  0.3220E+02
 MRCHDU: Convergence failed at  57  side 2    Res =  0.3006E+02
 MRCHDU: Convergence failed at  58  side 2    Res =  0.2828E+02
 MRCHDU: Convergence failed at  59  side 2    Res =  0.2656E+02
 MRCHDU: Convergence failed at  60  side 2    Res =  0.2503E+02
 MRCHDU: Convergence failed at  61  side 2    Res =  0.2396E+02
 MRCHDU: Convergence failed at  62  side 2    Res =  0.2310E+02
 MRCHDU: Convergence failed at  63  side 2    Res =  0.2229E+02
 MRCHDU: Convergence failed at  64  side 2    Res =  0.2150E+02
 MRCHDU: Convergence failed at  65  side 2    Res =  0.2071E+02
 MRCHDU: Convergence failed at  66  side 2    Res =  0.1996E+02
 MRCHDU: Convergence failed at  67  side 2    Res =  0.1912E+02
 MRCHDU: Convergence failed at  68  side 2    Res =  0.1834E+02
 MRCHDU: Convergence failed at  69  side 2    Res =  0.1765E+02
 MRCHDU: Convergence failed at  70  side 2    Res =  0.1719E+02
 MRCHDU: Convergence failed at  71  side 2    Res =  0.1696E+02
 MRCHDU: Convergence failed at  72  side 2    Res =  0.1690E+02
 MRCHDU: Convergence failed at  73  side 2    Res =  0.1693E+02
 MRCHDU: Convergence failed at  74  side 2    Res =  0.1702E+02
 MRCHDU: Convergence failed at  75  side 2    Res =  0.1694E+02
 MRCHDU: Convergence failed at  76  side 2    Res =  0.1682E+02
 MRCHDU: Convergence failed at  77  side 2    Res =  0.1707E+02
 MRCHDU: Convergence failed at  78  side 2    Res =  0.1708E+02
 MRCHDU: Convergence failed at  79  side 2    Res =  0.1717E+02
 MRCHDU: Convergence failed at  80  side 2    Res =  0.2004E+02
 MRCHDU: Convergence failed at  81  side 2    Res =  0.2515E+02
 MRCHDU: Convergence failed at  82  side 2    Res =  0.3181E+02
 MRCHDU: Convergence failed at  83  side 2    Res =  0.4477E+02
 MRCHDU: Convergence failed at  84  side 2    Res =  0.8387E+02
 Side 1  free  transition at x/c =  0.8376   67
 Side 2  free  transition at x/c =  0.2823   39

  29   rms: 0.4169E+00   max: 0.1352E+01   C at   39  2
       a = -2.500      CL =  0.1271
      Cm = -0.0928     CD =  0.01407   =>   CDf =  0.00469    CDp =  0.00938

 Side 1  free  transition at x/c =  0.8377   67
 Side 2  free  transition at x/c =  0.2410   36

  30   rms: 0.1645E+00   max: -.1472E+01   T at   36  2   RLX: 0.340
       a = -2.500      CL =  0.1580
      Cm = -0.1011     CD =  0.01748   =>   CDf =  0.00779    CDp =  0.00969

 Side 1  free  transition at x/c =  0.8376   67
 Side 2  free  transition at x/c =  0.2597   37

  31   rms: 0.8914E-01   max: -.7272E+00   D at   41  2   RLX: 0.688
       a = -2.500      CL =  0.1885
      Cm = -0.1105     CD =  0.01531   =>   CDf =  0.00802    CDp =  0.00728

 MRCHDU: Convergence failed at  39  side 2    Res =  0.2462E+02
 MRCHDU: Convergence failed at  40  side 2    Res =  0.1237E+02
 MRCHDU: Convergence failed at  41  side 2    Res =  0.2037E+02
 MRCHDU: Convergence failed at  42  side 2    Res =  0.1310E+02
 MRCHDU: Convergence failed at  43  side 2    Res =  0.1248E+02
 MRCHDU: Convergence failed at  44  side 2    Res =  0.1530E+02
 MRCHDU: Convergence failed at  45  side 2    Res =  0.2090E+02
 MRCHDU: Convergence failed at  46  side 2    Res =  0.2920E+02
 MRCHDU: Convergence failed at  47  side 2    Res =  0.4395E+02
 MRCHDU: Convergence failed at  48  side 2    Res =  0.8790E+02
 MRCHDU: Convergence failed at  49  side 2    Res =  0.2589E+03
 MRCHDU: Convergence failed at  50  side 2    Res =  0.2638E+03
 MRCHDU: Convergence failed at  51  side 2    Res =  0.9306E+02
 MRCHDU: Convergence failed at  52  side 2    Res =  0.5806E+02
 MRCHDU: Convergence failed at  53  side 2    Res =  0.4498E+02
 MRCHDU: Convergence failed at  54  side 2    Res =  0.3856E+02
 MRCHDU: Convergence failed at  55  side 2    Res =  0.3493E+02
 MRCHDU: Convergence failed at  56  side 2    Res =  0.3220E+02
 MRCHDU: Convergence failed at  57  side 2    Res =  0.3006E+02
 MRCHDU: Convergence failed at  58  side 2    Res =  0.2828E+02
 MRCHDU: Convergence failed at  59  side 2    Res =  0.2655E+02
 MRCHDU: Convergence failed at  60  side 2    Res =  0.2503E+02
 MRCHDU: Convergence failed at  61  side 2    Res =  0.2396E+02
 MRCHDU: Convergence failed at  62  side 2    Res =  0.2310E+02
 MRCHDU: Convergence failed at  63  side 2    Res =  0.2229E+02
 MRCHDU: Convergence failed at  64  side 2    Res =  0.2150E+02
 MRCHDU: Convergence failed at  65  side 2    Res =  0.2071E+02
 MRCHDU: Convergence failed at  66  side 2    Res =  0.1996E+02
 MRCHDU: Convergence failed at  67  side 2    Res =  0.1912E+02
 MRCHDU: Convergence failed at  68  side 2    Res =  0.1834E+02
 MRCHDU: Convergence failed at  69  side 2    Res =  0.1765E+02
 MRCHDU: Convergence failed at  70  side 2    Res =  0.1719E+02
 MRCHDU: Convergence failed at  71  side 2    Res =  0.1696E+02
 MRCHDU: Convergence failed at  72  side 2    Res =  0.1689E+02
 MRCHDU: Convergence failed at  73  side 2    Res =  0.1693E+02
 MRCHDU: Convergence failed at  74  side 2    Res =  0.1702E+02
 MRCHDU: Convergence failed at  75  side 2    Res =  0.1694E+02
 MRCHDU: Convergence failed at  76  side 2    Res =  0.1682E+02
 MRCHDU: Convergence failed at  77  side 2    Res =  0.1707E+02
 MRCHDU: Convergence failed at  78  side 2    Res =  0.1708E+02
 MRCHDU: Convergence failed at  79  side 2    Res =  0.1717E+02
 MRCHDU: Convergence failed at  80  side 2    Res =  0.2004E+02
 MRCHDU: Convergence failed at  81  side 2    Res =  0.2515E+02
 MRCHDU: Convergence failed at  82  side 2    Res =  0.3181E+02
 MRCHDU: Convergence failed at  83  side 2    Res =  0.4477E+02
 MRCHDU: Convergence failed at  84  side 2    Res =  0.8387E+02
 Side 1  free  transition at x/c =  0.8376   67
 Side 2  free  transition at x/c =  0.2823   39

  32   rms: 0.4169E+00   max: 0.1352E+01   C at   39  2
       a = -2.500      CL =  0.1271
      Cm = -0.0928     CD =  0.01407   =>   CDf =  0.00469    CDp =  0.00938

 Side 1  free  transition at x/c =  0.8377   67
 Side 2  free  transition at x/c =  0.2410   36

  33   rms: 0.1645E+00   max: -.1472E+01   T at   36  2   RLX: 0.340
       a = -2.500      CL =  0.1580
      Cm = -0.1011     CD =  0.01748   =>   CDf =  0.00779    CDp =  0.00969

 Side 1  free  transition at x/c =  0.8376   67
 Side 2  free  transition at x/c =  0.2597   37

  34   rms: 0.8914E-01   max: -.7272E+00   D at   41  2   RLX: 0.688
       a = -2.500      CL =  0.1885
      Cm = -0.1105     CD =  0.01531   =>   CDf =  0.00802    CDp =  0.00728

 MRCHDU: Convergence failed at  39  side 2    Res =  0.2462E+02
 MRCHDU: Convergence failed at  40  side 2    Res =  0.1237E+02
 MRCHDU: Convergence failed at  41  side 2    Res =  0.2037E+02
 MRCHDU: Convergence failed at  42  side 2    Res =  0.1310E+02
 MRCHDU: Convergence failed at  43  side 2    Res =  0.1248E+02
 MRCHDU: Convergence failed at  44  side 2    Res =  0.1530E+02
 MRCHDU: Convergence failed at  45  side 2    Res =  0.2090E+02
 MRCHDU: Convergence failed at  46  side 2    Res =  0.2920E+02
 MRCHDU: Convergence failed at  47  side 2    Res =  0.4395E+02
 MRCHDU: Convergence failed at  48  side 2    Res =  0.8790E+02
 MRCHDU: Convergence failed at  49  side 2    Res =  0.2588E+03
 MRCHDU: Convergence failed at  50  side 2    Res =  0.2638E+03
 MRCHDU: Convergence failed at  51  side 2    Res =  0.9307E+02
 MRCHDU: Convergence failed at  52  side 2    Res =  0.5806E+02
 MRCHDU: Convergence failed at  53  side 2    Res =  0.4498E+02
 MRCHDU: Convergence failed at  54  side 2    Res =  0.3856E+02
 MRCHDU: Convergence failed at  55  side 2    Res =  0.3493E+02
 MRCHDU: Convergence failed at  56  side 2    Res =  0.3220E+02
 MRCHDU: Convergence failed at  57  side 2    Res =  0.3006E+02
 MRCHDU: Convergence failed at  58  side 2    Res =  0.2828E+02
 MRCHDU: Convergence failed at  59  side 2    Res =  0.2656E+02
 MRCHDU: Convergence failed at  60  side 2    Res =  0.2503E+02
 MRCHDU: Convergence failed at  61  side 2    Res =  0.2396E+02
 MRCHDU: Convergence failed at  62  side 2    Res =  0.2310E+02
 MRCHDU: Convergence failed at  63  side 2    Res =  0.2229E+02
 MRCHDU: Convergence failed at  64  side 2    Res =  0.2150E+02
 MRCHDU: Convergence failed at  65  side 2    Res =  0.2071E+02
 MRCHDU: Convergence failed at  66  side 2    Res =  0.1996E+02
 MRCHDU: Convergence failed at  67  side 2    Res =  0.1912E+02
 MRCHDU: Convergence failed at  68  side 2    Res =  0.1834E+02
 MRCHDU: Convergence failed at  69  side 2    Res =  0.1765E+02
 MRCHDU: Convergence failed at  70  side 2    Res =  0.1719E+02
 MRCHDU: Convergence failed at  71  side 2    Res =  0.1696E+02
 MRCHDU: Convergence failed at  72  side 2    Res =  0.1690E+02
 MRCHDU: Convergence failed at  73  side 2    Res =  0.1693E+02
 MRCHDU: Convergence failed at  74  side 2    Res =  0.1702E+02
 MRCHDU: Convergence failed at  75  side 2    Res =  0.1694E+02
 MRCHDU: Convergence failed at  76  side 2    Res =  0.1682E+02
 MRCHDU: Convergence failed at  77  side 2    Res =  0.1707E+02
 MRCHDU: Convergence failed at  78  side 2    Res =  0.1708E+02
 MRCHDU: Convergence failed at  79  side 2    Res =  0.1717E+02
 MRCHDU: Convergence failed at  80  side 2    Res =  0.2004E+02
 MRCHDU: Convergence failed at  81  side 2    Res =  0.2515E+02
 MRCHDU: Convergence failed at  82  side 2    Res =  0.3181E+02
 MRCHDU: Convergence failed at  83  side 2    Res =  0.4477E+02
 MRCHDU: Convergence failed at  84  side 2    Res =  0.8387E+02
 Side 1  free  transition at x/c =  0.8376   67
 Side 2  free  transition at x/c =  0.2823   39

  35   rms: 0.4169E+00   max: 0.1352E+01   C at   39  2
       a = -2.500      CL =  0.1271
      Cm = -0.0928     CD =  0.01407   =>   CDf =  0.00469    CDp =  0.00938

 Side 1  free  transition at x/c =  0.8377   67
 Side 2  free  transition at x/c =  0.2410   36

  36   rms: 0.1645E+00   max: -.1472E+01   T at   36  2   RLX: 0.340
       a = -2.500      CL =  0.1580
      Cm = -0.1011     CD =  0.01748   =>   CDf =  0.00779    CDp =  0.00969

 Side 1  free  transition at x/c =  0.8376   67
 Side 2  free  transition at x/c =  0.2597   37

  37   rms: 0.8914E-01   max: -.7272E+00   D at   41  2   RLX: 0.688
       a = -2.500      CL =  0.1885
      Cm = -0.1105     CD =  0.01531   =>   CDf =  0.00802    CDp =  0.00728

 MRCHDU: Convergence failed at  39  side 2    Res =  0.2462E+02
 MRCHDU: Convergence failed at  40  side 2    Res =  0.1237E+02
 MRCHDU: Convergence failed at  41  side 2    Res =  0.2037E+02
 MRCHDU: Convergence failed at  42  side 2    Res =  0.1310E+02
 MRCHDU: Convergence failed at  43  side 2    Res =  0.1248E+02
 MRCHDU: Convergence failed at  44  side 2    Res =  0.1530E+02
 MRCHDU: Convergence failed at  45  side 2    Res =  0.2090E+02
 MRCHDU: Convergence failed at  46  side 2    Res =  0.2920E+02
 MRCHDU: Convergence failed at  47  side 2    Res =  0.4395E+02
 MRCHDU: Convergence failed at  48  side 2    Res =  0.8790E+02
 MRCHDU: Convergence failed at  49  side 2    Res =  0.2589E+03
 MRCHDU: Convergence failed at  50  side 2    Res =  0.2639E+03
 MRCHDU: Convergence failed at  51  side 2    Res =  0.9307E+02
 MRCHDU: Convergence failed at  52  side 2    Res =  0.5806E+02
 MRCHDU: Convergence failed at  53  side 2    Res =  0.4498E+02
 MRCHDU: Convergence failed at  54  side 2    Res =  0.3856E+02
 MRCHDU: Convergence failed at  55  side 2    Res =  0.3493E+02
 MRCHDU: Convergence failed at  56  side 2    Res =  0.3220E+02
 MRCHDU: Convergence failed at  57  side 2    Res =  0.3006E+02
 MRCHDU: Convergence failed at  58  side 2    Res =  0.2828E+02
 MRCHDU: Convergence failed at  59  side 2    Res =  0.2656E+02
 MRCHDU: Convergence failed at  60  side 2    Res =  0.2503E+02
 MRCHDU: Convergence failed at  61  side 2    Res =  0.2396E+02
 MRCHDU: Convergence failed at  62  side 2    Res =  0.2310E+02
 MRCHDU: Convergence failed at  63  side 2    Res =  0.2229E+02
 MRCHDU: Convergence failed at  64  side 2    Res =  0.2150E+02
 MRCHDU: Convergence failed at  65  side 2    Res =  0.2071E+02
 MRCHDU: Convergence failed at  66  side 2    Res =  0.1996E+02
 MRCHDU: Convergence failed at  67  side 2    Res =  0.1912E+02
 MRCHDU: Convergence failed at  68  side 2    Res =  0.1834E+02
 MRCHDU: Convergence failed at  69  side 2    Res =  0.1765E+02
 MRCHDU: Convergence failed at  70  side 2    Res =  0.1719E+02
 MRCHDU: Convergence failed at  71  side 2    Res =  0.1696E+02
 MRCHDU: Convergence failed at  72  side 2    Res =  0.1689E+02
 MRCHDU: Convergence failed at  73  side 2    Res =  0.1693E+02
 MRCHDU: Convergence failed at  74  side 2    Res =  0.1702E+02
 MRCHDU: Convergence failed at  75  side 2    Res =  0.1694E+02
 MRCHDU: Convergence failed at  76  side 2    Res =  0.1682E+02
 MRCHDU: Convergence failed at  77  side 2    Res =  0.1707E+02
 MRCHDU: Convergence failed at  78  side 2    Res =  0.1708E+02
 MRCHDU: Convergence failed at  79  side 2    Res =  0.1717E+02
 MRCHDU: Convergence failed at  80  side 2    Res =  0.2004E+02
 MRCHDU: Convergence failed at  81  side 2    Res =  0.2515E+02
 MRCHDU: Convergence failed at  82  side 2    Res =  0.3181E+02
 MRCHDU: Convergence failed at  83  side 2    Res =  0.4477E+02
 MRCHDU: Convergence failed at  84  side 2    Res =  0.8387E+02
 Side 1  free  transition at x/c =  0.8376   67
 Side 2  free  transition at x/c =  0.2823   39

  38   rms: 0.4169E+00   max: 0.1352E+01   C at   39  2
       a = -2.500      CL =  0.1271
      Cm = -0.0928     CD =  0.01407   =>   CDf =  0.00469    CDp =  0.00938

 Side 1  free  transition at x/c =  0.8377   67
 Side 2  free  transition at x/c =  0.2410   36

  39   rms: 0.1645E+00   max: -.1472E+01   T at   36  2   RLX: 0.340
       a = -2.500      CL =  0.1580
      Cm = -0.1011     CD =  0.01748   =>   CDf =  0.00779    CDp =  0.00969

 Side 1  free  transition at x/c =  0.8376   67
 Side 2  free  transition at x/c =  0.2597   37

  40   rms: 0.8914E-01   max: -.7272E+00   D at   41  2   RLX: 0.688
       a = -2.500      CL =  0.1885
      Cm = -0.1105     CD =  0.01531   =>   CDf =  0.00802    CDp =  0.00728

 MRCHDU: Convergence failed at  39  side 2    Res =  0.2462E+02
 MRCHDU: Convergence failed at  40  side 2    Res =  0.1237E+02
 MRCHDU: Convergence failed at  41  side 2    Res =  0.2036E+02
 MRCHDU: Convergence failed at  42  side 2    Res =  0.1310E+02
 MRCHDU: Convergence failed at  43  side 2    Res =  0.1248E+02
 MRCHDU: Convergence failed at  44  side 2    Res =  0.1530E+02
 MRCHDU: Convergence failed at  45  side 2    Res =  0.2090E+02
 MRCHDU: Convergence failed at  46  side 2    Res =  0.2920E+02
 MRCHDU: Convergence failed at  47  side 2    Res =  0.4395E+02
 MRCHDU: Convergence failed at  48  side 2    Res =  0.8790E+02
 MRCHDU: Convergence failed at  49  side 2    Res =  0.2588E+03
 MRCHDU: Convergence failed at  50  side 2    Res =  0.2638E+03
 MRCHDU: Convergence failed at  51  side 2    Res =  0.9307E+02
 MRCHDU: Convergence failed at  52  side 2    Res =  0.5806E+02
 MRCHDU: Convergence failed at  53  side 2    Res =  0.4498E+02
 MRCHDU: Convergence failed at  54  side 2    Res =  0.3856E+02
 MRCHDU: Convergence failed at  55  side 2    Res =  0.3493E+02
 MRCHDU: Convergence failed at  56  side 2    Res =  0.3220E+02
 MRCHDU: Convergence failed at  57  side 2    Res =  0.3006E+02
 MRCHDU: Convergence failed at  58  side 2    Res =  0.2828E+02
 MRCHDU: Convergence failed at  59  side 2    Res =  0.2656E+02
 MRCHDU: Convergence failed at  60  side 2    Res =  0.2503E+02
 MRCHDU: Convergence failed at  61  side 2    Res =  0.2396E+02
 MRCHDU: Convergence failed at  62  side 2    Res =  0.2310E+02
 MRCHDU: Convergence failed at  63  side 2    Res =  0.2229E+02
 MRCHDU: Convergence failed at  64  side 2    Res =  0.2150E+02
 MRCHDU: Convergence failed at  65  side 2    Res =  0.2071E+02
 MRCHDU: Convergence failed at  66  side 2    Res =  0.1996E+02
 MRCHDU: Convergence failed at  67  side 2    Res =  0.1912E+02
 MRCHDU: Convergence failed at  68  side 2    Res =  0.1834E+02
 MRCHDU: Convergence failed at  69  side 2    Res =  0.1765E+02
 MRCHDU: Convergence failed at  70  side 2    Res =  0.1719E+02
 MRCHDU: Convergence failed at  71  side 2    Res =  0.1696E+02
 MRCHDU: Convergence failed at  72  side 2    Res =  0.1690E+02
 MRCHDU: Convergence failed at  73  side 2    Res =  0.1693E+02
 MRCHDU: Convergence failed at  74  side 2    Res =  0.1702E+02
 MRCHDU: Convergence failed at  75  side 2    Res =  0.1694E+02
 MRCHDU: Convergence failed at  76  side 2    Res =  0.1682E+02
 MRCHDU: Convergence failed at  77  side 2    Res =  0.1707E+02
 MRCHDU: Convergence failed at  78  side 2    Res =  0.1708E+02
 MRCHDU: Convergence failed at  79  side 2    Res =  0.1717E+02
 MRCHDU: Convergence failed at  80  side 2    Res =  0.2004E+02
 MRCHDU: Convergence failed at  81  side 2    Res =  0.2515E+02
 MRCHDU: Convergence failed at  82  side 2    Res =  0.3181E+02
 MRCHDU: Convergence failed at  83  side 2    Res =  0.4477E+02
 MRCHDU: Convergence failed at  84  side 2    Res =  0.8387E+02
 Side 1  free  transition at x/c =  0.8376   67
 Side 2  free  transition at x/c =  0.2823   39

  41   rms: 0.4169E+00   max: 0.1352E+01   C at   39  2
       a = -2.500      CL =  0.1271
      Cm = -0.0928     CD =  0.01407   =>   CDf =  0.00469    CDp =  0.00938

 Side 1  free  transition at x/c =  0.8377   67
 Side 2  free  transition at x/c =  0.2410   36

  42   rms: 0.1645E+00   max: -.1472E+01   T at   36  2   RLX: 0.340
       a = -2.500      CL =  0.1580
      Cm = -0.1011     CD =  0.01748   =>   CDf =  0.00779    CDp =  0.00969

 Side 1  free  transition at x/c =  0.8376   67
 Side 2  free  transition at x/c =  0.2597   37

  43   rms: 0.8914E-01   max: -.7272E+00   D at   41  2   RLX: 0.688
       a = -2.500      CL =  0.1885
      Cm = -0.1105     CD =  0.01531   =>   CDf =  0.00802    CDp =  0.00728

 MRCHDU: Convergence failed at  39  side 2    Res =  0.2462E+02
 MRCHDU: Convergence failed at  40  side 2    Res =  0.1237E+02
 MRCHDU: Convergence failed at  41  side 2    Res =  0.2037E+02
 MRCHDU: Convergence failed at  42  side 2    Res =  0.1310E+02
 MRCHDU: Convergence failed at  43  side 2    Res =  0.1248E+02
 MRCHDU: Convergence failed at  44  side 2    Res =  0.1530E+02
 MRCHDU: Convergence failed at  45  side 2    Res =  0.2090E+02
 MRCHDU: Convergence failed at  46  side 2    Res =  0.2920E+02
 MRCHDU: Convergence failed at  47  side 2    Res =  0.4395E+02
 MRCHDU: Convergence failed at  48  side 2    Res =  0.8790E+02
 MRCHDU: Convergence failed at  49  side 2    Res =  0.2588E+03
 MRCHDU: Convergence failed at  50  side 2    Res =  0.2638E+03
 MRCHDU: Convergence failed at  51  side 2    Res =  0.9307E+02
 MRCHDU: Convergence failed at  52  side 2    Res =  0.5806E+02
 MRCHDU: Convergence failed at  53  side 2    Res =  0.4498E+02
 MRCHDU: Convergence failed at  54  side 2    Res =  0.3856E+02
 MRCHDU: Convergence failed at  55  side 2    Res =  0.3493E+02
 MRCHDU: Convergence failed at  56  side 2    Res =  0.3220E+02
 MRCHDU: Convergence failed at  57  side 2    Res =  0.3006E+02
 MRCHDU: Convergence failed at  58  side 2    Res =  0.2828E+02
 MRCHDU: Convergence failed at  59  side 2    Res =  0.2656E+02
 MRCHDU: Convergence failed at  60  side 2    Res =  0.2503E+02
 MRCHDU: Convergence failed at  61  side 2    Res =  0.2396E+02
 MRCHDU: Convergence failed at  62  side 2    Res =  0.2310E+02
 MRCHDU: Convergence failed at  63  side 2    Res =  0.2229E+02
 MRCHDU: Convergence failed at  64  side 2    Res =  0.2150E+02
 MRCHDU: Convergence failed at  65  side 2    Res =  0.2071E+02
 MRCHDU: Convergence failed at  66  side 2    Res =  0.1996E+02
 MRCHDU: Convergence failed at  67  side 2    Res =  0.1912E+02
 MRCHDU: Convergence failed at  68  side 2    Res =  0.1834E+02
 MRCHDU: Convergence failed at  69  side 2    Res =  0.1765E+02
 MRCHDU: Convergence failed at  70  side 2    Res =  0.1719E+02
 MRCHDU: Convergence failed at  71  side 2    Res =  0.1696E+02
 MRCHDU: Convergence failed at  72  side 2    Res =  0.1690E+02
 MRCHDU: Convergence failed at  73  side 2    Res =  0.1693E+02
 MRCHDU: Convergence failed at  74  side 2    Res =  0.1702E+02
 MRCHDU: Convergence failed at  75  side 2    Res =  0.1694E+02
 MRCHDU: Convergence failed at  76  side 2    Res =  0.1682E+02
 MRCHDU: Convergence failed at  77  side 2    Res =  0.1707E+02
 MRCHDU: Convergence failed at  78  side 2    Res =  0.1708E+02
 MRCHDU: Convergence failed at  79  side 2    Res =  0.1717E+02
 MRCHDU: Convergence failed at  80  side 2    Res =  0.2004E+02
 MRCHDU: Convergence failed at  81  side 2    Res =  0.2515E+02
 MRCHDU: Convergence failed at  82  side 2    Res =  0.3181E+02
 MRCHDU: Convergence failed at  83  side 2    Res =  0.4477E+02
 MRCHDU: Convergence failed at  84  side 2    Res =  0.8387E+02
 Side 1  free  transition at x/c =  0.8376   67
 Side 2  free  transition at x/c =  0.2823   39

  44   rms: 0.4169E+00   max: 0.1352E+01   C at   39  2
       a = -2.500      CL =  0.1271
      Cm = -0.0928     CD =  0.01407   =>   CDf =  0.00469    CDp =  0.00938

 Side 1  free  transition at x/c =  0.8377   67
 Side 2  free  transition at x/c =  0.2410   36

  45   rms: 0.1645E+00   max: -.1472E+01   T at   36  2   RLX: 0.340
       a = -2.500      CL =  0.1580
      Cm = -0.1011     CD =  0.01748   =>   CDf =  0.00779    CDp =  0.00969

 Side 1  free  transition at x/c =  0.8376   67
 Side 2  free  transition at x/c =  0.2597   37

  46   rms: 0.8914E-01   max: -.7272E+00   D at   41  2   RLX: 0.688
       a = -2.500      CL =  0.1885
      Cm = -0.1105     CD =  0.01531   =>   CDf =  0.00802    CDp =  0.00728

 MRCHDU: Convergence failed at  39  side 2    Res =  0.2462E+02
 MRCHDU: Convergence failed at  40  side 2    Res =  0.1237E+02
 MRCHDU: Convergence failed at  41  side 2    Res =  0.2037E+02
 MRCHDU: Convergence failed at  42  side 2    Res =  0.1310E+02
 MRCHDU: Convergence failed at  43  side 2    Res =  0.1248E+02
 MRCHDU: Convergence failed at  44  side 2    Res =  0.1530E+02
 MRCHDU: Convergence failed at  45  side 2    Res =  0.2090E+02
 MRCHDU: Convergence failed at  46  side 2    Res =  0.2920E+02
 MRCHDU: Convergence failed at  47  side 2    Res =  0.4396E+02
 MRCHDU: Convergence failed at  48  side 2    Res =  0.8791E+02
 MRCHDU: Convergence failed at  49  side 2    Res =  0.2589E+03
 MRCHDU: Convergence failed at  50  side 2    Res =  0.2638E+03
 MRCHDU: Convergence failed at  51  side 2    Res =  0.9307E+02
 MRCHDU: Convergence failed at  52  side 2    Res =  0.5806E+02
 MRCHDU: Convergence failed at  53  side 2    Res =  0.4498E+02
 MRCHDU: Convergence failed at  54  side 2    Res =  0.3856E+02
 MRCHDU: Convergence failed at  55  side 2    Res =  0.3493E+02
 MRCHDU: Convergence failed at  56  side 2    Res =  0.3220E+02
 MRCHDU: Convergence failed at  57  side 2    Res =  0.3006E+02
 MRCHDU: Convergence failed at  58  side 2    Res =  0.2828E+02
 MRCHDU: Convergence failed at  59  side 2    Res =  0.2656E+02
 MRCHDU: Convergence failed at  60  side 2    Res =  0.2503E+02
 MRCHDU: Convergence failed at  61  side 2    Res =  0.2396E+02
 MRCHDU: Convergence failed at  62  side 2    Res =  0.2310E+02
 MRCHDU: Convergence failed at  63  side 2    Res =  0.2229E+02
 MRCHDU: Convergence failed at  64  side 2    Res =  0.2150E+02
 MRCHDU: Convergence failed at  65  side 2    Res =  0.2071E+02
 MRCHDU: Convergence failed at  66  side 2    Res =  0.1996E+02
 MRCHDU: Convergence failed at  67  side 2    Res =  0.1912E+02
 MRCHDU: Convergence failed at  68  side 2    Res =  0.1834E+02
 MRCHDU: Convergence failed at  69  side 2    Res =  0.1765E+02
 MRCHDU: Convergence failed at  70  side 2    Res =  0.1719E+02
 MRCHDU: Convergence failed at  71  side 2    Res =  0.1696E+02
 MRCHDU: Convergence failed at  72  side 2    Res =  0.1690E+02
 MRCHDU: Convergence failed at  73  side 2    Res =  0.1693E+02
 MRCHDU: Convergence failed at  74  side 2    Res =  0.1702E+02
 MRCHDU: Convergence failed at  75  side 2    Res =  0.1694E+02
 MRCHDU: Convergence failed at  76  side 2    Res =  0.1682E+02
 MRCHDU: Convergence failed at  77  side 2    Res =  0.1707E+02
 MRCHDU: Convergence failed at  78  side 2    Res =  0.1708E+02
 MRCHDU: Convergence failed at  79  side 2    Res =  0.1717E+02
 MRCHDU: Convergence failed at  80  side 2    Res =  0.2004E+02
 MRCHDU: Convergence failed at  81  side 2    Res =  0.2515E+02
 MRCHDU: Convergence failed at  82  side 2    Res =  0.3181E+02
 MRCHDU: Convergence failed at  83  side 2    Res =  0.4477E+02
 MRCHDU: Convergence failed at  84  side 2    Res =  0.8387E+02
 Side 1  free  transition at x/c =  0.8376   67
 Side 2  free  transition at x/c =  0.2823   39

  47   rms: 0.4169E+00   max: 0.1352E+01   C at   39  2
       a = -2.500      CL =  0.1271
      Cm = -0.0928     CD =  0.01407   =>   CDf =  0.00469    CDp =  0.00938

 Side 1  free  transition at x/c =  0.8377   67
 Side 2  free  transition at x/c =  0.2410   36

  48   rms: 0.1645E+00   max: -.1472E+01   T at   36  2   RLX: 0.340
       a = -2.500      CL =  0.1580
      Cm = -0.1011     CD =  0.01748   =>   CDf =  0.00779    CDp =  0.00969

 Side 1  free  transition at x/c =  0.8376   67
 Side 2  free  transition at x/c =  0.2597   37

  49   rms: 0.8914E-01   max: -.7272E+00   D at   41  2   RLX: 0.688
       a = -2.500      CL =  0.1885
      Cm = -0.1105     CD =  0.01531   =>   CDf =  0.00802    CDp =  0.00728

 MRCHDU: Convergence failed at  39  side 2    Res =  0.2462E+02
 MRCHDU: Convergence failed at  40  side 2    Res =  0.1237E+02
 MRCHDU: Convergence failed at  41  side 2    Res =  0.2037E+02
 MRCHDU: Convergence failed at  42  side 2    Res =  0.1310E+02
 MRCHDU: Convergence failed at  43  side 2    Res =  0.1248E+02
 MRCHDU: Convergence failed at  44  side 2    Res =  0.1530E+02
 MRCHDU: Convergence failed at  45  side 2    Res =  0.2090E+02
 MRCHDU: Convergence failed at  46  side 2    Res =  0.2920E+02
 MRCHDU: Convergence failed at  47  side 2    Res =  0.4395E+02
 MRCHDU: Convergence failed at  48  side 2    Res =  0.8790E+02
 MRCHDU: Convergence failed at  49  side 2    Res =  0.2588E+03
 MRCHDU: Convergence failed at  50  side 2    Res =  0.2638E+03
 MRCHDU: Convergence failed at  51  side 2    Res =  0.9307E+02
 MRCHDU: Convergence failed at  52  side 2    Res =  0.5806E+02
 MRCHDU: Convergence failed at  53  side 2    Res =  0.4498E+02
 MRCHDU: Convergence failed at  54  side 2    Res =  0.3856E+02
 MRCHDU: Convergence failed at  55  side 2    Res =  0.3493E+02
 MRCHDU: Convergence failed at  56  side 2    Res =  0.3220E+02
 MRCHDU: Convergence failed at  57  side 2    Res =  0.3006E+02
 MRCHDU: Convergence failed at  58  side 2    Res =  0.2828E+02
[...]

 Point added to stored polar  1
 Point written to save file  hor12_Re150k.base.pol                           
 Dump file unspecified or not available
 Calculating wake trajectory ...
 Calculating source influence matrix ...

 Solving BL system ...

 Side 1  free  transition at x/c =  0.0746   35
 Side 2 forced transition at x/c =  0.9995   67

   1   rms: 0.3246E-01   max: 0.1692E+00   T at   35  1
       a = 12.750      CL =  1.5186
      Cm = -0.0682     CD =  0.05015   =>   CDf =  0.00716    CDp =  0.04299

 Side 1  free  transition at x/c =  0.0719   36
 Side 2 forced transition at x/c =  0.9995   66

   2   rms: 0.5259E-02   max: -.3770E-01   D at   36  1
       a = 12.750      CL =  1.5159
      Cm = -0.0680     CD =  0.05003   =>   CDf =  0.00764    CDp =  0.04240

 Side 1  free  transition at x/c =  0.0721   36
 Side 2 forced transition at x/c =  0.9995   66

   3   rms: 0.1368E-02   max: -.1003E-01   D at    4  1
       a = 12.750      CL =  1.5166
      Cm = -0.0679     CD =  0.05000   =>   CDf =  0.00762    CDp =  0.04237

 Side 1  free  transition at x/c =  0.0720   36
 Side 2 forced transition at x/c =  0.9995   66

   4   rms: 0.3203E-04   max: -.2510E-03   D at   79  2
       a = 12.750      CL =  1.5166
      Cm = -0.0680     CD =  0.05001   =>   CDf =  0.00763    CDp =  0.04238
 plradd ia,ip,cpol           40           0  1.05694802E-04

 Point added to stored polar  1
 Point written to save file  hor12_Re150k.base.pol                           
 Dump file unspecified or not available
 Calculating wake trajectory ...
 Calculating source influence matrix ...

 Solving BL system ...

 Side 1  free  transition at x/c =  0.0720   36
 Side 2 forced transition at x/c =  0.9995   66

   1   rms: 0.3543E-01   max: 0.2076E+00   T at   36  1   RLX: 0.990
       a = 13.000      CL =  1.5268
      Cm = -0.0664     CD =  0.05209   =>   CDf =  0.00763    CDp =  0.04445

 Side 1  free  transition at x/c =  0.0697   35
 Side 2 forced transition at x/c =  0.9995   66

   2   rms: 0.6097E-02   max: -.5153E-01   D at   35  1
       a = 13.000      CL =  1.5248
      Cm = -0.0664     CD =  0.05212   =>   CDf =  0.00766    CDp =  0.04446

 Side 1  free  transition at x/c =  0.0695   35
 Side 2 forced transition at x/c =  0.9995   66

   3   rms: 0.5669E-03   max: 0.2359E-02   T at   35  1
       a = 13.000      CL =  1.5253
      Cm = -0.0664     CD =  0.05207   =>   CDf =  0.00763    CDp =  0.04445

 Side 1  free  transition at x/c =  0.0695   35
 Side 2 forced transition at x/c =  0.9995   66

   4   rms: 0.3974E-04   max: 0.1337E-03   D at   74  1
       a = 13.000      CL =  1.5253
      Cm = -0.0664     CD =  0.05208   =>   CDf =  0.00763    CDp =  0.04445
 plradd ia,ip,cpol           41           0  1.05694802E-04

 Point added to stored polar  1
 Point written to save file  hor12_Re150k.base.pol                           
 Dump file unspecified or not available
 Calculating wake trajectory ...
 Calculating source influence matrix ...

 Solving BL system ...

 Side 1  free  transition at x/c =  0.0695   35
 Side 2 forced transition at x/c =  0.9995   66

   1   rms: 0.3129E-01   max: 0.1523E+00   T at   35  1   RLX: 0.945
       a = 13.250      CL =  1.5313
      Cm = -0.0657     CD =  0.05452   =>   CDf =  0.00763    CDp =  0.04689

 Side 1  free  transition at x/c =  0.0675   35
 Side 2 forced transition at x/c =  0.9995   66

   2   rms: 0.2477E-02   max: 0.1554E-01   D at   79  2
       a = 13.250      CL =  1.5291
      Cm = -0.0655     CD =  0.05453   =>   CDf =  0.00744    CDp =  0.04710

 Side 1  free  transition at x/c =  0.0674   35
 Side 2 forced transition at x/c =  0.9995   66

   3   rms: 0.9408E-04   max: -.5767E-03   D at   78  1
       a = 13.250      CL =  1.5291
      Cm = -0.0655     CD =  0.05450   =>   CDf =  0.00743    CDp =  0.04708
 plradd ia,ip,cpol           42           0  1.05694802E-04

 Point added to stored polar  1
 Point written to save file  hor12_Re150k.base.pol                           
 Dump file unspecified or not available
 Calculating wake trajectory ...
 Calculating source influence matrix ...

 Solving BL system ...

 Side 1  free  transition at x/c =  0.0674   35
 Side 2 forced transition at x/c =  0.9995   66

   1   rms: 0.3066E-01   max: 0.1406E+00   T at   35  1   RLX: 0.904
       a = 13.500      CL =  1.5356
      Cm = -0.0648     CD =  0.05682   =>   CDf =  0.00743    CDp =  0.04939

 Side 1  free  transition at x/c =  0.0654   35
 Side 2 forced transition at x/c =  0.9995   66

   2   rms: 0.3284E-02   max: 0.1768E-01   D at   80  2
       a = 13.500      CL =  1.5337
      Cm = -0.0647     CD =  0.05696   =>   CDf =  0.00731    CDp =  0.04966

 Side 1  free  transition at x/c =  0.0653   35
 Side 2 forced transition at x/c =  0.9995   66

   3   rms: 0.8242E-04   max: 0.9875E-03   D at   80  2
       a = 13.500      CL =  1.5336
      Cm = -0.0646     CD =  0.05692   =>   CDf =  0.00729    CDp =  0.04962
 plradd ia,ip,cpol           43           0  1.05694802E-04

 Point added to stored polar  1
 Point written to save file  hor12_Re150k.base.pol                           
 Dump file unspecified or not available
 Calculating wake trajectory ...
 Calculating source influence matrix ...

 Solving BL system ...

 Side 1  free  transition at x/c =  0.0653   35
 Side 2 forced transition at x/c =  0.9995   66

   1   rms: 0.3022E-01   max: 0.1410E+00   T at   35  1   RLX: 0.867
       a = 13.750      CL =  1.5402
      Cm = -0.0640     CD =  0.05910   =>   CDf =  0.00730    CDp =  0.05181

 Side 1  free  transition at x/c =  0.0634   35
 Side 2 forced transition at x/c =  0.9995   66

   2   rms: 0.3561E-02   max: 0.2007E-01   D at   80  2
       a = 13.750      CL =  1.5390
      Cm = -0.0638     CD =  0.05929   =>   CDf =  0.00724    CDp =  0.05206

 Side 1  free  transition at x/c =  0.0633   35
 Side 2 forced transition at x/c =  0.9995   66

   3   rms: 0.1281E-03   max: 0.1712E-02   D at   80  2
       a = 13.750      CL =  1.5390
      Cm = -0.0637     CD =  0.05925   =>   CDf =  0.00722    CDp =  0.05202

 Side 1  free  transition at x/c =  0.0633   35
 Side 2 forced transition at x/c =  0.9995   66

   4   rms: 0.1590E-04   max: 0.1296E-03   C at   66  2
       a = 13.750      CL =  1.5390
      Cm = -0.0637     CD =  0.05925   =>   CDf =  0.00722    CDp =  0.05202
 plradd ia,ip,cpol           44           0  1.05694802E-04

 Point added to stored polar  1
 Point written to save file  hor12_Re150k.base.pol                           
 Dump file unspecified or not available
 Calculating wake trajectory ...
 Calculating source influence matrix ...

 Solving BL system ...

 Side 1  free  transition at x/c =  0.0633   35
 Side 2 forced transition at x/c =  0.9995   66

   1   rms: 0.3044E-01   max: 0.1635E+00   T at   35  1   RLX: 0.836
       a = 14.000      CL =  1.5465
      Cm = -0.0630     CD =  0.06121   =>   CDf =  0.00723    CDp =  0.05398

 Side 1  free  transition at x/c =  0.0615   35
 Side 2 forced transition at x/c =  0.9995   66

   2   rms: 0.4533E-02   max: -.4036E-01   D at   35  1
       a = 14.000      CL =  1.5467
      Cm = -0.0627     CD =  0.06137   =>   CDf =  0.00723    CDp =  0.05414

 Side 1  free  transition at x/c =  0.0612   35
 Side 2 forced transition at x/c =  0.9995   66

   3   rms: 0.8157E-03   max: 0.3960E-02   T at   35  1
       a = 14.000      CL =  1.5472
      Cm = -0.0626     CD =  0.06134   =>   CDf =  0.00724    CDp =  0.05410

 Side 1  free  transition at x/c =  0.0612   35
 Side 2 forced transition at x/c =  0.9995   66

   4   rms: 0.1944E-04   max: -.2133E-03   D at   80  2
       a = 14.000      CL =  1.5472
      Cm = -0.0626     CD =  0.06136   =>   CDf =  0.00725    CDp =  0.05411
 plradd ia,ip,cpol           45           0  1.05694802E-04

 Point added to stored polar  1
 Point written to save file  hor12_Re150k.base.pol                           
 Dump file unspecified or not available
 Calculating wake trajectory ...
 Calculating source influence matrix ...

 Solving BL system ...

 Side 1  free  transition at x/c =  0.0612   35
 Side 2 forced transition at x/c =  0.9995   66

   1   rms: 0.3952E-01   max: 0.2593E+00   T at   35  1   RLX: 0.819
       a = 14.250      CL =  1.5610
      Cm = -0.0612     CD =  0.06271   =>   CDf =  0.00675    CDp =  0.05596

 Side 1  free  transition at x/c =  0.0594   35
 Side 2 forced transition at x/c =  0.9995   65

   2   rms: 0.8608E-02   max: 0.5358E-01   D at   36  1
       a = 14.250      CL =  1.5569
      Cm = -0.0612     CD =  0.06391   =>   CDf =  0.00723    CDp =  0.05668

 Side 1  free  transition at x/c =  0.0591   35
 Side 2 forced transition at x/c =  0.9995   65

   3   rms: 0.9094E-03   max: 0.3758E-02   D at   77  1
       a = 14.250      CL =  1.5565
      Cm = -0.0611     CD =  0.06382   =>   CDf =  0.00717    CDp =  0.05664

 Side 1  free  transition at x/c =  0.0591   35
 Side 2 forced transition at x/c =  0.9995   65

   4   rms: 0.8164E-04   max: 0.3225E-03   D at   80  2
       a = 14.250      CL =  1.5564
      Cm = -0.0611     CD =  0.06381   =>   CDf =  0.00717    CDp =  0.05664
 plradd ia,ip,cpol           46           0  1.05694802E-04

 Point added to stored polar  1
 Point written to save file  hor12_Re150k.base.pol                           
 Dump file unspecified or not available
 Calculating wake trajectory ...
 Calculating source influence matrix ...

 Solving BL system ...

 Side 1  free  transition at x/c =  0.0591   35
 Side 2 forced transition at x/c =  0.9995   65

   1   rms: 0.3102E-01   max: 0.1407E+00   T at   35  1   RLX: 0.772
       a = 14.500      CL =  1.5559
      Cm = -0.0610     CD =  0.06658   =>   CDf =  0.00718    CDp =  0.05940

 Side 1  free  transition at x/c =  0.0580   35
 Side 2 forced transition at x/c =  0.9995   65

   2   rms: 0.6865E-02   max: 0.2937E-01   D at   76  1
       a = 14.500      CL =  1.5538
      Cm = -0.0609     CD =  0.06718   =>   CDf =  0.00697    CDp =  0.06021

 Side 1  free  transition at x/c =  0.0577   35
 Side 2 forced transition at x/c =  0.9995   65

   3   rms: 0.6991E-03   max: 0.4420E-02   D at   80  2
       a = 14.500      CL =  1.5532
      Cm = -0.0608     CD =  0.06709   =>   CDf =  0.00692    CDp =  0.06017

 Side 1  free  transition at x/c =  0.0578   35
 Side 2 forced transition at x/c =  0.9995   65

   4   rms: 0.2690E-04   max: 0.1618E-03   D at   80  2
       a = 14.500      CL =  1.5532
      Cm = -0.0608     CD =  0.06708   =>   CDf =  0.00692    CDp =  0.06016
 plradd ia,ip,cpol           47           0  1.05694802E-04

 Point added to stored polar  1
 Point written to save file  hor12_Re150k.base.pol                           
 Dump file unspecified or not available
 Calculating wake trajectory ...
 Calculating source influence matrix ...

 Solving BL system ...

 Side 1  free  transition at x/c =  0.0578   35
 Side 2 forced transition at x/c =  0.9995   65

   1   rms: 0.3043E-01   max: 0.1339E+00   T at   35  1   RLX: 0.737
       a = 14.750      CL =  1.5537
      Cm = -0.0608     CD =  0.06979   =>   CDf =  0.00693    CDp =  0.06286

 Side 1  free  transition at x/c =  0.0566   35
 Side 2 forced transition at x/c =  0.9995   65

   2   rms: 0.7632E-02   max: 0.3181E-01   D at   80  2
       a = 14.750      CL =  1.5516
      Cm = -0.0606     CD =  0.07051   =>   CDf =  0.00676    CDp =  0.06374

 Side 1  free  transition at x/c =  0.0562   35
 Side 2 forced transition at x/c =  0.9995   65

   3   rms: 0.8423E-03   max: 0.4629E-02   D at   80  2
       a = 14.750      CL =  1.5509
      Cm = -0.0606     CD =  0.07039   =>   CDf =  0.00671    CDp =  0.06368

 Side 1  free  transition at x/c =  0.0563   35
 Side 2 forced transition at x/c =  0.9995   65

   4   rms: 0.3032E-04   max: 0.1136E-03   D at   80  2
       a = 14.750      CL =  1.5509
      Cm = -0.0606     CD =  0.07038   =>   CDf =  0.00671    CDp =  0.06366
 plradd ia,ip,cpol           48           0  1.05694802E-04

 Point added to stored polar  1
 Point written to save file  hor12_Re150k.base.pol                           
 Dump file unspecified or not available
 Calculating wake trajectory ...
 Calculating source influence matrix ...

 Solving BL system ...

 Side 1  free  transition at x/c =  0.0563   35
 Side 2 forced transition at x/c =  0.9995   65

   1   rms: 0.2940E-01   max: 0.1300E+00   T at   35  1   RLX: 0.707
       a = 15.000      CL =  1.5522
      Cm = -0.0605     CD =  0.07293   =>   CDf =  0.00672    CDp =  0.06621

 Side 1  free  transition at x/c =  0.0551   35
 Side 2 forced transition at x/c =  0.9995   65

   2   rms: 0.9385E-02   max: 0.3463E-01   D at   73  1
       a = 15.000      CL =  1.5495
      Cm = -0.0604     CD =  0.07394   =>   CDf =  0.00659    CDp =  0.06735

 Side 1  free  transition at x/c =  0.0548   35
 Side 2 forced transition at x/c =  0.9995   65

   3   rms: 0.1165E-02   max: 0.5853E-02   D at   81  2
       a = 15.000      CL =  1.5484
      Cm = -0.0604     CD =  0.07378   =>   CDf =  0.00654    CDp =  0.06725

 Side 1  free  transition at x/c =  0.0548   35
 Side 2 forced transition at x/c =  0.9995   65

   4   rms: 0.3008E-04   max: 0.2633E-03   D at   81  2
       a = 15.000      CL =  1.5484
      Cm = -0.0604     CD =  0.07376   =>   CDf =  0.00654    CDp =  0.06723
 plradd ia,ip,cpol           49           0  1.05694802E-04

 Point added to stored polar  1
 Point written to save file  hor12_Re150k.base.pol                           
 Dump file unspecified or not available
 Calculating wake trajectory ...
 Calculating source influence matrix ...

 Solving BL system ...

 Side 1  free  transition at x/c =  0.0548   35
 Side 2 forced transition at x/c =  0.9995   65

   1   rms: 0.2903E-01   max: 0.1256E+00   T at   35  1   RLX: 0.677
       a = 15.250      CL =  1.5496
      Cm = -0.0604     CD =  0.07628   =>   CDf =  0.00654    CDp =  0.06974

 Side 1  free  transition at x/c =  0.0538   35
 Side 2 forced transition at x/c =  0.9995   65

   2   rms: 0.9159E-02   max: 0.3403E-01   T at   35  1
       a = 15.250      CL =  1.5481
      Cm = -0.0603     CD =  0.07725   =>   CDf =  0.00644    CDp =  0.07081

 Side 1  free  transition at x/c =  0.0535   35
 Side 2 forced transition at x/c =  0.9995   65

   3   rms: 0.1285E-02   max: 0.6141E-02   D at   81  2
       a = 15.250      CL =  1.5470
      Cm = -0.0603     CD =  0.07712   =>   CDf =  0.00640    CDp =  0.07072

 Side 1  free  transition at x/c =  0.0535   35
 Side 2 forced transition at x/c =  0.9995   65

   4   rms: 0.6435E-04   max: -.3376E-03   D at   73  1
       a = 15.250      CL =  1.5470
      Cm = -0.0602     CD =  0.07709   =>   CDf =  0.00640    CDp =  0.07070
 plradd ia,ip,cpol           50           0  1.05694802E-04

 Point added to stored polar  1
 Point written to save file  hor12_Re150k.base.pol                           
 Dump file unspecified or not available
 Calculating wake trajectory ...
 Calculating source influence matrix ...

 Solving BL system ...

 Side 1  free  transition at x/c =  0.0535   35
 Side 2 forced transition at x/c =  0.9995   65

   1   rms: 0.2840E-01   max: 0.1355E+00   T at   35  1   RLX: 0.652
       a = 15.500      CL =  1.5489
      Cm = -0.0602     CD =  0.07942   =>   CDf =  0.00640    CDp =  0.07302

 Side 1  free  transition at x/c =  0.0526   35
 Side 2 forced transition at x/c =  0.9995   65

   2   rms: 0.8724E-02   max: 0.4394E-01   T at   35  1
       a = 15.500      CL =  1.5485
      Cm = -0.0601     CD =  0.08034   =>   CDf =  0.00633    CDp =  0.07401

 Side 1  free  transition at x/c =  0.0522   35
 Side 2 forced transition at x/c =  0.9995   65

   3   rms: 0.9216E-03   max: 0.6198E-02   D at   81  2
       a = 15.500      CL =  1.5476
      Cm = -0.0600     CD =  0.08021   =>   CDf =  0.00631    CDp =  0.07390

 Side 1  free  transition at x/c =  0.0522   35
 Side 2 forced transition at x/c =  0.9995   65

   4   rms: 0.1254E-03   max: -.4599E-03   D at   72  1
       a = 15.500      CL =  1.5477
      Cm = -0.0600     CD =  0.08019   =>   CDf =  0.00631    CDp =  0.07388

 Side 1  free  transition at x/c =  0.0522   35
 Side 2 forced transition at x/c =  0.9995   65

   5   rms: 0.1266E-04   max: 0.1486E-03   C at   65  2
       a = 15.500      CL =  1.5477
      Cm = -0.0600     CD =  0.08020   =>   CDf =  0.00631    CDp =  0.07388
 plradd ia,ip,cpol           51           0  1.05694802E-04

 Point added to stored polar  1
 Point written to save file  hor12_Re150k.base.pol                           
 Dump file unspecified or not available
 Calculating wake trajectory ...
 Calculating source influence matrix ...

 Solving BL system ...

 Side 1  free  transition at x/c =  0.0522   35
 Side 2 forced transition at x/c =  0.9995   65

   1   rms: 0.2956E-01   max: 0.1760E+00   T at   35  1   RLX: 0.633
       a = 15.750      CL =  1.5523
      Cm = -0.0597     CD =  0.08209   =>   CDf =  0.00632    CDp =  0.07577

 Side 1  free  transition at x/c =  0.0512   35
 Side 2 forced transition at x/c =  0.9995   65

   2   rms: 0.1428E-01   max: 0.1041E+00   T at   35  1
       a = 15.750      CL =  1.5587
      Cm = -0.0588     CD =  0.08230   =>   CDf =  0.00630    CDp =  0.07600

 Side 1  free  transition at x/c =  0.0504   35
 Side 2 forced transition at x/c =  0.9995   65

   3   rms: 0.5540E-02   max: 0.2916E-01   T at   35  1
       a = 15.750      CL =  1.5596
      Cm = -0.0584     CD =  0.08255   =>   CDf =  0.00633    CDp =  0.07622

 Side 1  free  transition at x/c =  0.0502   35
 Side 2 forced transition at x/c =  0.9995   65

   4   rms: 0.7630E-03   max: 0.3439E-02   D at   72  1
       a = 15.750      CL =  1.5591
      Cm = -0.0585     CD =  0.08276   =>   CDf =  0.00636    CDp =  0.07641

 Side 1  free  transition at x/c =  0.0503   35
 Side 2 forced transition at x/c =  0.9995   65

   5   rms: 0.8412E-04   max: 0.3634E-03   T at   35  1
       a = 15.750      CL =  1.5592
      Cm = -0.0585     CD =  0.08275   =>   CDf =  0.00636    CDp =  0.07639
 plradd ia,ip,cpol           52           0  1.05694802E-04

 Point added to stored polar  1
 Point written to save file  hor12_Re150k.base.pol                           
 Dump file unspecified or not available
 Calculating wake trajectory ...
 Calculating source influence matrix ...

 Solving BL system ...

 Side 1  free  transition at x/c =  0.0503   35
 Side 2 forced transition at x/c =  0.9995   65

   1   rms: 0.1273E+00   max: 0.6336E+00   T at   35  1   RLX: 0.645
       a = 16.000      CL =  1.5843
      Cm = -0.0546     CD =  0.08544   =>   CDf =  0.00636    CDp =  0.07907

 Side 1  free  transition at x/c =  0.0478   34
 Side 2 forced transition at x/c =  0.9995   65

   2   rms: 0.1094E+00   max: 0.5166E+00   D at   77  1
       a = 16.000      CL =  1.5398
      Cm = -0.0606     CD =  0.09234   =>   CDf =  0.00604    CDp =  0.08630

 Side 1  free  transition at x/c =  0.0497   34
 Side 2 forced transition at x/c =  0.9995   65

   3   rms: 0.1942E-01   max: -.8472E-01   D at   78  1
       a = 16.000      CL =  1.5431
      Cm = -0.0593     CD =  0.08752   =>   CDf =  0.00606    CDp =  0.08146

 Side 1  free  transition at x/c =  0.0497   34
 Side 2 forced transition at x/c =  0.9995   65

   4   rms: 0.2115E-02   max: -.9964E-02   D at   81  2
       a = 16.000      CL =  1.5448
      Cm = -0.0593     CD =  0.08773   =>   CDf =  0.00610    CDp =  0.08163

 Side 1  free  transition at x/c =  0.0496   34
 Side 2 forced transition at x/c =  0.9995   65

   5   rms: 0.7548E-04   max: 0.3642E-03   D at   70  1
       a = 16.000      CL =  1.5447
      Cm = -0.0594     CD =  0.08778   =>   CDf =  0.00609    CDp =  0.08169
 plradd ia,ip,cpol           53           0  1.05694802E-04

 Point added to stored polar  1
 Point written to save file  hor12_Re150k.base.pol                           
 Dump file unspecified or not available

.OPERva   c>  
 Polar accumulation disabled

.OPERv   c>  
 XFOIL   c>  
 XFOIL   c>  