
 ===================================================
  XFOIL Version 6.99
  Copyright (C) 2000   Mark Drela, Harold Youngren

  This software comes with ABSOLUTELY NO WARRANTY,
    subject to the GNU General Public License.

  Caveat computor
 ===================================================

 File  xfoil.def  not found

   QUIT    Exit program

  .OPER    Direct operating point(s)
  .MDES    Complex mapping design routine
  .QDES    Surface speed design routine
  .GDES    Geometry design routine

   SAVE f  Write airfoil to labeled coordinate file
   PSAV f  Write airfoil to plain coordinate file
   ISAV f  Write airfoil to ISES coordinate file
   MSAV f  Write airfoil to MSES coordinate file
   REVE    Reverse written-airfoil node ordering

   LOAD f  Read buffer airfoil from coordinate file
   NACA i  Set NACA 4,5-digit airfoil and buffer airfoil
   INTE    Set buffer airfoil by interpolating two airfoils
   NORM    Buffer airfoil normalization toggle
   XYCM rr Change CM reference location, currently  0.25000 0.00000

   BEND    Display structural properties of current airfoil

   PCOP    Set current-airfoil panel nodes directly from buffer airfoil points
   PANE    Set current-airfoil panel nodes ( 160 ) based on curvature
  .PPAR    Show/change paneling

  .PLOP    Plotting options

   WDEF f  Write  current-settings file
   RDEF f  Reread current-settings file
   NAME s  Specify new airfoil name
   NINC    Increment name version number

   Z       Zoom    | (available in all menus)
   U       Unzoom  | 

 XFOIL   c>  
 Labeled airfoil file.  Name:  HQ 1.0/9 AIRFOIL                                

 Number of input coordinate points:  77
 Counterclockwise ordering
 Max thickness =     0.089800  at x =   0.350
 Max camber    =     0.009860  at x =   0.500

  LE  x,y  =  -0.00001   0.00028  |   Chord =   1.00001
  TE  x,y  =   1.00000   0.00000  |

 Current airfoil nodes set from buffer airfoil nodes (  77 )

 WARNING: Poor input coordinate distribution
          Excessive panel angle   57.2  at i =  39
          Repaneling with PANE and/or PPAR suggested
           (doing GDES,CADD before repaneling _may_
            improve excessively coarse LE spacing

 XFOIL   c>  
 XFOIL   c>  
 Sharp trailing edge

 Paneling parameters used...
   Number of panel nodes       160
   Panel bunching parameter    1.000
   TE/LE panel density ratio   0.150
   Refined-area/LE panel density ratio    0.200
   Top    side refined area x/c limits  1.000 1.000
   Bottom side refined area x/c limits  1.000 1.000

 XFOIL   c>  
.OPERi   c>  
 Xtr/c     =  1.0000    top    side
 Xtr/c     =  1.0000    bottom side
 Ncrit     =    9.00   ( 0.070 % turb. level )
 Vacc      =  0.0100

 Klag  =  5.6000     Uxwt  =    1.00
 A     =  6.7000     B     =  0.7500       KCt = 0.01485
 CtiniK=  1.8000     CtiniX=  3.3000

..VPAR   c>  
..VPAR   c>  
.OPERi   c>  
 M  =    0.0000
 Re =    300000

.OPERv   c>  
.OPERv   c>  
.OPERv   c>  
 Polar  1 newly created for accumulation
 Airfoil archived with polar: HQ 1.0/9 AIRFOIL                                

Enter  polar save filename  OR  <return> for no file   s>  
 New polar save file available

Enter  polar dump filename  OR  <return> for no file   s>  
 Polar dump file will NOT be written

 Polar accumulation enabled

.OPERva   c>   Calculating unit vorticity distributions ...
 Calculating wake trajectory ...
 Calculating source influence matrix ...

 Solving BL system ...

 Initializing BL ...
    side            1  ...
 MRCHUE: Inverse mode at  58     Hk =   4.176
 MRCHUE: Inverse mode at  59     Hk =   4.557
 MRCHUE: Inverse mode at  60     Hk =   4.932
 MRCHUE: Inverse mode at  61     Hk =   5.302
 MRCHUE: Inverse mode at  62     Hk =   5.668
 MRCHUE: Inverse mode at  63     Hk =   6.030
 MRCHUE: Inverse mode at  64     Hk =   6.388
 MRCHUE: Inverse mode at  65     Hk =   6.743
 MRCHUE: Inverse mode at  66     Hk =   7.094
 MRCHUE: Inverse mode at  67     Hk =   7.444
 MRCHUE: Inverse mode at  68     Hk =   7.790
 MRCHUE: Inverse mode at  69     Hk =   8.133
 MRCHUE: Inverse mode at  70     Hk =   8.473
 MRCHUE: Inverse mode at  71     Hk =   8.812
 MRCHUE: Inverse mode at  72     Hk =   9.148
 MRCHUE: Inverse mode at  73     Hk =   8.543
 MRCHUE: Inverse mode at  74     Hk =   7.135
 MRCHUE: Inverse mode at  75     Hk =   6.199
 MRCHUE: Inverse mode at  76     Hk =   5.589
 MRCHUE: Inverse mode at  77     Hk =   5.296
    side            2  ...
 MRCHUE: Inverse mode at  10     Hk =   4.190
 MRCHUE: Inverse mode at  11     Hk =   5.506
 MRCHUE: Inverse mode at  12     Hk =   7.065
 MRCHUE: Inverse mode at  13     Hk =   8.810
 MRCHUE: Inverse mode at  14     Hk =  10.313
 MRCHUE: Inverse mode at  15     Hk =   2.500

 Side 1  free  transition at x/c =  0.9521   73
 Side 2  free  transition at x/c =  0.0374   15

   1   rms: 0.2837E+00   max: -.1476E+01   D at   15  2   RLX: 0.339
       a = -4.000      CL = -0.3316
      Cm = -0.0319     CD =  0.01149   =>   CDf =  0.00696    CDp =  0.00454

 Side 1  free  transition at x/c =  0.9603   74
 Side 2  free  transition at x/c =  0.0663   17

   2   rms: 0.7380E-01   max: 0.6678E+00   D at   17  2
       a = -4.000      CL = -0.3551
      Cm = -0.0227     CD =  0.01127   =>   CDf =  0.00682    CDp =  0.00445

 Side 1  free  transition at x/c =  0.9772   75
 Side 2  free  transition at x/c =  0.0794   18

   3   rms: 0.2480E-01   max: -.1439E+00   D at   75  1
       a = -4.000      CL = -0.3405
      Cm = -0.0256     CD =  0.01134   =>   CDf =  0.00685    CDp =  0.00450

 Side 1  free  transition at x/c =  0.9841   75
 Side 2  free  transition at x/c =  0.0799   18

   4   rms: 0.2713E-02   max: -.2032E-01   T at   75  1
       a = -4.000      CL = -0.3388
      Cm = -0.0260     CD =  0.01135   =>   CDf =  0.00684    CDp =  0.00451

 Side 1  free  transition at x/c =  0.9852   76
 Side 2  free  transition at x/c =  0.0803   18

   5   rms: 0.3343E-02   max: 0.2941E-01   D at   77  1
       a = -4.000      CL = -0.3395
      Cm = -0.0258     CD =  0.01136   =>   CDf =  0.00684    CDp =  0.00452

 Side 1  free  transition at x/c =  0.9846   76
 Side 2  free  transition at x/c =  0.0800   18

   6   rms: 0.5581E-04   max: -.7028E-03   D at   76  1
       a = -4.000      CL = -0.3395
      Cm = -0.0258     CD =  0.01136   =>   CDf =  0.00684    CDp =  0.00452
 plradd ia,ip,cpol            1           0  3.77759308E-04

 Point added to stored polar  1
 Point written to save file  hq109_Re300k.base.pol                           
 Dump file unspecified or not available
 Calculating wake trajectory ...
 Calculating source influence matrix ...

 Solving BL system ...

 Side 1  free  transition at x/c =  0.9846   76
 Side 2  free  transition at x/c =  0.0800   18

   1   rms: 0.2074E+00   max: 0.1978E+01   D at   18  2   RLX: 0.306
       a = -3.500      CL = -0.3160
      Cm = -0.0276     CD =  0.01090   =>   CDf =  0.00684    CDp =  0.00406

 Side 1  free  transition at x/c =  0.9828   75
 Side 2  free  transition at x/c =  0.0990   19

   2   rms: 0.1224E+00   max: -.1076E+01   C at   19  2   RLX: 0.464
       a = -3.500      CL = -0.2962
      Cm = -0.0281     CD =  0.01067   =>   CDf =  0.00676    CDp =  0.00390

 Side 1  free  transition at x/c =  0.9762   75
 Side 2  free  transition at x/c =  0.1189   21

   3   rms: 0.1658E+00   max: -.1303E+01   C at   21  2   RLX: 0.384
       a = -3.500      CL = -0.2856
      Cm = -0.0286     CD =  0.01030   =>   CDf =  0.00674    CDp =  0.00357

 Side 1  free  transition at x/c =  0.9752   75
 Side 2  free  transition at x/c =  0.1413   22

   4   rms: 0.1695E+00   max: -.3389E+01   C at   22  2   RLX: 0.148
       a = -3.500      CL = -0.2826
      Cm = -0.0288     CD =  0.01044   =>   CDf =  0.00658    CDp =  0.00386

 Side 1  free  transition at x/c =  0.9750   75
 Side 2  free  transition at x/c =  0.1454   23

   5   rms: 0.1536E+00   max: -.1661E+01   C at   23  2   RLX: 0.301
       a = -3.500      CL = -0.2783
      Cm = -0.0291     CD =  0.01019   =>   CDf =  0.00681    CDp =  0.00337

 Side 1  free  transition at x/c =  0.9746   76
 Side 2  free  transition at x/c =  0.1626   23

   6   rms: 0.2194E+00   max: -.2859E+01   T at    2  1   RLX: 0.175
       a = -3.500      CL = -0.2760
      Cm = -0.0293     CD =  0.01022   =>   CDf =  0.00652    CDp =  0.00370

 Side 1  free  transition at x/c =  0.9745   76
 Side 2  free  transition at x/c =  0.1692   23

   7   rms: 0.5308E-01   max: -.6616E+00   T at   23  2   RLX: 0.756
       a = -3.500      CL = -0.2692
      Cm = -0.0299     CD =  0.01018   =>   CDf =  0.00653    CDp =  0.00365

 MRCHDU: Convergence failed at  25  side 2    Res =  0.2829E+03
 MRCHDU: Convergence failed at  26  side 2    Res =  0.1141E+01
 MRCHDU: Convergence failed at  27  side 2    Res =  0.1416E+01
 MRCHDU: Convergence failed at  28  side 2    Res =  0.1470E+01
 MRCHDU: Convergence failed at  29  side 2    Res =  0.1493E+01
 MRCHDU: Convergence failed at  30  side 2    Res =  0.1480E+01
 MRCHDU: Convergence failed at  31  side 2    Res =  0.1473E+01
 MRCHDU: Convergence failed at  32  side 2    Res =  0.1509E+01
 MRCHDU: Convergence failed at  33  side 2    Res =  0.1497E+01
 MRCHDU: Convergence failed at  34  side 2    Res =  0.1485E+01
 MRCHDU: Convergence failed at  35  side 2    Res =  0.1475E+01
 MRCHDU: Convergence failed at  36  side 2    Res =  0.1503E+01
 MRCHDU: Convergence failed at  37  side 2    Res =  0.1530E+01
 MRCHDU: Convergence failed at  38  side 2    Res =  0.2444E+01
 MRCHDU: Convergence failed at  39  side 2    Res =  0.1892E+01
 MRCHDU: Convergence failed at  40  side 2    Res =  0.1850E+01
 MRCHDU: Convergence failed at  41  side 2    Res =  0.1820E+01
 MRCHDU: Convergence failed at  42  side 2    Res =  0.1795E+01
 MRCHDU: Convergence failed at  43  side 2    Res =  0.1776E+01
 MRCHDU: Convergence failed at  44  side 2    Res =  0.1765E+01
 MRCHDU: Convergence failed at  45  side 2    Res =  0.1758E+01
 MRCHDU: Convergence failed at  46  side 2    Res =  0.1755E+01
 MRCHDU: Convergence failed at  47  side 2    Res =  0.1249E+01
 MRCHDU: Convergence failed at  48  side 2    Res =  0.1310E+01
 MRCHDU: Convergence failed at  49  side 2    Res =  0.1375E+01
 MRCHDU: Convergence failed at  50  side 2    Res =  0.1445E+01
 MRCHDU: Convergence failed at  51  side 2    Res =  0.1520E+01
 MRCHDU: Convergence failed at  52  side 2    Res =  0.1602E+01
 MRCHDU: Convergence failed at  53  side 2    Res =  0.1689E+01
 MRCHDU: Convergence failed at  54  side 2    Res =  0.1787E+01
 MRCHDU: Convergence failed at  55  side 2    Res =  0.1890E+01
 MRCHDU: Convergence failed at  56  side 2    Res =  0.2004E+01
 MRCHDU: Convergence failed at  57  side 2    Res =  0.2143E+01
 MRCHDU: Convergence failed at  58  side 2    Res =  0.2271E+01
 MRCHDU: Convergence failed at  59  side 2    Res =  0.2398E+01
 MRCHDU: Convergence failed at  60  side 2    Res =  0.2530E+01
 MRCHDU: Convergence failed at  61  side 2    Res =  0.2669E+01
 MRCHDU: Convergence failed at  62  side 2    Res =  0.2824E+01
 MRCHDU: Convergence failed at  63  side 2    Res =  0.2990E+01
 MRCHDU: Convergence failed at  64  side 2    Res =  0.3162E+01
 MRCHDU: Convergence failed at  65  side 2    Res =  0.3346E+01
 MRCHDU: Convergence failed at  66  side 2    Res =  0.3540E+01
 MRCHDU: Convergence failed at  67  side 2    Res =  0.3737E+01
 MRCHDU: Convergence failed at  68  side 2    Res =  0.3944E+01
 MRCHDU: Convergence failed at  69  side 2    Res =  0.4133E+01
 MRCHDU: Convergence failed at  70  side 2    Res =  0.4354E+01
 MRCHDU: Convergence failed at  71  side 2    Res =  0.4580E+01
 MRCHDU: Convergence failed at  72  side 2    Res =  0.4795E+01
 MRCHDU: Convergence failed at  73  side 2    Res =  0.4904E+01
 MRCHDU: Convergence failed at  74  side 2    Res =  0.4972E+01
 MRCHDU: Convergence failed at  75  side 2    Res =  0.5164E+01
 MRCHDU: Convergence failed at  76  side 2    Res =  0.5285E+01
 MRCHDU: Convergence failed at  77  side 2    Res =  0.5197E+01
 MRCHDU: Convergence failed at  78  side 2    Res =  0.5267E+01
 MRCHDU: Convergence failed at  79  side 2    Res =  0.5608E+01
 MRCHDU: Convergence failed at  80  side 2    Res =  0.5953E+01
 MRCHDU: Convergence failed at  81  side 2    Res =  0.6194E+01
 MRCHDU: Convergence failed at  82  side 2    Res =  0.6732E+01
 MRCHDU: Convergence failed at  83  side 2    Res =  0.7943E+01
 MRCHDU: Convergence failed at  84  side 2    Res =  0.1471E+02
 Side 1  free  transition at x/c =  0.9742   76
 Side 2  free  transition at x/c =  0.3700   38

   8   rms: 0.3143E+00   max: 0.7676E+00   D at   87  2   RLX: 0.707
       a = -3.500      CL = -0.3663
      Cm =  0.0115     CD =  0.00657   =>   CDf =  0.00384    CDp =  0.00272

 Side 1  free  transition at x/c =  0.9785   76
 Side 2  free  transition at x/c =  0.4316   42

   9   rms: 0.9617E-01   max: 0.1757E+00   T at   85  2
       a = -3.500      CL = -0.2788
      Cm = -0.0290     CD =  0.00848   =>   CDf =  0.00590    CDp =  0.00259

 Side 1  free  transition at x/c =  0.9718   75
 Side 2  free  transition at x/c =  0.2555   30

  10   rms: 0.6685E-01   max: -.1066E+01   C at   30  2   RLX: 0.469
       a = -3.500      CL = -0.2687
      Cm = -0.0308     CD =  0.00965   =>   CDf =  0.00606    CDp =  0.00358

 Side 1  free  transition at x/c =  0.9771   76
 Side 2  free  transition at x/c =  0.2728   31

  11   rms: 0.1788E-01   max: -.1856E+00   C at   31  2
       a = -3.500      CL = -0.2699
      Cm = -0.0302     CD =  0.00951   =>   CDf =  0.00599    CDp =  0.00352

 Side 1  free  transition at x/c =  0.9739   76
 Side 2  free  transition at x/c =  0.2764   31

  12   rms: 0.7986E-03   max: 0.1288E-01   C at   31  2
       a = -3.500      CL = -0.2699
      Cm = -0.0302     CD =  0.00953   =>   CDf =  0.00596    CDp =  0.00357

 Side 1  free  transition at x/c =  0.9740   76
 Side 2  free  transition at x/c =  0.2760   31

  13   rms: 0.4038E-05   max: -.6510E-04   C at   31  2
       a = -3.500      CL = -0.2699
      Cm = -0.0302     CD =  0.00953   =>   CDf =  0.00596    CDp =  0.00357
 plradd ia,ip,cpol            2           0  3.77759308E-04

 Point added to stored polar  1
 Point written to save file  hq109_Re300k.base.pol                           
 Dump file unspecified or not available
 Calculating wake trajectory ...
 Calculating source influence matrix ...

 Solving BL system ...

 Side 1  free  transition at x/c =  0.9740   76
 Side 2  free  transition at x/c =  0.2760   31

   1   rms: 0.6075E+00   max: -.1141E+02   C at   31  2   RLX: 0.044
       a = -3.000      CL = -0.2667
      Cm = -0.0304     CD =  0.00943   =>   CDf =  0.00596    CDp =  0.00346

 Side 1  free  transition at x/c =  0.9736   76
 Side 2  free  transition at x/c =  0.2917   32

   2   rms: 0.6123E+00   max: -.1137E+02   C at   32  2   RLX: 0.044
       a = -3.000      CL = -0.2635
      Cm = -0.0306     CD =  0.00933   =>   CDf =  0.00590    CDp =  0.00343

 Side 1  free  transition at x/c =  0.9733   76
 Side 2  free  transition at x/c =  0.3088   34

   3   rms: 0.6335E+00   max: -.1165E+02   C at   34  2   RLX: 0.043
       a = -3.000      CL = -0.2607
      Cm = -0.0309     CD =  0.00921   =>   CDf =  0.00583    CDp =  0.00338

 Side 1  free  transition at x/c =  0.9731   76
 Side 2  free  transition at x/c =  0.3233   35

   4   rms: 0.5947E+00   max: -.1089E+02   C at   35  2   RLX: 0.046
       a = -3.000      CL = -0.2575
      Cm = -0.0311     CD =  0.00913   =>   CDf =  0.00577    CDp =  0.00336

 Side 1  free  transition at x/c =  0.9728   76
 Side 2  free  transition at x/c =  0.3381   36

   5   rms: 0.5547E+00   max: -.1009E+02   C at   36  2   RLX: 0.050
       a = -3.000      CL = -0.2542
      Cm = -0.0314     CD =  0.00905   =>   CDf =  0.00571    CDp =  0.00334

 Side 1  free  transition at x/c =  0.9725   76
 Side 2  free  transition at x/c =  0.3540   37

   6   rms: 0.5275E+00   max: -.9556E+01   C at   37  2   RLX: 0.052
       a = -3.000      CL = -0.2509
      Cm = -0.0316     CD =  0.00896   =>   CDf =  0.00564    CDp =  0.00332

 Side 1  free  transition at x/c =  0.9722   76
 Side 2  free  transition at x/c =  0.3720   38

   7   rms: 0.4494E+00   max: -.8034E+01   C at   38  2   RLX: 0.062
       a = -3.000      CL = -0.2474
      Cm = -0.0319     CD =  0.00888   =>   CDf =  0.00557    CDp =  0.00331

 Side 1  free  transition at x/c =  0.9720   76
 Side 2  free  transition at x/c =  0.3959   40

   8   rms: 0.3995E+00   max: -.7080E+01   C at   40  2   RLX: 0.071
       a = -3.000      CL = -0.2440
      Cm = -0.0321     CD =  0.00875   =>   CDf =  0.00548    CDp =  0.00328

 Side 1  free  transition at x/c =  0.9717   75
 Side 2  free  transition at x/c =  0.4181   41

   9   rms: 0.1427E+00   max: -.2275E+01   C at   41  2   RLX: 0.220
       a = -3.000      CL = -0.2373
      Cm = -0.0319     CD =  0.00866   =>   CDf =  0.00541    CDp =  0.00325

 Side 1  free  transition at x/c =  0.9679   75
 Side 2  free  transition at x/c =  0.4775   46

  10   rms: 0.2073E+00   max: -.3475E+01   C at   46  2   RLX: 0.144
       a = -3.000      CL = -0.2353
      Cm = -0.0315     CD =  0.00844   =>   CDf =  0.00521    CDp =  0.00323

 Side 1  free  transition at x/c =  0.9669   75
 Side 2  free  transition at x/c =  0.4897   47

  11   rms: 0.1431E+00   max: -.2284E+01   C at   47  2   RLX: 0.219
       a = -3.000      CL = -0.2280
      Cm = -0.0320     CD =  0.00836   =>   CDf =  0.00517    CDp =  0.00319

 Side 1  free  transition at x/c =  0.9658   75
 Side 2  free  transition at x/c =  0.5060   48

  12   rms: 0.9247E-01   max: -.1419E+01   C at   48  2   RLX: 0.352
       a = -3.000      CL = -0.2188
      Cm = -0.0327     CD =  0.00828   =>   CDf =  0.00511    CDp =  0.00317

 Side 1  free  transition at x/c =  0.9646   75
 Side 2  free  transition at x/c =  0.5282   49

  13   rms: 0.3690E-01   max: -.4092E+00   C at   49  2
       a = -3.000      CL = -0.2018
      Cm = -0.0336     CD =  0.00821   =>   CDf =  0.00505    CDp =  0.00315

 Side 1  free  transition at x/c =  0.9627   75
 Side 2  free  transition at x/c =  0.5978   54

  14   rms: 0.2383E-01   max: -.3140E+00   C at   54  2
       a = -3.000      CL = -0.2041
      Cm = -0.0331     CD =  0.00804   =>   CDf =  0.00486    CDp =  0.00317

 Side 1  free  transition at x/c =  0.9625   75
 Side 2  free  transition at x/c =  0.5720   53

  15   rms: 0.1012E-01   max: -.1185E+00   C at   53  2
       a = -3.000      CL = -0.2030
      Cm = -0.0333     CD =  0.00812   =>   CDf =  0.00492    CDp =  0.00320

 Side 1  free  transition at x/c =  0.9626   75
 Side 2  free  transition at x/c =  0.5761   53

  16   rms: 0.9186E-03   max: 0.1144E-01   C at   53  2
       a = -3.000      CL = -0.2030
      Cm = -0.0333     CD =  0.00813   =>   CDf =  0.00488    CDp =  0.00325

 Side 1  free  transition at x/c =  0.9626   75
 Side 2  free  transition at x/c =  0.5757   53

  17   rms: 0.4297E-05   max: -.6206E-04   D at   57  2
       a = -3.000      CL = -0.2030
      Cm = -0.0333     CD =  0.00813   =>   CDf =  0.00488    CDp =  0.00325
 plradd ia,ip,cpol            3           0  1.35044637E-03

 Point added to stored polar  1
 Point written to save file  hq109_Re300k.base.pol                           
 Dump file unspecified or not available
 Calculating wake trajectory ...
 Calculating source influence matrix ...

 Solving BL system ...

 Side 1  free  transition at x/c =  0.9626   75
 Side 2  free  transition at x/c =  0.5757   53

   1   rms: 0.1886E+00   max: -.2376E+01   C at   53  2   RLX: 0.210
       a = -2.500      CL = -0.1881
      Cm = -0.0339     CD =  0.00801   =>   CDf =  0.00488    CDp =  0.00313

 Side 1  free  transition at x/c =  0.9605   75
 Side 2  free  transition at x/c =  0.5985   54

   2   rms: 0.1185E+00   max: 0.8982E+00   C at   54  2   RLX: 0.899
       a = -2.500      CL = -0.1300
      Cm = -0.0378     CD =  0.00829   =>   CDf =  0.00507    CDp =  0.00321

 MRCHDU: Convergence failed at  56  side 2    Res =  0.8360E+01
 MRCHDU: Convergence failed at  57  side 2    Res =  0.1154E+01
 MRCHDU: Convergence failed at  58  side 2    Res =  0.1458E+01
 MRCHDU: Convergence failed at  59  side 2    Res =  0.2168E+01
 MRCHDU: Convergence failed at  60  side 2    Res =  0.2981E+01
 MRCHDU: Convergence failed at  61  side 2    Res =  0.3624E+01
 MRCHDU: Convergence failed at  62  side 2    Res =  0.3935E+01
 MRCHDU: Convergence failed at  63  side 2    Res =  0.3939E+01
 MRCHDU: Convergence failed at  64  side 2    Res =  0.3784E+01
 MRCHDU: Convergence failed at  65  side 2    Res =  0.3575E+01
 MRCHDU: Convergence failed at  66  side 2    Res =  0.3368E+01
 MRCHDU: Convergence failed at  67  side 2    Res =  0.3190E+01
 MRCHDU: Convergence failed at  68  side 2    Res =  0.3038E+01
 MRCHDU: Convergence failed at  69  side 2    Res =  0.2916E+01
 MRCHDU: Convergence failed at  70  side 2    Res =  0.2813E+01
 MRCHDU: Convergence failed at  71  side 2    Res =  0.2734E+01
 MRCHDU: Convergence failed at  72  side 2    Res =  0.2658E+01
 MRCHDU: Convergence failed at  73  side 2    Res =  0.2590E+01
 MRCHDU: Convergence failed at  74  side 2    Res =  0.2546E+01
 MRCHDU: Convergence failed at  75  side 2    Res =  0.2504E+01
 MRCHDU: Convergence failed at  76  side 2    Res =  0.2443E+01
 MRCHDU: Convergence failed at  77  side 2    Res =  0.2404E+01
 MRCHDU: Convergence failed at  78  side 2    Res =  0.2401E+01
 MRCHDU: Convergence failed at  79  side 2    Res =  0.2391E+01
 MRCHDU: Convergence failed at  80  side 2    Res =  0.1985E+01
 MRCHDU: Convergence failed at  81  side 2    Res =  0.2110E+01
 MRCHDU: Convergence failed at  82  side 2    Res =  0.2296E+01
 MRCHDU: Convergence failed at  83  side 2    Res =  0.1102E+02
 Side 1  free  transition at x/c =  0.9545   75
 Side 2 forced transition at x/c =  1.0000   83

   3   rms: 0.2082E+00   max: -.1354E+01   T at    2  1   RLX: 0.369
       a = -2.500      CL = -0.1803
      Cm = -0.0056     CD =  0.00563   =>   CDf =  0.00428    CDp =  0.00135

 Side 1  free  transition at x/c =  0.9579   75
 Side 2  free  transition at x/c =  0.8011   68

   4   rms: 0.2157E+00   max: 0.2989E+01   C at   68  2   RLX: 0.502
       a = -2.500      CL = -0.1623
      Cm = -0.0202     CD =  0.00688   =>   CDf =  0.00452    CDp =  0.00237

 Side 1  free  transition at x/c =  0.9491   75
 Side 2  free  transition at x/c =  0.7162   62

   5   rms: 0.6672E-01   max: -.4123E+00   D at   64  2
       a = -2.500      CL = -0.1379
      Cm = -0.0348     CD =  0.00769   =>   CDf =  0.00472    CDp =  0.00297

 Side 1  free  transition at x/c =  0.9492   75
 Side 2  free  transition at x/c =  0.6767   59

   6   rms: 0.1992E-01   max: -.2607E+00   D at   60  2
       a = -2.500      CL = -0.1356
      Cm = -0.0354     CD =  0.00784   =>   CDf =  0.00473    CDp =  0.00311

 Side 1  free  transition at x/c =  0.9495   75
 Side 2  free  transition at x/c =  0.6749   59

   7   rms: 0.2273E-02   max: -.2582E-01   D at   64  2
       a = -2.500      CL = -0.1356
      Cm = -0.0354     CD =  0.00786   =>   CDf =  0.00472    CDp =  0.00314

 Side 1  free  transition at x/c =  0.9495   75
 Side 2  free  transition at x/c =  0.6740   59

   8   rms: 0.3153E-04   max: -.6534E-03   D at   64  2
       a = -2.500      CL = -0.1356
      Cm = -0.0354     CD =  0.00786   =>   CDf =  0.00473    CDp =  0.00313
 plradd ia,ip,cpol            4           0  3.07642226E-03

 Point added to stored polar  1
 Point written to save file  hq109_Re300k.base.pol                           
 Dump file unspecified or not available
 Calculating wake trajectory ...
 Calculating source influence matrix ...

 Solving BL system ...

 Side 1  free  transition at x/c =  0.9495   75
 Side 2  free  transition at x/c =  0.6740   59

   1   rms: 0.1175E+00   max: -.5602E+00   C at   59  2   RLX: 0.893
       a = -2.000      CL = -0.0753
      Cm = -0.0370     CD =  0.00772   =>   CDf =  0.00473    CDp =  0.00299

 Side 1  free  transition at x/c =  0.9375   74
 Side 2  free  transition at x/c =  0.7061   61

   2   rms: 0.2843E-01   max: -.2521E+00   T at   61  2
       a = -2.000      CL = -0.0734
      Cm = -0.0363     CD =  0.00778   =>   CDf =  0.00487    CDp =  0.00291

 Side 1  free  transition at x/c =  0.9321   74
 Side 2  free  transition at x/c =  0.7321   63

   3   rms: 0.2298E-01   max: 0.3071E+00   C at   63  2
       a = -2.000      CL = -0.0725
      Cm = -0.0363     CD =  0.00772   =>   CDf =  0.00465    CDp =  0.00308

 Side 1  free  transition at x/c =  0.9338   74
 Side 2  free  transition at x/c =  0.7279   63

   4   rms: 0.4623E-02   max: -.5455E-01   D at   67  2
       a = -2.000      CL = -0.0730
      Cm = -0.0362     CD =  0.00774   =>   CDf =  0.00470    CDp =  0.00305

 Side 1  free  transition at x/c =  0.9337   74
 Side 2  free  transition at x/c =  0.7261   63

   5   rms: 0.1979E-03   max: -.2184E-02   D at   67  2
       a = -2.000      CL = -0.0730
      Cm = -0.0362     CD =  0.00774   =>   CDf =  0.00472    CDp =  0.00303

 Side 1  free  transition at x/c =  0.9337   74
 Side 2  free  transition at x/c =  0.7261   63

   6   rms: 0.1289E-05   max: 0.7918E-05   D at   77  1
       a = -2.000      CL = -0.0730
      Cm = -0.0362     CD =  0.00774   =>   CDf =  0.00472    CDp =  0.00303
 plradd ia,ip,cpol            5           0  1.63661055E-02

 Point added to stored polar  1
 Point written to save file  hq109_Re300k.base.pol                           
 Dump file unspecified or not available
 Calculating wake trajectory ...
 Calculating source influence matrix ...

 Solving BL system ...

 Side 1  free  transition at x/c =  0.9337   74
 Side 2  free  transition at x/c =  0.7261   63

   1   rms: 0.1191E+00   max: 0.6312E+00   D at   65  2   RLX: 0.979
       a = -1.500      CL = -0.0143
      Cm = -0.0360     CD =  0.00758   =>   CDf =  0.00484    CDp =  0.00273

 Side 1  free  transition at x/c =  0.9181   74
 Side 2  free  transition at x/c =  0.7500   63

   2   rms: 0.6243E-01   max: -.5826E+00   D at   65  2   RLX: 0.858
       a = -1.500      CL = -0.0133
      Cm = -0.0367     CD =  0.00837   =>   CDf =  0.00494    CDp =  0.00343

 MRCHDU: Convergence failed at  65  side 2    Res =  0.2104E+02
 MRCHDU: Convergence failed at  66  side 2    Res =  0.2382E+01
 MRCHDU: Convergence failed at  67  side 2    Res =  0.2308E+01
 MRCHDU: Convergence failed at  68  side 2    Res =  0.3639E+01
 MRCHDU: Convergence failed at  69  side 2    Res =  0.5524E+01
 MRCHDU: Convergence failed at  70  side 2    Res =  0.8006E+01
 MRCHDU: Convergence failed at  71  side 2    Res =  0.1023E+02
 MRCHDU: Convergence failed at  72  side 2    Res =  0.1173E+02
 MRCHDU: Convergence failed at  73  side 2    Res =  0.1234E+02
 MRCHDU: Convergence failed at  74  side 2    Res =  0.1203E+02
 MRCHDU: Convergence failed at  75  side 2    Res =  0.1080E+02
 MRCHDU: Convergence failed at  76  side 2    Res =  0.9823E+01
 MRCHDU: Convergence failed at  77  side 2    Res =  0.9492E+01
 MRCHDU: Convergence failed at  78  side 2    Res =  0.9259E+01
 MRCHDU: Convergence failed at  79  side 2    Res =  0.8993E+01
 MRCHDU: Convergence failed at  80  side 2    Res =  0.8696E+01
 MRCHDU: Convergence failed at  81  side 2    Res =  0.8320E+01
 MRCHDU: Convergence failed at  82  side 2    Res =  0.8194E+01
 Side 1  free  transition at x/c =  0.9153   73
 Side 2  free  transition at x/c =  0.7847   66

   3   rms: 0.1577E+00   max: 0.7101E+00   T at   74  2   RLX: 0.928
       a = -1.500      CL =  0.0169
      Cm = -0.0419     CD =  0.00694   =>   CDf =  0.00408    CDp =  0.00286

 Side 1  free  transition at x/c =  0.9249   74
 Side 2  free  transition at x/c =  0.7731   65

   4   rms: 0.4122E-01   max: -.1944E+00   D at   66  2
       a = -1.500      CL = -0.0172
      Cm = -0.0353     CD =  0.00763   =>   CDf =  0.00473    CDp =  0.00290

 Side 1  free  transition at x/c =  0.9161   73
 Side 2  free  transition at x/c =  0.7695   65

   5   rms: 0.3473E-02   max: -.2647E-01   D at   77  1
       a = -1.500      CL = -0.0181
      Cm = -0.0351     CD =  0.00768   =>   CDf =  0.00472    CDp =  0.00295

 Side 1  free  transition at x/c =  0.9147   73
 Side 2  free  transition at x/c =  0.7697   65

   6   rms: 0.2241E-03   max: -.2210E-02   D at   75  1
       a = -1.500      CL = -0.0180
      Cm = -0.0351     CD =  0.00768   =>   CDf =  0.00472    CDp =  0.00296

 Side 1  free  transition at x/c =  0.9148   73
 Side 2  free  transition at x/c =  0.7697   65

   7   rms: 0.3249E-05   max: 0.3175E-04   D at    4  1
       a = -1.500      CL = -0.0180
      Cm = -0.0351     CD =  0.00768   =>   CDf =  0.00472    CDp =  0.00296
 plradd ia,ip,cpol            6           0  1.63661055E-02

 Point added to stored polar  1
 Point written to save file  hq109_Re300k.base.pol                           
 Dump file unspecified or not available
 Calculating wake trajectory ...
 Calculating source influence matrix ...

 Solving BL system ...

 Side 1  free  transition at x/c =  0.9148   73
 Side 2  free  transition at x/c =  0.7697   65

   1   rms: 0.8971E-01   max: -.4260E+00   T at   65  2
       a = -1.000      CL =  0.0300
      Cm = -0.0328     CD =  0.00763   =>   CDf =  0.00472    CDp =  0.00291

 Side 1  free  transition at x/c =  0.8897   72
 Side 2  free  transition at x/c =  0.7932   67

   2   rms: 0.3932E-01   max: -.2673E+00   D at   72  1
       a = -1.000      CL =  0.0342
      Cm = -0.0336     CD =  0.00748   =>   CDf =  0.00487    CDp =  0.00260

 Side 1  free  transition at x/c =  0.8960   72
 Side 2  free  transition at x/c =  0.8016   67

   3   rms: 0.1222E-01   max: -.1301E+00   D at   68  2
       a = -1.000      CL =  0.0336
      Cm = -0.0335     CD =  0.00762   =>   CDf =  0.00475    CDp =  0.00288

 Side 1  free  transition at x/c =  0.8940   72
 Side 2  free  transition at x/c =  0.8023   67

   4   rms: 0.9928E-03   max: 0.1591E-01   D at   68  2
       a = -1.000      CL =  0.0335
      Cm = -0.0335     CD =  0.00763   =>   CDf =  0.00473    CDp =  0.00289

 Side 1  free  transition at x/c =  0.8940   72
 Side 2  free  transition at x/c =  0.8019   67

   5   rms: 0.4421E-05   max: -.5796E-04   D at   67  2
       a = -1.000      CL =  0.0335
      Cm = -0.0335     CD =  0.00763   =>   CDf =  0.00474    CDp =  0.00289
 plradd ia,ip,cpol            7           0  2.56073866E-02

 Point added to stored polar  1
 Point written to save file  hq109_Re300k.base.pol                           
 Dump file unspecified or not available
 Calculating wake trajectory ...
 Calculating source influence matrix ...

 Solving BL system ...

 Side 1  free  transition at x/c =  0.8940   72
 Side 2  free  transition at x/c =  0.8019   67

   1   rms: 0.8758E-01   max: -.3971E+00   T at   67  2
       a = -0.500      CL =  0.0860
      Cm = -0.0321     CD =  0.00761   =>   CDf =  0.00481    CDp =  0.00281

 Side 1  free  transition at x/c =  0.8763   72
 Side 2  free  transition at x/c =  0.8283   68

   2   rms: 0.1817E-01   max: -.2139E+00   D at   72  1
       a = -0.500      CL =  0.0847
      Cm = -0.0318     CD =  0.00757   =>   CDf =  0.00476    CDp =  0.00282

 Side 1  free  transition at x/c =  0.8757   71
 Side 2  free  transition at x/c =  0.8302   68

   3   rms: 0.1641E-02   max: 0.1019E-01   D at   71  2
       a = -0.500      CL =  0.0848
      Cm = -0.0318     CD =  0.00759   =>   CDf =  0.00477    CDp =  0.00282

 Side 1  free  transition at x/c =  0.8755   71
 Side 2  free  transition at x/c =  0.8307   68

   4   rms: 0.1391E-04   max: -.1351E-03   D at   69  2
       a = -0.500      CL =  0.0848
      Cm = -0.0318     CD =  0.00759   =>   CDf =  0.00476    CDp =  0.00282
 plradd ia,ip,cpol            8           0  0.16019231    

 Point added to stored polar  1
 Point written to save file  hq109_Re300k.base.pol                           
 Dump file unspecified or not available
 Calculating wake trajectory ...
 Calculating source influence matrix ...

 Solving BL system ...

 Side 1  free  transition at x/c =  0.8755   71
 Side 2  free  transition at x/c =  0.8307   68

   1   rms: 0.8637E-01   max: -.3804E+00   T at   68  2
       a =  0.000      CL =  0.1331
      Cm = -0.0301     CD =  0.00757   =>   CDf =  0.00477    CDp =  0.00281

 Side 1  free  transition at x/c =  0.8427   69
 Side 2  free  transition at x/c =  0.8621   71

   2   rms: 0.3450E-01   max: -.3816E+00   D at   70  1
       a =  0.000      CL =  0.1339
      Cm = -0.0296     CD =  0.00755   =>   CDf =  0.00486    CDp =  0.00269

 Side 1  free  transition at x/c =  0.8534   70
 Side 2  free  transition at x/c =  0.8622   71

   3   rms: 0.7976E-02   max: 0.8949E-01   D at   71  1
       a =  0.000      CL =  0.1336
      Cm = -0.0296     CD =  0.00751   =>   CDf =  0.00475    CDp =  0.00275

 Side 1  free  transition at x/c =  0.8515   70
 Side 2  free  transition at x/c =  0.8615   70

   4   rms: 0.8280E-03   max: 0.6635E-02   C at   70  1
       a =  0.000      CL =  0.1335
      Cm = -0.0296     CD =  0.00751   =>   CDf =  0.00477    CDp =  0.00274

 Side 1  free  transition at x/c =  0.8513   70
 Side 2  free  transition at x/c =  0.8613   70

   5   rms: 0.7176E-05   max: -.9709E-04   D at   73  1
       a =  0.000      CL =  0.1335
      Cm = -0.0296     CD =  0.00751   =>   CDf =  0.00477    CDp =  0.00274
 plradd ia,ip,cpol            9           0  0.14672486    

 Point added to stored polar  1
 Point written to save file  hq109_Re300k.base.pol                           
 Dump file unspecified or not available
 Calculating wake trajectory ...
 Calculating source influence matrix ...

 Solving BL system ...

 Side 1  free  transition at x/c =  0.8513   70
 Side 2  free  transition at x/c =  0.8613   70

   1   rms: 0.8955E-01   max: -.3970E+00   T at   70  2
       a =  0.500      CL =  0.1843
      Cm = -0.0279     CD =  0.00750   =>   CDf =  0.00478    CDp =  0.00271

 Side 1  free  transition at x/c =  0.8305   69
 Side 2  free  transition at x/c =  0.8924   72

   2   rms: 0.2106E-01   max: -.2417E+00   D at   70  1
       a =  0.500      CL =  0.1831
      Cm = -0.0276     CD =  0.00741   =>   CDf =  0.00475    CDp =  0.00266

 Side 1  free  transition at x/c =  0.8278   69
 Side 2  free  transition at x/c =  0.8911   72

   3   rms: 0.3796E-02   max: 0.4651E-01   C at   72  2
       a =  0.500      CL =  0.1829
      Cm = -0.0275     CD =  0.00741   =>   CDf =  0.00474    CDp =  0.00267

 Side 1  free  transition at x/c =  0.8276   69
 Side 2  free  transition at x/c =  0.8901   72

   4   rms: 0.1542E-03   max: -.1961E-02   D at   75  2
       a =  0.500      CL =  0.1830
      Cm = -0.0275     CD =  0.00741   =>   CDf =  0.00475    CDp =  0.00266

 Side 1  free  transition at x/c =  0.8276   69
 Side 2  free  transition at x/c =  0.8901   72

   5   rms: 0.1188E-05   max: 0.6527E-05   D at    5  1
       a =  0.500      CL =  0.1830
      Cm = -0.0275     CD =  0.00741   =>   CDf =  0.00475    CDp =  0.00266
 plradd ia,ip,cpol           10           0  0.13331871    

 Point added to stored polar  1
 Point written to save file  hq109_Re300k.base.pol                           
 Dump file unspecified or not available
 Calculating wake trajectory ...
 Calculating source influence matrix ...

 Solving BL system ...

 Side 1  free  transition at x/c =  0.8276   69
 Side 2  free  transition at x/c =  0.8901   72

   1   rms: 0.9005E-01   max: -.4550E+00   C at   72  2
       a =  1.000      CL =  0.2326
      Cm = -0.0253     CD =  0.00722   =>   CDf =  0.00475    CDp =  0.00247

 Side 1  free  transition at x/c =  0.8051   67
 Side 2  free  transition at x/c =  0.9122   73

   2   rms: 0.3020E-01   max: -.2556E+00   D at   74  2
       a =  1.000      CL =  0.2330
      Cm = -0.0257     CD =  0.00731   =>   CDf =  0.00478    CDp =  0.00253

 Side 1  free  transition at x/c =  0.8054   67
 Side 2  free  transition at x/c =  0.9283   74

   3   rms: 0.1999E-01   max: 0.2929E+00   C at   74  2
       a =  1.000      CL =  0.2322
      Cm = -0.0254     CD =  0.00732   =>   CDf =  0.00471    CDp =  0.00260

 Side 1  free  transition at x/c =  0.8051   67
 Side 2  free  transition at x/c =  0.9232   74

   4   rms: 0.5055E-02   max: 0.5757E-01   C at   74  2
       a =  1.000      CL =  0.2349
      Cm = -0.0260     CD =  0.00733   =>   CDf =  0.00472    CDp =  0.00260

 Side 1  free  transition at x/c =  0.8052   67
 Side 2  free  transition at x/c =  0.9207   74

   5   rms: 0.2090E-03   max: -.2318E-02   D at   74  2
       a =  1.000      CL =  0.2350
      Cm = -0.0260     CD =  0.00733   =>   CDf =  0.00473    CDp =  0.00260

 Side 1  free  transition at x/c =  0.8052   67
 Side 2  free  transition at x/c =  0.9207   74

   6   rms: 0.1418E-05   max: 0.1754E-04   C at   74  2
       a =  1.000      CL =  0.2350
      Cm = -0.0260     CD =  0.00733   =>   CDf =  0.00473    CDp =  0.00260
 plradd ia,ip,cpol           11           0  9.35117677E-02

 Point added to stored polar  1
 Point written to save file  hq109_Re300k.base.pol                           
 Dump file unspecified or not available
 Calculating wake trajectory ...
 Calculating source influence matrix ...

 Solving BL system ...

 Side 1  free  transition at x/c =  0.8052   67
 Side 2  free  transition at x/c =  0.9207   74

   1   rms: 0.9326E-01   max: -.5091E+00   C at   74  2   RLX: 0.982
       a =  1.500      CL =  0.2907
      Cm = -0.0257     CD =  0.00723   =>   CDf =  0.00470    CDp =  0.00253

 Side 1  free  transition at x/c =  0.7755   66
 Side 2  free  transition at x/c =  0.9478   75

   2   rms: 0.3501E-01   max: -.3261E+00   D at   67  1
       a =  1.500      CL =  0.2959
      Cm = -0.0265     CD =  0.00729   =>   CDf =  0.00478    CDp =  0.00252

 Side 1  free  transition at x/c =  0.7830   67
 Side 2  free  transition at x/c =  0.9569   75

   3   rms: 0.6854E-02   max: 0.5023E-01   D at   67  1
       a =  1.500      CL =  0.2997
      Cm = -0.0274     CD =  0.00730   =>   CDf =  0.00470    CDp =  0.00260

 Side 1  free  transition at x/c =  0.7812   67
 Side 2  free  transition at x/c =  0.9543   75

   4   rms: 0.8186E-03   max: -.7696E-02   C at   75  2
       a =  1.500      CL =  0.2993
      Cm = -0.0273     CD =  0.00730   =>   CDf =  0.00471    CDp =  0.00259

 Side 1  free  transition at x/c =  0.7811   67
 Side 2  free  transition at x/c =  0.9547   75

   5   rms: 0.1036E-04   max: -.1150E-03   C at   75  2
       a =  1.500      CL =  0.2993
      Cm = -0.0273     CD =  0.00730   =>   CDf =  0.00472    CDp =  0.00259
 plradd ia,ip,cpol           12           0  6.76781535E-02

 Point added to stored polar  1
 Point written to save file  hq109_Re300k.base.pol                           
 Dump file unspecified or not available
 Calculating wake trajectory ...
 Calculating source influence matrix ...

 Solving BL system ...

 Side 1  free  transition at x/c =  0.7811   67
 Side 2  free  transition at x/c =  0.9547   75

   1   rms: 0.9822E-01   max: 0.2183E+00   D at   78  2
       a =  2.000      CL =  0.3679
      Cm = -0.0296     CD =  0.00734   =>   CDf =  0.00472    CDp =  0.00263

 Side 1  free  transition at x/c =  0.7560   65
 Side 2  free  transition at x/c =  0.9876   78

   2   rms: 0.2706E-01   max: -.3157E+00   D at   66  1
       a =  2.000      CL =  0.3767
      Cm = -0.0318     CD =  0.00726   =>   CDf =  0.00470    CDp =  0.00256

 Side 1  free  transition at x/c =  0.7544   65
 Side 2  free  transition at x/c =  0.9842   78

   3   rms: 0.3610E-02   max: 0.3202E-01   C at   78  2
       a =  2.000      CL =  0.3768
      Cm = -0.0318     CD =  0.00731   =>   CDf =  0.00472    CDp =  0.00259

 Side 1  free  transition at x/c =  0.7538   65
 Side 2  free  transition at x/c =  0.9831   77

   4   rms: 0.1077E-02   max: 0.8517E-02   D at   79  2
       a =  2.000      CL =  0.3775
      Cm = -0.0320     CD =  0.00731   =>   CDf =  0.00473    CDp =  0.00258

 Side 1  free  transition at x/c =  0.7538   65
 Side 2  free  transition at x/c =  0.9823   77

   5   rms: 0.6238E-04   max: -.5412E-03   D at   79  2
       a =  2.000      CL =  0.3774
      Cm = -0.0320     CD =  0.00731   =>   CDf =  0.00473    CDp =  0.00258
 plradd ia,ip,cpol           13           0  3.13581638E-02

 Point added to stored polar  1
 Point written to save file  hq109_Re300k.base.pol                           
 Dump file unspecified or not available
 Calculating wake trajectory ...
 Calculating source influence matrix ...

 Solving BL system ...

 Side 1  free  transition at x/c =  0.7538   65
 Side 2  free  transition at x/c =  0.9823   77

   1   rms: 0.1056E+00   max: -.2033E+00   T at   77  2
       a =  2.500      CL =  0.4532
      Cm = -0.0360     CD =  0.00737   =>   CDf =  0.00463    CDp =  0.00274

 Side 1  free  transition at x/c =  0.7163   63
 Side 2 forced transition at x/c =  1.0000   78

   2   rms: 0.3598E-01   max: 0.4207E+00   D at   65  1
       a =  2.500      CL =  0.4451
      Cm = -0.0349     CD =  0.00743   =>   CDf =  0.00478    CDp =  0.00265

 Side 1  free  transition at x/c =  0.7175   63
 Side 2 forced transition at x/c =  1.0000   78

   3   rms: 0.5695E-02   max: 0.5937E-01   D at   66  1
       a =  2.500      CL =  0.4466
      Cm = -0.0351     CD =  0.00732   =>   CDf =  0.00476    CDp =  0.00257

 Side 1  free  transition at x/c =  0.7176   63
 Side 2 forced transition at x/c =  1.0000   78

   4   rms: 0.1262E-03   max: -.1839E-02   D at   66  1
       a =  2.500      CL =  0.4467
      Cm = -0.0351     CD =  0.00733   =>   CDf =  0.00475    CDp =  0.00258

 Side 1  free  transition at x/c =  0.7176   63
 Side 2 forced transition at x/c =  1.0000   78

   5   rms: 0.1691E-05   max: 0.1509E-04   C at   78  2
       a =  2.500      CL =  0.4467
      Cm = -0.0351     CD =  0.00733   =>   CDf =  0.00475    CDp =  0.00258
 plradd ia,ip,cpol           14           0  2.10920237E-02

 Point added to stored polar  1
 Point written to save file  hq109_Re300k.base.pol                           
 Dump file unspecified or not available
 Calculating wake trajectory ...
 Calculating source influence matrix ...

 Solving BL system ...

 Side 1  free  transition at x/c =  0.7176   63
 Side 2 forced transition at x/c =  1.0000   78

   1   rms: 0.9963E-01   max: -.4919E+00   C at   78  2
       a =  3.000      CL =  0.4875
      Cm = -0.0325     CD =  0.00745   =>   CDf =  0.00475    CDp =  0.00270

 Side 1  free  transition at x/c =  0.6702   60
 Side 2 forced transition at x/c =  1.0000   78

   2   rms: 0.3501E-01   max: 0.3793E+00   D at   62  1
       a =  3.000      CL =  0.4898
      Cm = -0.0327     CD =  0.00753   =>   CDf =  0.00502    CDp =  0.00251

 Side 1  free  transition at x/c =  0.6763   60
 Side 2 forced transition at x/c =  1.0000   78

   3   rms: 0.8256E-02   max: 0.7041E-01   C at   60  1
       a =  3.000      CL =  0.4917
      Cm = -0.0330     CD =  0.00747   =>   CDf =  0.00484    CDp =  0.00262

 Side 1  free  transition at x/c =  0.6743   60
 Side 2 forced transition at x/c =  1.0000   78

   4   rms: 0.4815E-03   max: 0.5452E-02   C at   78  2
       a =  3.000      CL =  0.4918
      Cm = -0.0330     CD =  0.00747   =>   CDf =  0.00485    CDp =  0.00262

 Side 1  free  transition at x/c =  0.6743   60
 Side 2 forced transition at x/c =  1.0000   78

   5   rms: 0.2667E-05   max: 0.3281E-04   C at   78  2
       a =  3.000      CL =  0.4918
      Cm = -0.0330     CD =  0.00747   =>   CDf =  0.00485    CDp =  0.00262
 plradd ia,ip,cpol           15           0  7.63535639E-03

 Point added to stored polar  1
 Point written to save file  hq109_Re300k.base.pol                           
 Dump file unspecified or not available
 Calculating wake trajectory ...
 Calculating source influence matrix ...

 Solving BL system ...

 Side 1  free  transition at x/c =  0.6743   60
 Side 2 forced transition at x/c =  1.0000   78

   1   rms: 0.1012E+00   max: 0.5385E+00   C at   60  1
       a =  3.500      CL =  0.5387
      Cm = -0.0311     CD =  0.00771   =>   CDf =  0.00467    CDp =  0.00304

 Side 1  free  transition at x/c =  0.6070   56
 Side 2 forced transition at x/c =  1.0000   77

   2   rms: 0.3122E-01   max: 0.3055E+00   D at   60  1
       a =  3.500      CL =  0.5397
      Cm = -0.0312     CD =  0.00770   =>   CDf =  0.00507    CDp =  0.00263

 Side 1  free  transition at x/c =  0.6140   57
 Side 2 forced transition at x/c =  1.0000   77

   3   rms: 0.5223E-02   max: -.7669E-01   D at   60  1
       a =  3.500      CL =  0.5397
      Cm = -0.0313     CD =  0.00776   =>   CDf =  0.00499    CDp =  0.00277

 Side 1  free  transition at x/c =  0.6119   56
 Side 2 forced transition at x/c =  1.0000   77

   4   rms: 0.7057E-03   max: -.1038E-01   D at   60  1
       a =  3.500      CL =  0.5398
      Cm = -0.0313     CD =  0.00775   =>   CDf =  0.00499    CDp =  0.00276

 Side 1  free  transition at x/c =  0.6113   56
 Side 2 forced transition at x/c =  1.0000   77

   5   rms: 0.1473E-04   max: -.2064E-03   C at   56  1
       a =  3.500      CL =  0.5398
      Cm = -0.0313     CD =  0.00775   =>   CDf =  0.00499    CDp =  0.00276
 plradd ia,ip,cpol           16           0  7.63535639E-03

 Point added to stored polar  1
 Point written to save file  hq109_Re300k.base.pol                           
 Dump file unspecified or not available
 Calculating wake trajectory ...
 Calculating source influence matrix ...

 Solving BL system ...

 Side 1  free  transition at x/c =  0.6114   56
 Side 2 forced transition at x/c =  1.0000   77

   1   rms: 0.9532E-01   max: 0.5375E+00   C at   56  1
       a =  4.000      CL =  0.5896
      Cm = -0.0301     CD =  0.00800   =>   CDf =  0.00499    CDp =  0.00301

 Side 1  free  transition at x/c =  0.4990   48
 Side 2 forced transition at x/c =  1.0000   77

   2   rms: 0.3114E-01   max: -.3086E+00   C at   48  1
       a =  4.000      CL =  0.5865
      Cm = -0.0294     CD =  0.00828   =>   CDf =  0.00544    CDp =  0.00284

 Side 1  free  transition at x/c =  0.5165   49
 Side 2 forced transition at x/c =  1.0000   77

   3   rms: 0.8391E-02   max: 0.1312E+00   C at   49  1
       a =  4.000      CL =  0.5869
      Cm = -0.0295     CD =  0.00829   =>   CDf =  0.00528    CDp =  0.00302

 Side 1  free  transition at x/c =  0.5109   49
 Side 2 forced transition at x/c =  1.0000   77

   4   rms: 0.3577E-03   max: -.5954E-02   C at   49  1
       a =  4.000      CL =  0.5868
      Cm = -0.0295     CD =  0.00830   =>   CDf =  0.00531    CDp =  0.00299

 Side 1  free  transition at x/c =  0.5111   49
 Side 2 forced transition at x/c =  1.0000   77

   5   rms: 0.1544E-05   max: -.2344E-04   C at   49  1
       a =  4.000      CL =  0.5868
      Cm = -0.0295     CD =  0.00830   =>   CDf =  0.00531    CDp =  0.00299
 plradd ia,ip,cpol           17           0  1.69883380E-04

 Point added to stored polar  1
 Point written to save file  hq109_Re300k.base.pol                           
 Dump file unspecified or not available
 Calculating wake trajectory ...
 Calculating source influence matrix ...

 Solving BL system ...

 Side 1  free  transition at x/c =  0.5111   49
 Side 2 forced transition at x/c =  1.0000   77

   1   rms: 0.1608E+00   max: 0.2335E+01   C at   49  1   RLX: 0.642
       a =  4.500      CL =  0.6160
      Cm = -0.0283     CD =  0.00882   =>   CDf =  0.00531    CDp =  0.00351

 Side 1  free  transition at x/c =  0.4079   42
 Side 2 forced transition at x/c =  1.0000   77

   2   rms: 0.4735E-01   max: 0.4809E+00   C at   42  1
       a =  4.500      CL =  0.6304
      Cm = -0.0275     CD =  0.00943   =>   CDf =  0.00578    CDp =  0.00365

 Side 1  free  transition at x/c =  0.3617   38
 Side 2 forced transition at x/c =  1.0000   77

   3   rms: 0.1157E-01   max: 0.1618E+00   D at   41  1
       a =  4.500      CL =  0.6306
      Cm = -0.0276     CD =  0.00941   =>   CDf =  0.00593    CDp =  0.00348

 Side 1  free  transition at x/c =  0.3648   38
 Side 2 forced transition at x/c =  1.0000   77

   4   rms: 0.1057E-02   max: -.1797E-01   D at   41  1
       a =  4.500      CL =  0.6306
      Cm = -0.0276     CD =  0.00942   =>   CDf =  0.00591    CDp =  0.00351

 Side 1  free  transition at x/c =  0.3642   38
 Side 2 forced transition at x/c =  1.0000   77

   5   rms: 0.8902E-05   max: -.1903E-03   D at   41  1
       a =  4.500      CL =  0.6306
      Cm = -0.0276     CD =  0.00942   =>   CDf =  0.00591    CDp =  0.00350
 plradd ia,ip,cpol           18           0  1.69883380E-04

 Point added to stored polar  1
 Point written to save file  hq109_Re300k.base.pol                           
 Dump file unspecified or not available
 Calculating wake trajectory ...
 Calculating source influence matrix ...

 Solving BL system ...

 Side 1  free  transition at x/c =  0.3642   38
 Side 2 forced transition at x/c =  1.0000   77

   1   rms: 0.1662E+00   max: 0.2640E+01   C at   38  1   RLX: 0.568
       a =  5.000      CL =  0.6577
      Cm = -0.0269     CD =  0.00995   =>   CDf =  0.00562    CDp =  0.00432

 Side 1  free  transition at x/c =  0.2819   33
 Side 2 forced transition at x/c =  1.0000   76

   2   rms: 0.4487E-01   max: -.4044E+00   D at   34  1
       a =  5.000      CL =  0.6778
      Cm = -0.0265     CD =  0.01041   =>   CDf =  0.00631    CDp =  0.00410

 Side 1  free  transition at x/c =  0.2447   31
 Side 2 forced transition at x/c =  1.0000   76

   3   rms: 0.1525E-01   max: -.2097E+00   C at   31  1
       a =  5.000      CL =  0.6756
      Cm = -0.0262     CD =  0.01067   =>   CDf =  0.00644    CDp =  0.00423

 Side 1  free  transition at x/c =  0.2505   31
 Side 2 forced transition at x/c =  1.0000   76

   4   rms: 0.1738E-02   max: 0.3118E-01   C at   31  1
       a =  5.000      CL =  0.6756
      Cm = -0.0262     CD =  0.01067   =>   CDf =  0.00638    CDp =  0.00429

 Side 1  free  transition at x/c =  0.2496   31
 Side 2 forced transition at x/c =  1.0000   76

   5   rms: 0.1594E-04   max: -.2501E-03   C at   31  1
       a =  5.000      CL =  0.6756
      Cm = -0.0262     CD =  0.01067   =>   CDf =  0.00639    CDp =  0.00429
 plradd ia,ip,cpol           19           0  1.69883380E-04

 Point added to stored polar  1
 Point written to save file  hq109_Re300k.base.pol                           
 Dump file unspecified or not available
 Calculating wake trajectory ...
 Calculating source influence matrix ...

 Solving BL system ...

 Side 1  free  transition at x/c =  0.2496   31
 Side 2 forced transition at x/c =  1.0000   76

   1   rms: 0.1470E+00   max: 0.2028E+01   C at   31  1   RLX: 0.587
       a =  5.500      CL =  0.7032
      Cm = -0.0256     CD =  0.01133   =>   CDf =  0.00638    CDp =  0.00494

 Side 1  free  transition at x/c =  0.1968   27
 Side 2 forced transition at x/c =  1.0000   76

   2   rms: 0.5159E-01   max: -.5693E+00   D at   28  1   RLX: 0.878
       a =  5.500      CL =  0.7223
      Cm = -0.0254     CD =  0.01147   =>   CDf =  0.00659    CDp =  0.00488

 Side 1  free  transition at x/c =  0.1620   25
 Side 2 forced transition at x/c =  1.0000   76

   3   rms: 0.1668E-01   max: -.2114E+00   D at   25  1
       a =  5.500      CL =  0.7220
      Cm = -0.0251     CD =  0.01186   =>   CDf =  0.00671    CDp =  0.00515

 Side 1  free  transition at x/c =  0.1557   24
 Side 2 forced transition at x/c =  1.0000   76

   4   rms: 0.2767E-02   max: 0.4677E-01   C at   24  1
       a =  5.500      CL =  0.7222
      Cm = -0.0251     CD =  0.01184   =>   CDf =  0.00674    CDp =  0.00511

 Side 1  free  transition at x/c =  0.1540   24
 Side 2 forced transition at x/c =  1.0000   76

   5   rms: 0.7551E-04   max: -.1376E-02   C at   24  1
       a =  5.500      CL =  0.7222
      Cm = -0.0251     CD =  0.01184   =>   CDf =  0.00675    CDp =  0.00510
 plradd ia,ip,cpol           20           0  1.69883380E-04

 Point added to stored polar  1
 Point written to save file  hq109_Re300k.base.pol                           
 Dump file unspecified or not available
 Calculating wake trajectory ...
 Calculating source influence matrix ...

 Solving BL system ...

 Side 1  free  transition at x/c =  0.1540   24
 Side 2 forced transition at x/c =  1.0000   76

   1   rms: 0.1836E+00   max: 0.3001E+01   C at   24  1   RLX: 0.423
       a =  6.000      CL =  0.7415
      Cm = -0.0246     CD =  0.01245   =>   CDf =  0.00675    CDp =  0.00571

 Side 1  free  transition at x/c =  0.1163   21
 Side 2 forced transition at x/c =  1.0000   76

   2   rms: 0.7569E-01   max: -.6685E+00   D at   21  1   RLX: 0.748
       a =  6.000      CL =  0.7620
      Cm = -0.0240     CD =  0.01301   =>   CDf =  0.00696    CDp =  0.00605

 Side 1  free  transition at x/c =  0.0837   19
 Side 2 forced transition at x/c =  1.0000   76

   3   rms: 0.3683E-01   max: -.6533E+00   D at   19  1   RLX: 0.765
       a =  6.000      CL =  0.7655
      Cm = -0.0239     CD =  0.01335   =>   CDf =  0.00713    CDp =  0.00622

 Side 1  free  transition at x/c =  0.0786   18
 Side 2 forced transition at x/c =  1.0000   76

   4   rms: 0.1485E-01   max: -.2487E+00   D at   19  1
       a =  6.000      CL =  0.7669
      Cm = -0.0238     CD =  0.01336   =>   CDf =  0.00713    CDp =  0.00622

 Side 1  free  transition at x/c =  0.0749   18
 Side 2 forced transition at x/c =  1.0000   76

   5   rms: 0.1058E-02   max: -.1995E-01   D at   19  1
       a =  6.000      CL =  0.7665
      Cm = -0.0238     CD =  0.01341   =>   CDf =  0.00716    CDp =  0.00625

 Side 1  free  transition at x/c =  0.0748   18
 Side 2 forced transition at x/c =  1.0000   76

   6   rms: 0.1138E-04   max: -.2313E-03   D at   19  1
       a =  6.000      CL =  0.7665
      Cm = -0.0238     CD =  0.01341   =>   CDf =  0.00716    CDp =  0.00624
 plradd ia,ip,cpol           21           0  1.69883380E-04

 Point added to stored polar  1
 Point written to save file  hq109_Re300k.base.pol                           
 Dump file unspecified or not available
 Calculating wake trajectory ...
 Calculating source influence matrix ...

 Solving BL system ...

 Side 1  free  transition at x/c =  0.0747   18
 Side 2 forced transition at x/c =  1.0000   76

   1   rms: 0.1415E+00   max: -.1258E+01   D at   18  1   RLX: 0.397
       a =  6.500      CL =  0.7848
      Cm = -0.0233     CD =  0.01399   =>   CDf =  0.00716    CDp =  0.00682

 Side 1  free  transition at x/c =  0.0593   17
 Side 2 forced transition at x/c =  1.0000   76

   2   rms: 0.9945E-01   max: -.1110E+01   D at   17  1   RLX: 0.450
       a =  6.500      CL =  0.7993
      Cm = -0.0234     CD =  0.01419   =>   CDf =  0.00682    CDp =  0.00737

 Side 1  free  transition at x/c =  0.0515   17
 Side 2 forced transition at x/c =  1.0000   75

   3   rms: 0.6615E-01   max: -.6597E+00   D at   18  1   RLX: 0.758
       a =  6.500      CL =  0.8132
      Cm = -0.0231     CD =  0.01425   =>   CDf =  0.00714    CDp =  0.00712

 Side 1  free  transition at x/c =  0.0420   16
 Side 2 forced transition at x/c =  1.0000   75

   4   rms: 0.2551E-01   max: -.2732E+00   C at   16  1
       a =  6.500      CL =  0.8128
      Cm = -0.0224     CD =  0.01478   =>   CDf =  0.00721    CDp =  0.00757

 Side 1  free  transition at x/c =  0.0383   16
 Side 2 forced transition at x/c =  1.0000   75

   5   rms: 0.2518E-02   max: -.1312E-01   D at   17  1
       a =  6.500      CL =  0.8115
      Cm = -0.0223     CD =  0.01496   =>   CDf =  0.00722    CDp =  0.00774

 Side 1  free  transition at x/c =  0.0378   16
 Side 2 forced transition at x/c =  1.0000   75

   6   rms: 0.6600E-04   max: -.9509E-03   D at   16  1
       a =  6.500      CL =  0.8114
      Cm = -0.0223     CD =  0.01496   =>   CDf =  0.00723    CDp =  0.00774
 plradd ia,ip,cpol           22           0  1.69883380E-04

 Point added to stored polar  1
 Point written to save file  hq109_Re300k.base.pol                           
 Dump file unspecified or not available
 Calculating wake trajectory ...
 Calculating source influence matrix ...

 Solving BL system ...

 Side 1  free  transition at x/c =  0.0378   16
 Side 2 forced transition at x/c =  1.0000   75

   1   rms: 0.1323E+00   max: 0.1288E+01   T at   16  1   RLX: 0.474
       a =  7.000      CL =  0.8337
      Cm = -0.0216     CD =  0.01566   =>   CDf =  0.00723    CDp =  0.00844

 MRCHDU: Convergence failed at  16  side 1    Res =  0.1600E+01
 MRCHDU: Convergence failed at  17  side 1    Res =  0.1602E+01
 MRCHDU: Convergence failed at  18  side 1    Res =  0.3338E+01
 MRCHDU: Convergence failed at  19  side 1    Res =  0.4539E+01
 MRCHDU: Convergence failed at  20  side 1    Res =  0.4987E+01
 MRCHDU: Convergence failed at  21  side 1    Res =  0.5467E+01
 MRCHDU: Convergence failed at  22  side 1    Res =  0.6302E+01
 MRCHDU: Convergence failed at  23  side 1    Res =  0.8000E+01
 MRCHDU: Convergence failed at  24  side 1    Res =  0.1258E+02
 MRCHDU: Convergence failed at  25  side 1    Res =  0.1678E+02
 MRCHDU: Convergence failed at  26  side 1    Res =  0.2448E+02
 MRCHDU: Convergence failed at  27  side 1    Res =  0.6513E+02
 MRCHDU: Convergence failed at  28  side 1    Res =  0.3374E+02
 MRCHDU: Convergence failed at  29  side 1    Res =  0.2374E+02
 MRCHDU: Convergence failed at  30  side 1    Res =  0.1878E+02
 MRCHDU: Convergence failed at  31  side 1    Res =  0.8723E+01
 MRCHDU: Convergence failed at  32  side 1    Res =  0.1481E+02
 MRCHDU: Convergence failed at  33  side 1    Res =  0.1486E+02
 MRCHDU: Convergence failed at  34  side 1    Res =  0.1481E+02
 MRCHDU: Convergence failed at  35  side 1    Res =  0.1680E+02
 MRCHDU: Convergence failed at  36  side 1    Res =  0.2611E+02
 MRCHDU: Convergence failed at  37  side 1    Res =  0.2430E+02
 MRCHDU: Convergence failed at  38  side 1    Res =  0.2522E+02
 MRCHDU: Convergence failed at  39  side 1    Res =  0.2638E+02
 MRCHDU: Convergence failed at  40  side 1    Res =  0.1018E+03
 MRCHDU: Convergence failed at  41  side 1    Res =  0.6108E+02
 MRCHDU: Convergence failed at  42  side 1    Res =  0.1069E+03
 MRCHDU: Convergence failed at  43  side 1    Res =  0.2972E+02
 MRCHDU: Convergence failed at  44  side 1    Res =  0.3166E+02
 MRCHDU: Convergence failed at  45  side 1    Res =  0.3216E+02
 MRCHDU: Convergence failed at  46  side 1    Res =  0.3262E+02
 MRCHDU: Convergence failed at  47  side 1    Res =  0.3287E+02
 MRCHDU: Convergence failed at  48  side 1    Res =  0.3274E+02
 MRCHDU: Convergence failed at  49  side 1    Res =  0.3215E+02
 MRCHDU: Convergence failed at  50  side 1    Res =  0.3073E+02
 MRCHDU: Convergence failed at  51  side 1    Res =  0.3230E+02
 MRCHDU: Convergence failed at  52  side 1    Res =  0.2299E+02
 MRCHDU: Convergence failed at  53  side 1    Res =  0.2171E+02
 MRCHDU: Convergence failed at  54  side 1    Res =  0.2037E+02
 MRCHDU: Convergence failed at  55  side 1    Res =  0.1923E+02
 MRCHDU: Convergence failed at  56  side 1    Res =  0.1630E+02
 MRCHDU: Convergence failed at  57  side 1    Res =  0.1737E+02
 MRCHDU: Convergence failed at  58  side 1    Res =  0.1864E+02
 MRCHDU: Convergence failed at  59  side 1    Res =  0.2152E+02
 MRCHDU: Convergence failed at  60  side 1    Res =  0.7468E+02
 MRCHDU: Convergence failed at  61  side 1    Res =  0.4943E+02
 MRCHDU: Convergence failed at  62  side 1    Res =  0.4680E+02
 MRCHDU: Convergence failed at  63  side 1    Res =  0.5180E+02
 MRCHDU: Convergence failed at  64  side 1    Res =  0.4366E+02
 MRCHDU: Convergence failed at  65  side 1    Res =  0.5112E+02
 MRCHDU: Convergence failed at  66  side 1    Res =  0.2367E+03
 MRCHDU: Convergence failed at  67  side 1    Res =  0.2113E+03
 MRCHDU: Convergence failed at  68  side 1    Res =  0.4549E+03
 MRCHDU: Convergence failed at  69  side 1    Res =  0.1899E+03
 MRCHDU: Convergence failed at  70  side 1    Res =  0.1257E+03
 MRCHDU: Convergence failed at  71  side 1    Res =  0.9443E+02
 MRCHDU: Convergence failed at  72  side 1    Res =  0.1362E+03
 MRCHDU: Convergence failed at  73  side 1    Res =  0.4158E+03
 MRCHDU: Convergence failed at  74  side 1    Res =  0.2118E+03
 MRCHDU: Convergence failed at  75  side 1    Res =  0.1447E+03
 MRCHDU: Convergence failed at  76  side 1    Res =  0.1125E+03
 MRCHDU: Convergence failed at  77  side 1    Res =  0.9268E+02
 MRCHDU: Convergence failed at  78  side 1    Res =  0.1047E+03
 MRCHDU: Convergence failed at  79  side 1    Res =  0.3286E+02
 MRCHDU: Convergence failed at  80  side 1    Res =  0.3081E+02
 MRCHDU: Convergence failed at  81  side 1    Res =  0.2870E+02
 MRCHDU: Convergence failed at  82  side 1    Res =  0.2690E+02
 MRCHDU: Convergence failed at  83  side 1    Res =  0.2541E+02
 MRCHDU: Convergence failed at  84  side 1    Res =  0.2336E+02
 MRCHDU: Convergence failed at  85  side 1    Res =  0.3563E+02
 MRCHDU: Convergence failed at  86  side 1    Res =  0.3637E+02
 MRCHDU: Convergence failed at  87  side 1    Res =  0.9278E+02
 Side 1  free  transition at x/c =  0.0288   15
 Side 2 forced transition at x/c =  1.0000   75

   2   rms: 0.1183E+01   max: 0.4771E+01   D at   77  2   RLX: 0.186
       a =  7.000      CL =  2.1758
      Cm = -0.4788     CD =  0.00493   =>   CDf =  0.00171    CDp =  0.00322

 MRCHDU: Convergence failed at  62  side 1    Res =  0.9681E-01
 MRCHDU: Convergence failed at  63  side 1    Res =  0.3641E+01
 MRCHDU: Convergence failed at  64  side 1    Res =  0.3514E+01
 MRCHDU: Convergence failed at  65  side 1    Res =  0.3382E+01
 MRCHDU: Convergence failed at  66  side 1    Res =  0.4764E+01
 Side 1  free  transition at x/c =  0.0399   16
 Side 2 forced transition at x/c =  1.0000   75

   3   rms: 0.5720E+00   max: -.6008E+00   D at   76  2   RLX: 0.372
       a =  7.000      CL =  1.4175
      Cm = -0.2163     CD =  0.02214   =>   CDf =  0.00737    CDp =  0.01477

 MRCHDU: Convergence failed at  62  side 1    Res =  0.6609E-01
 Side 1  free  transition at x/c =  0.0335   16
 Side 2 forced transition at x/c =  1.0000   75

   4   rms: 0.5103E+00   max: -.2107E+01   D at   21  1   RLX: 0.228
       a =  7.000      CL =  1.2706
      Cm = -0.1617     CD =  0.02188   =>   CDf =  0.00681    CDp =  0.01506

 MRCHDU: Convergence failed at  16  side 1    Res =  0.4047E+01
 MRCHDU: Convergence failed at  17  side 1    Res =  0.2522E+01
 MRCHDU: Convergence failed at  18  side 1    Res =  0.1078E+02
 MRCHDU: Convergence failed at  20  side 1    Res =  0.5942E+00
 MRCHDU: Convergence failed at  21  side 1    Res =  0.1543E+01
 MRCHDU: Convergence failed at  62  side 1    Res =  0.3951E-01
 Side 1  free  transition at x/c =  0.0288   15
 Side 2 forced transition at x/c =  1.0000   75

   5   rms: 0.5675E+00   max: 0.3141E+01   T at   15  1   RLX: 0.173
       a =  7.000      CL =  1.2427
      Cm = -0.1248     CD =  0.02151   =>   CDf =  0.00621    CDp =  0.01531

 MRCHDU: Convergence failed at  29  side 1    Res =  0.8017E+00
 MRCHDU: Convergence failed at  30  side 1    Res =  0.1717E+01
 MRCHDU: Convergence failed at  31  side 1    Res =  0.4543E+00
 MRCHDU: Convergence failed at  32  side 1    Res =  0.1398E+01
 MRCHDU: Convergence failed at  33  side 1    Res =  0.9670E+00
 MRCHDU: Convergence failed at  34  side 1    Res =  0.3514E+01
 Side 1  free  transition at x/c =  0.0229   15
 Side 2 forced transition at x/c =  1.0000   75

   6   rms: 0.6140E+00   max: -.3092E+01   D at   44  1   RLX: 0.162
       a =  7.000      CL =  1.2715
      Cm = -0.1093     CD =  0.02087   =>   CDf =  0.00792    CDp =  0.01294

 Side 1  free  transition at x/c =  0.0221   15
 Side 2 forced transition at x/c =  1.0000   75

   7   rms: 0.6073E+00   max: -.2381E+01   D at   51  1   RLX: 0.210
       a =  7.000      CL =  1.1759
      Cm = -0.0863     CD =  0.01864   =>   CDf =  0.00772    CDp =  0.01092

 MRCHDU: Convergence failed at  62  side 1    Res =  0.2874E-01
 Side 1  free  transition at x/c =  0.0236   15
 Side 2 forced transition at x/c =  1.0000   75

   8   rms: 0.3648E+00   max: -.1490E+01   D at   55  1   RLX: 0.336
       a =  7.000      CL =  1.0452
      Cm = -0.0582     CD =  0.01782   =>   CDf =  0.00794    CDp =  0.00988

 Side 1  free  transition at x/c =  0.0243   15
 Side 2 forced transition at x/c =  1.0000   75

   9   rms: 0.2744E+00   max: 0.1012E+01   D at   62  1   RLX: 0.557
       a =  7.000      CL =  0.9212
      Cm = -0.0298     CD =  0.01735   =>   CDf =  0.00775    CDp =  0.00960

 Side 1  free  transition at x/c =  0.0218   15
 Side 2 forced transition at x/c =  1.0000   75

  10   rms: 0.2736E+00   max: 0.1234E+01   D at   62  1
       a =  7.000      CL =  0.8433
      Cm = -0.0219     CD =  0.02162   =>   CDf =  0.00782    CDp =  0.01380

 MRCHDU: Convergence failed at  15  side 1    Res =  0.2228E+02
 MRCHDU: Convergence failed at  16  side 1    Res =  0.1836E+02
 MRCHDU: Convergence failed at  17  side 1    Res =  0.3687E+02
 MRCHDU: Convergence failed at  18  side 1    Res =  0.3241E+03
 MRCHDU: Convergence failed at  19  side 1    Res =  0.1745E+03
 MRCHDU: Convergence failed at  20  side 1    Res =  0.1615E+03
 MRCHDU: Convergence failed at  21  side 1    Res =  0.1138E+03
 MRCHDU: Convergence failed at  22  side 1    Res =  0.9501E+02
 MRCHDU: Convergence failed at  23  side 1    Res =  0.7506E+02
 MRCHDU: Convergence failed at  24  side 1    Res =  0.6170E+02
 MRCHDU: Convergence failed at  25  side 1    Res =  0.5242E+02
 MRCHDU: Convergence failed at  26  side 1    Res =  0.1808E+03
 MRCHDU: Convergence failed at  27  side 1    Res =  0.1839E+03
 MRCHDU: Convergence failed at  28  side 1    Res =  0.4385E+02
 MRCHDU: Convergence failed at  29  side 1    Res =  0.7443E+02
 MRCHDU: Convergence failed at  30  side 1    Res =  0.8432E+02
 MRCHDU: Convergence failed at  31  side 1    Res =  0.7028E+02
 MRCHDU: Convergence failed at  32  side 1    Res =  0.5818E+02
 MRCHDU: Convergence failed at  33  side 1    Res =  0.5548E+02
 MRCHDU: Convergence failed at  34  side 1    Res =  0.5475E+02
 MRCHDU: Convergence failed at  35  side 1    Res =  0.5363E+02
 MRCHDU: Convergence failed at  36  side 1    Res =  0.5259E+02
 MRCHDU: Convergence failed at  37  side 1    Res =  0.4700E+02
 MRCHDU: Convergence failed at  38  side 1    Res =  0.5980E+03
 MRCHDU: Convergence failed at  39  side 1    Res =  0.2782E+03
 MRCHDU: Convergence failed at  40  side 1    Res =  0.6632E+02
 MRCHDU: Convergence failed at  41  side 1    Res =  0.5903E+02
 MRCHDU: Convergence failed at  42  side 1    Res =  0.2417E+03
 MRCHDU: Convergence failed at  43  side 1    Res =  0.1149E+03
 MRCHDU: Convergence failed at  44  side 1    Res =  0.3854E+02
 MRCHDU: Convergence failed at  45  side 1    Res =  0.4227E+02
 MRCHDU: Convergence failed at  46  side 1    Res =  0.3376E+02
 MRCHDU: Convergence failed at  47  side 1    Res =  0.4558E+02
 MRCHDU: Convergence failed at  48  side 1    Res =  0.3504E+02
 MRCHDU: Convergence failed at  49  side 1    Res =  0.4719E+02
 MRCHDU: Convergence failed at  50  side 1    Res =  0.1910E+03
 MRCHDU: Convergence failed at  51  side 1    Res =  0.6588E+02
 MRCHDU: Convergence failed at  52  side 1    Res =  0.5265E+02
 MRCHDU: Convergence failed at  53  side 1    Res =  0.6041E+02
 MRCHDU: Convergence failed at  54  side 1    Res =  0.6818E+02
 MRCHDU: Convergence failed at  55  side 1    Res =  0.7314E+02
 MRCHDU: Convergence failed at  56  side 1    Res =  0.8895E+02
 MRCHDU: Convergence failed at  57  side 1    Res =  0.8965E+02
 MRCHDU: Convergence failed at  58  side 1    Res =  0.4160E+02
 MRCHDU: Convergence failed at  59  side 1    Res =  0.4370E+02
 MRCHDU: Convergence failed at  60  side 1    Res =  0.3179E+03
 MRCHDU: Convergence failed at  61  side 1    Res =  0.3239E+02
 MRCHDU: Convergence failed at  62  side 1    Res =  0.4954E+02
 MRCHDU: Convergence failed at  63  side 1    Res =  0.9122E+02
 MRCHDU: Convergence failed at  64  side 1    Res =  0.1294E+03
 MRCHDU: Convergence failed at  65  side 1    Res =  0.4421E+03
 MRCHDU: Convergence failed at  66  side 1    Res =  0.9267E+05
 MRCHDU: Convergence failed at  67  side 1    Res =  0.1196E+03
 MRCHDU: Convergence failed at  68  side 1    Res =  0.4049E+02
 MRCHDU: Convergence failed at  69  side 1    Res =  0.3260E+02
 MRCHDU: Convergence failed at  70  side 1    Res =  0.3516E+02
 MRCHDU: Convergence failed at  71  side 1    Res =  0.3260E+02
 MRCHDU: Convergence failed at  72  side 1    Res =  0.3439E+02
 MRCHDU: Convergence failed at  73  side 1    Res =  0.3617E+02
 MRCHDU: Convergence failed at  74  side 1    Res =  0.3792E+02
 MRCHDU: Convergence failed at  75  side 1    Res =  0.3967E+02
 MRCHDU: Convergence failed at  76  side 1    Res =  0.4136E+02
 MRCHDU: Convergence failed at  77  side 1    Res =  0.4307E+02
 MRCHDU: Convergence failed at  78  side 1    Res =  0.5356E+03
 MRCHDU: Convergence failed at  79  side 1    Res =  0.3929E+03
 MRCHDU: Convergence failed at  80  side 1    Res =  0.3191E+03
 MRCHDU: Convergence failed at  81  side 1    Res =  0.2619E+03
 MRCHDU: Convergence failed at  82  side 1    Res =  0.2172E+03
 MRCHDU: Convergence failed at  83  side 1    Res =  0.1851E+03
 MRCHDU: Convergence failed at  84  side 1    Res =  0.1608E+03
 MRCHDU: Convergence failed at  85  side 1    Res =  0.1389E+03
 MRCHDU: Convergence failed at  86  side 1    Res =  0.1205E+03
 MRCHDU: Convergence failed at  87  side 1    Res =  0.1032E+03
 Side 1  free  transition at x/c =  0.0176   14
 Side 2 forced transition at x/c =  1.0000   75

  11   rms: 0.1921E+01   max: 0.1465E+02   D at   77  2   RLX: 0.102
       a =  7.000      CL =  2.6715
      Cm = -0.6255     CD =  0.00550   =>   CDf =  0.00176    CDp =  0.00374

 MRCHDU: Convergence failed at  57  side 1    Res =  0.3326E+00
 MRCHDU: Convergence failed at  58  side 1    Res =  0.3243E+00
 MRCHDU: Convergence failed at  59  side 1    Res =  0.3154E+00
 MRCHDU: Convergence failed at  60  side 1    Res =  0.3069E+00
 MRCHDU: Convergence failed at  61  side 1    Res =  0.2984E+00
 MRCHDU: Convergence failed at  62  side 1    Res =  0.2894E+00
 MRCHDU: Convergence failed at  63  side 1    Res =  0.2807E+00
 MRCHDU: Convergence failed at  64  side 1    Res =  0.2719E+00
 MRCHDU: Convergence failed at  65  side 1    Res =  0.2632E+00
 MRCHDU: Convergence failed at  66  side 1    Res =  0.2549E+00
 MRCHDU: Convergence failed at  67  side 1    Res =  0.2469E+00
 MRCHDU: Convergence failed at  68  side 1    Res =  0.2391E+00
 MRCHDU: Convergence failed at  69  side 1    Res =  0.2322E+00
 MRCHDU: Convergence failed at  70  side 1    Res =  0.2258E+00
 MRCHDU: Convergence failed at  71  side 1    Res =  0.2200E+00
 MRCHDU: Convergence failed at  72  side 1    Res =  0.2151E+00
 MRCHDU: Convergence failed at  73  side 1    Res =  0.2114E+00
 MRCHDU: Convergence failed at  74  side 1    Res =  0.2091E+00
 MRCHDU: Convergence failed at  75  side 1    Res =  0.2083E+00
 MRCHDU: Convergence failed at  76  side 1    Res =  0.2094E+00
 MRCHDU: Convergence failed at  77  side 1    Res =  0.2126E+00
 MRCHDU: Convergence failed at  78  side 1    Res =  0.2163E+00
 MRCHDU: Convergence failed at  79  side 1    Res =  0.2222E+00
 MRCHDU: Convergence failed at  80  side 1    Res =  0.2309E+00
 MRCHDU: Convergence failed at  81  side 1    Res =  0.2404E+00
 MRCHDU: Convergence failed at  82  side 1    Res =  0.2505E+00
 MRCHDU: Convergence failed at  83  side 1    Res =  0.2635E+00
 MRCHDU: Convergence failed at  84  side 1    Res =  0.2781E+00
 MRCHDU: Convergence failed at  85  side 1    Res =  0.2889E+00
 MRCHDU: Convergence failed at  86  side 1    Res =  0.2933E+00
 MRCHDU: Convergence failed at  87  side 1    Res =  0.2346E+00
 Side 1  free  transition at x/c =  0.0204   14
 Side 2 forced transition at x/c =  1.0000   75

  12   rms: 0.4360E+01   max: 0.2751E+02   T at   15  1   RLX: 0.041
       a =  7.000      CL =  1.5293
      Cm = -0.2752     CD =  0.04200   =>   CDf =  0.00225    CDp =  0.03975

 MRCHDU: Convergence failed at  15  side 1    Res =  0.1662E+01
 MRCHDU: Convergence failed at  16  side 1    Res =  0.1043E+01
 MRCHDU: Convergence failed at  17  side 1    Res =  0.1760E+01
 MRCHDU: Convergence failed at  18  side 1    Res =  0.2752E+01
 MRCHDU: Convergence failed at  19  side 1    Res =  0.3153E+01
 MRCHDU: Convergence failed at  20  side 1    Res =  0.3830E+01
 MRCHDU: Convergence failed at  21  side 1    Res =  0.4834E+01
 MRCHDU: Convergence failed at  22  side 1    Res =  0.5918E+01
 MRCHDU: Convergence failed at  23  side 1    Res =  0.7794E+01
 MRCHDU: Convergence failed at  24  side 1    Res =  0.1033E+02
 MRCHDU: Convergence failed at  25  side 1    Res =  0.1509E+02
 MRCHDU: Convergence failed at  26  side 1    Res =  0.2777E+02
 MRCHDU: Convergence failed at  27  side 1    Res =  0.7305E+02
 MRCHDU: Convergence failed at  28  side 1    Res =  0.8875E+02
 MRCHDU: Convergence failed at  29  side 1    Res =  0.2914E+02
 MRCHDU: Convergence failed at  30  side 1    Res =  0.1718E+02
 MRCHDU: Convergence failed at  31  side 1    Res =  0.1312E+02
 MRCHDU: Convergence failed at  32  side 1    Res =  0.1031E+02
 MRCHDU: Convergence failed at  33  side 1    Res =  0.8959E+01
 MRCHDU: Convergence failed at  34  side 1    Res =  0.8249E+01
 MRCHDU: Convergence failed at  35  side 1    Res =  0.7215E+01
 MRCHDU: Convergence failed at  36  side 1    Res =  0.5170E+01
 MRCHDU: Convergence failed at  37  side 1    Res =  0.5460E+01
 MRCHDU: Convergence failed at  38  side 1    Res =  0.5737E+01
 MRCHDU: Convergence failed at  39  side 1    Res =  0.6069E+01
 MRCHDU: Convergence failed at  40  side 1    Res =  0.6005E+01
 MRCHDU: Convergence failed at  41  side 1    Res =  0.5774E+01
 MRCHDU: Convergence failed at  42  side 1    Res =  0.5578E+01
 MRCHDU: Convergence failed at  43  side 1    Res =  0.5762E+01
 MRCHDU: Convergence failed at  44  side 1    Res =  0.5883E+01
 MRCHDU: Convergence failed at  45  side 1    Res =  0.6572E+01
 MRCHDU: Convergence failed at  46  side 1    Res =  0.8205E+01
 MRCHDU: Convergence failed at  47  side 1    Res =  0.9653E+01
 MRCHDU: Convergence failed at  48  side 1    Res =  0.1236E+02
 MRCHDU: Convergence failed at  49  side 1    Res =  0.1448E+02
 MRCHDU: Convergence failed at  50  side 1    Res =  0.1910E+02
 MRCHDU: Convergence failed at  51  side 1    Res =  0.3804E+02
 MRCHDU: Convergence failed at  52  side 1    Res =  0.2544E+02
 MRCHDU: Convergence failed at  53  side 1    Res =  0.1269E+02
 MRCHDU: Convergence failed at  54  side 1    Res =  0.5752E+01
 MRCHDU: Convergence failed at  55  side 1    Res =  0.1245E+02
 MRCHDU: Convergence failed at  56  side 1    Res =  0.3551E+02
 MRCHDU: Convergence failed at  57  side 1    Res =  0.3234E+02
 MRCHDU: Convergence failed at  58  side 1    Res =  0.2944E+02
 MRCHDU: Convergence failed at  59  side 1    Res =  0.2680E+02
 MRCHDU: Convergence failed at  60  side 1    Res =  0.2425E+02
 MRCHDU: Convergence failed at  61  side 1    Res =  0.2225E+02
 MRCHDU: Convergence failed at  62  side 1    Res =  0.2060E+02
 MRCHDU: Convergence failed at  63  side 1    Res =  0.1912E+02
 MRCHDU: Convergence failed at  64  side 1    Res =  0.1366E+02
 MRCHDU: Convergence failed at  65  side 1    Res =  0.1325E+02
 MRCHDU: Convergence failed at  66  side 1    Res =  0.1280E+02
 MRCHDU: Convergence failed at  67  side 1    Res =  0.1235E+02
 MRCHDU: Convergence failed at  68  side 1    Res =  0.1196E+02
 MRCHDU: Convergence failed at  69  side 1    Res =  0.1162E+02
 MRCHDU: Convergence failed at  70  side 1    Res =  0.1136E+02
 MRCHDU: Convergence failed at  71  side 1    Res =  0.1100E+02
 MRCHDU: Convergence failed at  72  side 1    Res =  0.1069E+02
 MRCHDU: Convergence failed at  73  side 1    Res =  0.9318E+01
 MRCHDU: Convergence failed at  74  side 1    Res =  0.9149E+01
 MRCHDU: Convergence failed at  75  side 1    Res =  0.7559E+01
 MRCHDU: Convergence failed at  76  side 1    Res =  0.7472E+01
 MRCHDU: Convergence failed at  77  side 1    Res =  0.7403E+01
 MRCHDU: Convergence failed at  78  side 1    Res =  0.7309E+01
 MRCHDU: Convergence failed at  79  side 1    Res =  0.7229E+01
 MRCHDU: Convergence failed at  80  side 1    Res =  0.7156E+01
 MRCHDU: Convergence failed at  81  side 1    Res =  0.7054E+01
 MRCHDU: Convergence failed at  82  side 1    Res =  0.6980E+01
 MRCHDU: Convergence failed at  83  side 1    Res =  0.6905E+01
 MRCHDU: Convergence failed at  84  side 1    Res =  0.6811E+01
 MRCHDU: Convergence failed at  85  side 1    Res =  0.6581E+01
 MRCHDU: Convergence failed at  86  side 1    Res =  0.5780E+01
 MRCHDU: Convergence failed at  87  side 1    Res =  0.4183E+01
 Side 1  free  transition at x/c =  0.0279   15
 Side 2 forced transition at x/c =  1.0000   75

  13   rms: 0.1336E+01   max: 0.2244E+01   D at   77  2   RLX: 0.349
       a =  7.000      CL =  2.3553
      Cm = -0.4841     CD =  0.00480   =>   CDf =  0.00147    CDp =  0.00333

 Side 1  free  transition at x/c =  0.0265   15
 Side 2 forced transition at x/c =  1.0000   75

  14   rms: 0.7056E+00   max: 0.6867E+00   C at   75  2   RLX: 0.353
       a =  7.000      CL =  1.7141
      Cm = -0.2647     CD =  0.01147   =>   CDf =  0.01233    CDp = -0.00087

 MRCHDU: Convergence failed at  15  side 1    Res =  0.5042E+01
 MRCHDU: Convergence failed at  16  side 1    Res =  0.5075E+01
 MRCHDU: Convergence failed at  17  side 1    Res =  0.3669E+01
 MRCHDU: Convergence failed at  18  side 1    Res =  0.3688E+01
 MRCHDU: Convergence failed at  19  side 1    Res =  0.4228E+01
 MRCHDU: Convergence failed at  20  side 1    Res =  0.5968E+01
 MRCHDU: Convergence failed at  21  side 1    Res =  0.6833E+01
 MRCHDU: Convergence failed at  22  side 1    Res =  0.7823E+01
 MRCHDU: Convergence failed at  23  side 1    Res =  0.9099E+01
 MRCHDU: Convergence failed at  24  side 1    Res =  0.1051E+02
 MRCHDU: Convergence failed at  25  side 1    Res =  0.1202E+02
 MRCHDU: Convergence failed at  26  side 1    Res =  0.1406E+02
 MRCHDU: Convergence failed at  27  side 1    Res =  0.1689E+02
 MRCHDU: Convergence failed at  28  side 1    Res =  0.2056E+02
 MRCHDU: Convergence failed at  29  side 1    Res =  0.2579E+02
 MRCHDU: Convergence failed at  30  side 1    Res =  0.3392E+02
 MRCHDU: Convergence failed at  31  side 1    Res =  0.8433E+02
 MRCHDU: Convergence failed at  32  side 1    Res =  0.2229E+03
 MRCHDU: Convergence failed at  33  side 1    Res =  0.4298E+02
 MRCHDU: Convergence failed at  34  side 1    Res =  0.3903E+02
 MRCHDU: Convergence failed at  35  side 1    Res =  0.3648E+02
 MRCHDU: Convergence failed at  36  side 1    Res =  0.3481E+02
 MRCHDU: Convergence failed at  37  side 1    Res =  0.3557E+02
 MRCHDU: Convergence failed at  38  side 1    Res =  0.3550E+02
 MRCHDU: Convergence failed at  39  side 1    Res =  0.3513E+02
 MRCHDU: Convergence failed at  40  side 1    Res =  0.3381E+02
 MRCHDU: Convergence failed at  41  side 1    Res =  0.3296E+02
 MRCHDU: Convergence failed at  42  side 1    Res =  0.3267E+02
 MRCHDU: Convergence failed at  43  side 1    Res =  0.3240E+02
 MRCHDU: Convergence failed at  44  side 1    Res =  0.3210E+02
 MRCHDU: Convergence failed at  45  side 1    Res =  0.3190E+02
 MRCHDU: Convergence failed at  46  side 1    Res =  0.3174E+02
 MRCHDU: Convergence failed at  47  side 1    Res =  0.3179E+02
 MRCHDU: Convergence failed at  48  side 1    Res =  0.3195E+02
 MRCHDU: Convergence failed at  49  side 1    Res =  0.3242E+02
 MRCHDU: Convergence failed at  50  side 1    Res =  0.3349E+02
 MRCHDU: Convergence failed at  51  side 1    Res =  0.3649E+02
 MRCHDU: Convergence failed at  52  side 1    Res =  0.4900E+02
 MRCHDU: Convergence failed at  53  side 1    Res =  0.4727E+02
 MRCHDU: Convergence failed at  54  side 1    Res =  0.1846E+04
 MRCHDU: Convergence failed at  55  side 1    Res =  0.5695E+03
 MRCHDU: Convergence failed at  56  side 1    Res =  0.5124E+02
 MRCHDU: Convergence failed at  57  side 1    Res =  0.6593E+02
 MRCHDU: Convergence failed at  58  side 1    Res =  0.3572E+02
 MRCHDU: Convergence failed at  59  side 1    Res =  0.2784E+02
 MRCHDU: Convergence failed at  60  side 1    Res =  0.5032E+02
[...]
       a = 12.750      CL =  0.4365
      Cm = -0.0079     CD =*********   =>   CDf =  0.00285    CDp =*********

 MRCHDU: Convergence failed at  95  side 2    Res =  0.2043E-01
 MRCHDU: Convergence failed at  96  side 2    Res =  0.7091E-01
 Side 1  free  transition at x/c =  0.0202   14
 Side 2 forced transition at x/c =  1.0000   75

 101   rms: 0.2011E+02   max: -.1267E+03   C at   94  2   RLX: 0.004
       a = 12.750      CL =  0.4363
      Cm = -0.0079     CD =496.99640   =>   CDf =  0.00284    CDp =496.99356

 MRCHDU: Convergence failed at  95  side 2    Res =  0.1926E-01
 MRCHDU: Convergence failed at  96  side 2    Res =  0.1061E+00
 MRCHDU: Convergence failed at  97  side 2    Res =  0.1789E+00
 Side 1  free  transition at x/c =  0.0202   14
 Side 2 forced transition at x/c =  1.0000   75

 102   rms: 0.8836E+02   max: -.5269E+03   C at   87  1   RLX: 0.001
       a = 12.750      CL =  0.4364
      Cm = -0.0079     CD =*********   =>   CDf =  0.00284    CDp =*********

 MRCHDU: Convergence failed at  95  side 2    Res =  0.1837E-01
 MRCHDU: Convergence failed at  96  side 2    Res =  0.3760E-01
 MRCHDU: Convergence failed at  97  side 2    Res =  0.1606E-01
 Side 1  free  transition at x/c =  0.0202   14
 Side 2 forced transition at x/c =  1.0000   75

 103   rms: 0.8586E+01   max: 0.1919E+03   T at   97  2   RLX: 0.008
       a = 12.750      CL =  0.4337
      Cm = -0.0081     CD =*********   =>   CDf =  0.00284    CDp =*********

 MRCHDU: Convergence failed at  95  side 2    Res =  0.1813E-01
 MRCHDU: Convergence failed at  96  side 2    Res =  0.6520E-01
 Side 1  free  transition at x/c =  0.0202   14
 Side 2 forced transition at x/c =  1.0000   75

 104   rms: 0.1133E+03   max: -.7088E+03   C at   87  1   RLX: 0.001
       a = 12.750      CL =  0.4334
      Cm = -0.0081     CD =*********   =>   CDf =  0.00282    CDp =*********

 MRCHDU: Convergence failed at  95  side 2    Res =  0.1730E-01
 MRCHDU: Convergence failed at  96  side 2    Res =  0.6971E-01
 Side 1  free  transition at x/c =  0.0202   14
 Side 2 forced transition at x/c =  1.0000   75

 105   rms: 0.1076E+02   max: -.8453E+02   C at   87  1   RLX: 0.006
       a = 12.750      CL =  0.4337
      Cm = -0.0082     CD =967.20679   =>   CDf =  0.00281    CDp =967.20398

 MRCHDU: Convergence failed at  95  side 2    Res =  0.1679E-01
 MRCHDU: Convergence failed at  96  side 2    Res =  0.7292E-01
 Side 1  free  transition at x/c =  0.0202   14
 Side 2 forced transition at x/c =  1.0000   75

 106   rms: 0.1719E+02   max: 0.1098E+03   C at   94  2   RLX: 0.014
       a = 12.750      CL =  0.4355
      Cm = -0.0084     CD =*********   =>   CDf =  0.00281    CDp =*********

 MRCHDU: Convergence failed at  95  side 2    Res =  0.1733E-01
 MRCHDU: Convergence failed at  96  side 2    Res =  0.5092E-01
 MRCHDU: Convergence failed at  97  side 2    Res =  0.1971E+00
 Side 1  free  transition at x/c =  0.0201   14
 Side 2 forced transition at x/c =  1.0000   75

 107   rms: 0.1101E+03   max: 0.2047E+04   T at   97  2   RLX: 0.001
       a = 12.750      CL =  0.4321
      Cm = -0.0084     CD =506.58292   =>   CDf =  0.00281    CDp =506.58011

 MRCHDU: Convergence failed at  95  side 2    Res =  0.1792E-01
 MRCHDU: Convergence failed at  96  side 2    Res =  0.3880E-01
 MRCHDU: Convergence failed at  97  side 2    Res =  0.3478E+00
 Side 1  free  transition at x/c =  0.0202   14
 Side 2 forced transition at x/c =  1.0000   75

 108   rms: 0.4865E+02   max: 0.5079E+03   T at   97  2   RLX: 0.002
       a = 12.750      CL =  0.4306
      Cm = -0.0084     CD =*********   =>   CDf =  0.00279    CDp =*********

 MRCHDU: Convergence failed at  95  side 2    Res =  0.1733E-01
 MRCHDU: Convergence failed at  96  side 2    Res =  0.4285E-01
 MRCHDU: Convergence failed at  97  side 2    Res =  0.1032E+00
 Side 1  free  transition at x/c =  0.0202   14
 Side 2 forced transition at x/c =  1.0000   75

 109   rms: 0.1257E+04   max: 0.8999E+04   C at   87  1   RLX: 0.000
       a = 12.750      CL =  0.4315
      Cm = -0.0084     CD =*********   =>   CDf =  0.00278    CDp =*********

 MRCHDU: Convergence failed at  95  side 2    Res =  0.1786E-01
 MRCHDU: Convergence failed at  96  side 2    Res =  0.4228E-01
 MRCHDU: Convergence failed at  97  side 2    Res =  0.5937E-02
 Side 1  free  transition at x/c =  0.0202   14
 Side 2 forced transition at x/c =  1.0000   75

 110   rms: 0.2847E+03   max: -.1908E+04   C at   87  1   RLX: 0.000
       a = 12.750      CL =  0.4312
      Cm = -0.0084     CD =*********   =>   CDf =  0.00279    CDp =*********

 MRCHDU: Convergence failed at  95  side 2    Res =  0.1725E-01
 MRCHDU: Convergence failed at  96  side 2    Res =  0.5040E-01
 MRCHDU: Convergence failed at  97  side 2    Res =  0.1084E-01
 Side 1  free  transition at x/c =  0.0202   14
 Side 2 forced transition at x/c =  1.0000   75

 111   rms: 0.5641E+02   max: -.4319E+03   C at   87  1   RLX: 0.001
       a = 12.750      CL =  0.4309
      Cm = -0.0084     CD =*********   =>   CDf =  0.00278    CDp =*********

 MRCHDU: Convergence failed at  95  side 2    Res =  0.1677E-01
 MRCHDU: Convergence failed at  96  side 2    Res =  0.5420E-01
 MRCHDU: Convergence failed at  97  side 2    Res =  0.1582E-01
 Side 1  free  transition at x/c =  0.0202   14
 Side 2 forced transition at x/c =  1.0000   75

 112   rms: 0.9427E+03   max: 0.8206E+04   C at   87  1   RLX: 0.000
       a = 12.750      CL =  0.4317
      Cm = -0.0084     CD =*********   =>   CDf =  0.00278    CDp =*********

 MRCHDU: Convergence failed at  95  side 2    Res =  0.1843E-01
 MRCHDU: Convergence failed at  96  side 2    Res =  0.4756E-01
 MRCHDU: Convergence failed at  97  side 2    Res =  0.5454E-02
 Side 1  free  transition at x/c =  0.0202   14
 Side 2 forced transition at x/c =  1.0000   75

 113   rms: 0.1542E+03   max: -.1025E+04   C at   87  1   RLX: 0.000
       a = 12.750      CL =  0.4316
      Cm = -0.0084     CD =*********   =>   CDf =  0.00279    CDp =*********

 MRCHDU: Convergence failed at  95  side 2    Res =  0.1776E-01
 MRCHDU: Convergence failed at  96  side 2    Res =  0.5235E-01
 MRCHDU: Convergence failed at  97  side 2    Res =  0.7616E-02
 Side 1  free  transition at x/c =  0.0202   14
 Side 2 forced transition at x/c =  1.0000   75

 114   rms: 0.2167E+03   max: -.1548E+04   C at   87  1   RLX: 0.000
       a = 12.750      CL =  0.4314
      Cm = -0.0084     CD =*********   =>   CDf =  0.00279    CDp =*********

 MRCHDU: Convergence failed at  95  side 2    Res =  0.1719E-01
 MRCHDU: Convergence failed at  96  side 2    Res =  0.5715E-01
 MRCHDU: Convergence failed at  97  side 2    Res =  0.1109E-01
 Side 1  free  transition at x/c =  0.0202   14
 Side 2 forced transition at x/c =  1.0000   75

 115   rms: 0.2935E+03   max: 0.2426E+04   C at   87  1   RLX: 0.001
       a = 12.750      CL =  0.4319
      Cm = -0.0084     CD =*********   =>   CDf =  0.00278    CDp =*********

 MRCHDU: Convergence failed at  95  side 2    Res =  0.1894E-01
 MRCHDU: Convergence failed at  96  side 2    Res =  0.4974E-01
 MRCHDU: Convergence failed at  97  side 2    Res =  0.4597E-02
 Side 1  free  transition at x/c =  0.0202   14
 Side 2 forced transition at x/c =  1.0000   75

 116   rms: 0.2686E+03   max: -.1738E+04   C at   87  1   RLX: 0.000
       a = 12.750      CL =  0.4318
      Cm = -0.0084     CD =*********   =>   CDf =  0.00279    CDp =*********

 MRCHDU: Convergence failed at  95  side 2    Res =  0.1820E-01
 MRCHDU: Convergence failed at  96  side 2    Res =  0.5439E-01
 MRCHDU: Convergence failed at  97  side 2    Res =  0.6175E-02
 Side 1  free  transition at x/c =  0.0202   14
 Side 2 forced transition at x/c =  1.0000   75

 117   rms: 0.1690E+03   max: 0.1168E+04   C at   87  1   RLX: 0.001
       a = 12.750      CL =  0.4323
      Cm = -0.0084     CD =+Infinity   =>   CDf =  0.00279    CDp =+Infinity

 MRCHDU: Convergence failed at  95  side 2    Res =  0.2008E-01
 MRCHDU: Convergence failed at  96  side 2    Res =  0.4337E-01
 MRCHDU: Convergence failed at  97  side 2    Res =  0.1930E-02
 Side 1  free  transition at x/c =  0.0202   14
 Side 2 forced transition at x/c =  1.0000   75

 118   rms: 0.5251E+02   max: 0.3817E+03   T at   97  2   RLX: 0.002
       a = 12.750      CL =  0.4323
      Cm = -0.0084     CD =*********   =>   CDf =  0.00279    CDp =*********

 MRCHDU: Convergence failed at  95  side 2    Res =  0.1903E-01
 MRCHDU: Convergence failed at  96  side 2    Res =  0.6496E-01
 MRCHDU: Convergence failed at  97  side 2    Res =  0.4630E-02
 Side 1  free  transition at x/c =  0.0202   14
 Side 2 forced transition at x/c =  1.0000   75

 119   rms: 0.3929E+02   max: -.2412E+03   C at   86  1   RLX: 0.002
       a = 12.750      CL =  0.4323
      Cm = -0.0085     CD =*********   =>   CDf =  0.00279    CDp =*********

 MRCHDU: Convergence failed at  95  side 2    Res =  0.1815E-01
 MRCHDU: Convergence failed at  96  side 2    Res =  0.7175E-01
 MRCHDU: Convergence failed at  97  side 2    Res =  0.6568E-02
 Side 1  free  transition at x/c =  0.0202   14
 Side 2 forced transition at x/c =  1.0000   75

 120   rms: 0.1158E+03   max: -.8105E+03   C at   87  1   RLX: 0.001
       a = 12.750      CL =  0.4322
      Cm = -0.0085     CD =*********   =>   CDf =  0.00279    CDp =*********

 MRCHDU: Convergence failed at  95  side 2    Res =  0.1756E-01
 MRCHDU: Convergence failed at  96  side 2    Res =  0.7400E-01
 MRCHDU: Convergence failed at  97  side 2    Res =  0.7562E-02
 Side 1  free  transition at x/c =  0.0202   14
 Side 2 forced transition at x/c =  1.0000   75

 121   rms: 0.2467E+03   max: -.1911E+04   C at   87  1   RLX: 0.000
       a = 12.750      CL =  0.4322
      Cm = -0.0085     CD =*********   =>   CDf =  0.00279    CDp =*********

 MRCHDU: Convergence failed at  95  side 2    Res =  0.1709E-01
 MRCHDU: Convergence failed at  96  side 2    Res =  0.7607E-01
 MRCHDU: Convergence failed at  97  side 2    Res =  0.8824E-02
 Side 1  free  transition at x/c =  0.0202   14
 Side 2 forced transition at x/c =  1.0000   75

 122   rms: 0.3417E+03   max: -.3041E+04   C at   87  1   RLX: 0.000
       a = 12.750      CL =  0.4321
      Cm = -0.0085     CD =*********   =>   CDf =  0.00279    CDp =*********

 MRCHDU: Convergence failed at  95  side 2    Res =  0.1676E-01
 MRCHDU: Convergence failed at  96  side 2    Res =  0.7764E-01
 MRCHDU: Convergence failed at  97  side 2    Res =  0.1031E-01
 Side 1  free  transition at x/c =  0.0202   14
 Side 2 forced transition at x/c =  1.0000   75

 123   rms: 0.9703E+02   max: -.1030E+04   C at   87  1   RLX: 0.000
       a = 12.750      CL =  0.4320
      Cm = -0.0085     CD =*********   =>   CDf =  0.00278    CDp =*********

 MRCHDU: Convergence failed at  95  side 2    Res =  0.1653E-01
 MRCHDU: Convergence failed at  96  side 2    Res =  0.7833E-01
 MRCHDU: Convergence failed at  97  side 2    Res =  0.1147E-01
 Side 1  free  transition at x/c =  0.0202   14
 Side 2 forced transition at x/c =  1.0000   75

 124   rms: 0.9631E+02   max: -.1136E+04   C at   87  1   RLX: 0.000
       a = 12.750      CL =  0.4320
      Cm = -0.0085     CD =*********   =>   CDf =  0.00278    CDp =*********

 MRCHDU: Convergence failed at  95  side 2    Res =  0.1633E-01
 MRCHDU: Convergence failed at  96  side 2    Res =  0.7857E-01
 MRCHDU: Convergence failed at  97  side 2    Res =  0.1432E-01
 Side 1  free  transition at x/c =  0.0202   14
 Side 2 forced transition at x/c =  1.0000   75

 125   rms: 0.3323E+03   max: -.4440E+04   C at   87  1   RLX: 0.000
       a = 12.750      CL =  0.4319
      Cm = -0.0085     CD =*********   =>   CDf =  0.00278    CDp =*********

 MRCHDU: Convergence failed at  95  side 2    Res =  0.1622E-01
 MRCHDU: Convergence failed at  96  side 2    Res =  0.7743E-01
 MRCHDU: Convergence failed at  97  side 2    Res =  0.1641E-01
 Side 1  free  transition at x/c =  0.0202   14
 Side 2 forced transition at x/c =  1.0000   75

 126   rms: 0.1657E+03   max: 0.2365E+04   C at   87  1   RLX: 0.001
       a = 12.750      CL =  0.4321
      Cm = -0.0085     CD =*********   =>   CDf =  0.00278    CDp =*********

 MRCHDU: Convergence failed at  95  side 2    Res =  0.1689E-01
 MRCHDU: Convergence failed at  96  side 2    Res =  0.7818E-01
 MRCHDU: Convergence failed at  97  side 2    Res =  0.1235E-01
 Side 1  free  transition at x/c =  0.0202   14
 Side 2 forced transition at x/c =  1.0000   75

 127   rms: 0.4705E+02   max: -.5299E+03   C at   87  1   RLX: 0.001
       a = 12.750      CL =  0.4320
      Cm = -0.0085     CD =*********   =>   CDf =  0.00278    CDp =*********

 MRCHDU: Convergence failed at  95  side 2    Res =  0.1667E-01
 MRCHDU: Convergence failed at  96  side 2    Res =  0.7774E-01
 MRCHDU: Convergence failed at  97  side 2    Res =  0.1486E-01
 Side 1  free  transition at x/c =  0.0202   14
 Side 2 forced transition at x/c =  1.0000   75

 128   rms: 0.5164E+02   max: -.6749E+03   C at   87  1   RLX: 0.001
       a = 12.750      CL =  0.4320
      Cm = -0.0085     CD =*********   =>   CDf =  0.00278    CDp =*********

 MRCHDU: Convergence failed at  95  side 2    Res =  0.1653E-01
 MRCHDU: Convergence failed at  96  side 2    Res =  0.8014E-01
 MRCHDU: Convergence failed at  97  side 2    Res =  0.1697E-01
 Side 1  free  transition at x/c =  0.0202   14
 Side 2 forced transition at x/c =  1.0000   75

 129   rms: 0.3268E+03   max: -.4515E+04   C at   87  1   RLX: 0.000
       a = 12.750      CL =  0.4319
      Cm = -0.0085     CD =*********   =>   CDf =  0.00278    CDp =*********

 MRCHDU: Convergence failed at  95  side 2    Res =  0.1643E-01
 MRCHDU: Convergence failed at  96  side 2    Res =  0.1728E+00
 MRCHDU: Convergence failed at  97  side 2    Res =  0.3178E-01
 Side 1  free  transition at x/c =  0.0202   14
 Side 2 forced transition at x/c =  1.0000   75

 130   rms: 0.3173E+03   max: -.4527E+04   C at   87  1   RLX: 0.000
       a = 12.750      CL =  0.4317
      Cm = -0.0085     CD =*********   =>   CDf =  0.00278    CDp =*********

 MRCHDU: Convergence failed at  95  side 2    Res =  0.1637E-01
 MRCHDU: Convergence failed at  96  side 2    Res =  0.3886E-01
 MRCHDU: Convergence failed at  97  side 2    Res =  0.1422E-01
 Side 1  free  transition at x/c =  0.0202   14
 Side 2 forced transition at x/c =  1.0000   75

 131   rms: 0.1178E+03   max: 0.1752E+04   C at   87  1   RLX: 0.001
       a = 12.750      CL =  0.4313
      Cm = -0.0085     CD =*********   =>   CDf =  0.00278    CDp =*********

 MRCHDU: Convergence failed at  95  side 2    Res =  0.1666E-01
 MRCHDU: Convergence failed at  96  side 2    Res =  0.4195E-01
 MRCHDU: Convergence failed at  97  side 2    Res =  0.2150E-01
 Side 1  free  transition at x/c =  0.0202   14
 Side 2 forced transition at x/c =  1.0000   75

 132   rms: 0.6354E+02   max: -.9644E+03   T at   97  2   RLX: 0.001
       a = 12.750      CL =  0.4325
      Cm = -0.0085     CD =*********   =>   CDf =  0.00278    CDp =*********

 MRCHDU: Convergence failed at  95  side 2    Res =  0.1680E-01
 MRCHDU: Convergence failed at  96  side 2    Res =  0.3635E-01
 MRCHDU: Convergence failed at  97  side 2    Res =  0.6021E-02
 Side 1  free  transition at x/c =  0.0202   14
 Side 2 forced transition at x/c =  1.0000   75

 133   rms: 0.5398E+02   max: -.7487E+03   T at   97  2   RLX: 0.001
       a = 12.750      CL =  0.4331
      Cm = -0.0085     CD =*********   =>   CDf =  0.00278    CDp =*********

 MRCHDU: Convergence failed at  95  side 2    Res =  0.1689E-01
 MRCHDU: Convergence failed at  96  side 2    Res =  0.2800E-01
 MRCHDU: Convergence failed at  97  side 2    Res =  0.1833E-02
 Side 1  free  transition at x/c =  0.0202   14
 Side 2 forced transition at x/c =  1.0000   75

 134   rms: 0.4250E+02   max: -.4595E+03   C at   87  1   RLX: 0.001
       a = 12.750      CL =  0.4333
      Cm = -0.0086     CD =+Infinity   =>   CDf =  0.00279    CDp =+Infinity

 MRCHDU: Convergence failed at  95  side 2    Res =  0.1652E-01
 MRCHDU: Convergence failed at  96  side 2    Res =  0.2368E-01
 MRCHDU: Convergence failed at  97  side 2    Res =  0.1076E-02
 Side 1  free  transition at x/c =  0.0202   14
 Side 2 forced transition at x/c =  1.0000   75

 135   rms: 0.3990E+02   max: -.5458E+03   C at   87  1   RLX: 0.001
       a = 12.750      CL =  0.4333
      Cm = -0.0086     CD =+Infinity   =>   CDf =  0.00279    CDp =+Infinity

 MRCHDU: Convergence failed at  95  side 2    Res =  0.1640E-01
 MRCHDU: Convergence failed at  96  side 2    Res =  0.2347E-01
 MRCHDU: Convergence failed at  97  side 2    Res =  0.1045E-02
 Side 1  free  transition at x/c =  0.0202   14
 Side 2 forced transition at x/c =  1.0000   75

 136   rms: 0.2514E+03   max: -.3573E+04   C at   87  1   RLX: 0.000
       a = 12.750      CL =  0.4333
      Cm = -0.0086     CD =+Infinity   =>   CDf =  0.00279    CDp =+Infinity

 MRCHDU: Convergence failed at  95  side 2    Res =  0.1633E-01
 MRCHDU: Convergence failed at  96  side 2    Res =  0.2314E-01
 MRCHDU: Convergence failed at  97  side 2    Res =  0.1002E-02
 Side 1  free  transition at x/c =  0.0202   14
 Side 2 forced transition at x/c =  1.0000   75

 137   rms: 0.1898E+03   max: -.2769E+04   C at   87  1   RLX: 0.000
       a = 12.750      CL =  0.4333
      Cm = -0.0086     CD =+Infinity   =>   CDf =  0.00279    CDp =+Infinity

 MRCHDU: Convergence failed at  95  side 2    Res =  0.1625E-01
 MRCHDU: Convergence failed at  96  side 2    Res =  0.2267E-01
 MRCHDU: Convergence failed at  97  side 2    Res =  0.9441E-03
 Side 1  free  transition at x/c =  0.0202   14
 Side 2 forced transition at x/c =  1.0000   75

 138   rms: 0.1676E+03   max: 0.2473E+04   C at   87  1   RLX: 0.001
       a = 12.750      CL =  0.4333
      Cm = -0.0086     CD =+Infinity   =>   CDf =  0.00279    CDp =+Infinity

 MRCHDU: Convergence failed at  95  side 2    Res =  0.1668E-01
 MRCHDU: Convergence failed at  96  side 2    Res =  0.2420E-01
 MRCHDU: Convergence failed at  97  side 2    Res =  0.1127E-02
 Side 1  free  transition at x/c =  0.0202   14
 Side 2 forced transition at x/c =  1.0000   75

 139   rms: 0.1728E+02   max: 0.2243E+03   C at   87  1   RLX: 0.007
       a = 12.750      CL =  0.4336
      Cm = -0.0087     CD =+Infinity   =>   CDf =  0.00279    CDp =+Infinity

 MRCHDU: Convergence failed at  95  side 2    Res =  0.1756E-01
 MRCHDU: Convergence failed at  96  side 2    Res =  0.2785E-01
 MRCHDU: Convergence failed at  97  side 2    Res =  0.1573E-02
 Side 1  free  transition at x/c =  0.0201   14
 Side 2 forced transition at x/c =  1.0000   75

 140   rms: 0.1518E+03   max: 0.1516E+04   C at   87  1   RLX: 0.001
       a = 12.750      CL =  0.4334
      Cm = -0.0086     CD =*********   =>   CDf =  0.00278    CDp =*********

 MRCHDU: Convergence failed at  95  side 2    Res =  0.1911E-01
 MRCHDU: Convergence failed at  96  side 2    Res =  0.3221E-01
 MRCHDU: Convergence failed at  97  side 2    Res =  0.2268E-02
 Side 1  free  transition at x/c =  0.0201   14
 Side 2 forced transition at x/c =  1.0000   75

 141   rms: 0.2168E+03   max: -.1534E+04   C at   87  1   RLX: 0.000
       a = 12.750      CL =  0.4336
      Cm = -0.0086     CD =+Infinity   =>   CDf =  0.00278    CDp =+Infinity

 MRCHDU: Convergence failed at  95  side 2    Res =  0.1851E-01
 MRCHDU: Convergence failed at  96  side 2    Res =  0.2735E-01
 MRCHDU: Convergence failed at  97  side 2    Res =  0.1332E-02
 Side 1  free  transition at x/c =  0.0201   14
 Side 2 forced transition at x/c =  1.0000   75

 142   rms: 0.1509E+03   max: -.1218E+04   C at   87  1   RLX: 0.000
       a = 12.750      CL =  0.4336
      Cm = -0.0086     CD =+Infinity   =>   CDf =  0.00278    CDp =+Infinity

 MRCHDU: Convergence failed at  95  side 2    Res =  0.1805E-01
 MRCHDU: Convergence failed at  96  side 2    Res =  0.2558E-01
 MRCHDU: Convergence failed at  97  side 2    Res =  0.1097E-02
 Side 1  free  transition at x/c =  0.0201   14
 Side 2 forced transition at x/c =  1.0000   75

[TIMEOUT]
