
 ===================================================
  XFOIL Version 6.99
  Copyright (C) 2000   Mark Drela, Harold Youngren

  This software comes with ABSOLUTELY NO WARRANTY,
    subject to the GNU General Public License.

  Caveat computor
 ===================================================

 File  xfoil.def  not found

   QUIT    Exit program

  .OPER    Direct operating point(s)
  .MDES    Complex mapping design routine
  .QDES    Surface speed design routine
  .GDES    Geometry design routine

   SAVE f  Write airfoil to labeled coordinate file
   PSAV f  Write airfoil to plain coordinate file
   ISAV f  Write airfoil to ISES coordinate file
   MSAV f  Write airfoil to MSES coordinate file
   REVE    Reverse written-airfoil node ordering

   LOAD f  Read buffer airfoil from coordinate file
   NACA i  Set NACA 4,5-digit airfoil and buffer airfoil
   INTE    Set buffer airfoil by interpolating two airfoils
   NORM    Buffer airfoil normalization toggle
   XYCM rr Change CM reference location, currently  0.25000 0.00000

   BEND    Display structural properties of current airfoil

   PCOP    Set current-airfoil panel nodes directly from buffer airfoil points
   PANE    Set current-airfoil panel nodes ( 160 ) based on curvature
  .PPAR    Show/change paneling

  .PLOP    Plotting options

   WDEF f  Write  current-settings file
   RDEF f  Reread current-settings file
   NAME s  Specify new airfoil name
   NINC    Increment name version number

   Z       Zoom    | (available in all menus)
   U       Unzoom  | 

 XFOIL   c>  
 Labeled airfoil file.  Name:  HQ 1.5/12 AIRFOIL                               

 Number of input coordinate points:  77
 Counterclockwise ordering
 Max thickness =     0.119591  at x =   0.350
 Max camber    =     0.014746  at x =   0.500

  LE  x,y  =  -0.00002   0.00047  |   Chord =   1.00002
  TE  x,y  =   1.00000   0.00000  |

 Current airfoil nodes set from buffer airfoil nodes (  77 )

 WARNING: Poor input coordinate distribution
          Excessive panel angle   43.8  at i =  39
          Repaneling with PANE and/or PPAR suggested
           (doing GDES,CADD before repaneling _may_
            improve excessively coarse LE spacing

 XFOIL   c>  
 XFOIL   c>  
 Sharp trailing edge

 Paneling parameters used...
   Number of panel nodes       160
   Panel bunching parameter    1.000
   TE/LE panel density ratio   0.150
   Refined-area/LE panel density ratio    0.200
   Top    side refined area x/c limits  1.000 1.000
   Bottom side refined area x/c limits  1.000 1.000

 XFOIL   c>  
.OPERi   c>  
 Xtr/c     =  1.0000    top    side
 Xtr/c     =  1.0000    bottom side
 Ncrit     =    9.00   ( 0.070 % turb. level )
 Vacc      =  0.0100

 Klag  =  5.6000     Uxwt  =    1.00
 A     =  6.7000     B     =  0.7500       KCt = 0.01485
 CtiniK=  1.8000     CtiniX=  3.3000

..VPAR   c>  
..VPAR   c>  
.OPERi   c>  
 M  =    0.0000
 Re =    300000

.OPERv   c>  
.OPERv   c>  
.OPERv   c>  
 Polar  1 newly created for accumulation
 Airfoil archived with polar: HQ 1.5/12 AIRFOIL                               

Enter  polar save filename  OR  <return> for no file   s>  
 New polar save file available

Enter  polar dump filename  OR  <return> for no file   s>  
 Polar dump file will NOT be written

 Polar accumulation enabled

.OPERva   c>   Calculating unit vorticity distributions ...
 Calculating wake trajectory ...
 Calculating source influence matrix ...

 Solving BL system ...

 Initializing BL ...
    side            1  ...
 MRCHUE: Inverse mode at  52     Hk =   4.049
 MRCHUE: Inverse mode at  53     Hk =   4.501
 MRCHUE: Inverse mode at  54     Hk =   4.944
 MRCHUE: Inverse mode at  55     Hk =   5.380
 MRCHUE: Inverse mode at  56     Hk =   5.811
 MRCHUE: Inverse mode at  57     Hk =   6.237
 MRCHUE: Inverse mode at  58     Hk =   6.659
 MRCHUE: Inverse mode at  59     Hk =   7.077
 MRCHUE: Inverse mode at  60     Hk =   7.491
 MRCHUE: Inverse mode at  61     Hk =   7.902
 MRCHUE: Inverse mode at  62     Hk =   8.311
 MRCHUE: Inverse mode at  63     Hk =   8.718
 MRCHUE: Inverse mode at  64     Hk =   9.122
 MRCHUE: Inverse mode at  65     Hk =   9.442
 MRCHUE: Inverse mode at  66     Hk =   7.487
 MRCHUE: Inverse mode at  67     Hk =   6.253
 MRCHUE: Inverse mode at  68     Hk =   5.337
 MRCHUE: Inverse mode at  69     Hk =   4.606
 MRCHUE: Inverse mode at  70     Hk =   3.996
 MRCHUE: Inverse mode at  71     Hk =   3.472
    side            2  ...
 MRCHUE: Inverse mode at  32     Hk =   4.240
 MRCHUE: Inverse mode at  33     Hk =   4.900
 MRCHUE: Inverse mode at  34     Hk =   5.543
 MRCHUE: Inverse mode at  35     Hk =   4.798
 MRCHUE: Inverse mode at  36     Hk =   2.500

 Side 1  free  transition at x/c =  0.8537   65
 Side 2  free  transition at x/c =  0.2580   35

   1   rms: 0.2571E+00   max: -.2248E+01   T at   65  1   RLX: 0.222
       a = -4.000      CL = -0.2428
      Cm = -0.0454     CD =  0.01268   =>   CDf =  0.00640    CDp =  0.00628

 MRCHDU: Convergence failed at  68  side 1    Res =  0.1288E+01
 MRCHDU: Convergence failed at  69  side 1    Res =  0.3288E+01
 MRCHDU: Convergence failed at  70  side 1    Res =  0.2767E+01
 MRCHDU: Convergence failed at  71  side 1    Res =  0.9109E+01
 Side 1  free  transition at x/c =  0.8758   67
 Side 2  free  transition at x/c =  0.2673   36

   2   rms: 0.1459E+00   max: -.1381E+01   C at   36  2   RLX: 0.362
       a = -4.000      CL = -0.2303
      Cm = -0.0547     CD =  0.00971   =>   CDf =  0.00626    CDp =  0.00345

 Side 1  free  transition at x/c =  0.8807   67
 Side 2  free  transition at x/c =  0.2803   37

   3   rms: 0.1359E+00   max: -.1492E+01   C at   37  2   RLX: 0.335
       a = -4.000      CL = -0.2354
      Cm = -0.0510     CD =  0.00998   =>   CDf =  0.00640    CDp =  0.00358

 Side 1  free  transition at x/c =  0.8844   68
 Side 2  free  transition at x/c =  0.2934   38

   4   rms: 0.1304E+00   max: -.1523E+01   C at   38  2   RLX: 0.328
       a = -4.000      CL = -0.2349
      Cm = -0.0501     CD =  0.01001   =>   CDf =  0.00632    CDp =  0.00369

 Side 1  free  transition at x/c =  0.8874   68
 Side 2  free  transition at x/c =  0.3094   39

   5   rms: 0.1358E+00   max: -.2042E+01   C at   39  2   RLX: 0.245
       a = -4.000      CL = -0.2327
      Cm = -0.0503     CD =  0.00999   =>   CDf =  0.00616    CDp =  0.00382

 Side 1  free  transition at x/c =  0.8894   68
 Side 2  free  transition at x/c =  0.3209   39

   6   rms: 0.5916E-01   max: -.7734E+00   C at   39  2   RLX: 0.646
       a = -4.000      CL = -0.2230
      Cm = -0.0516     CD =  0.00988   =>   CDf =  0.00609    CDp =  0.00379

 Side 1  free  transition at x/c =  0.8944   68
 Side 2  free  transition at x/c =  0.4140   46

   7   rms: 0.6708E-01   max: -.1150E+01   C at   46  2   RLX: 0.435
       a = -4.000      CL = -0.2246
      Cm = -0.0515     CD =  0.00941   =>   CDf =  0.00562    CDp =  0.00379

 Side 1  free  transition at x/c =  0.8957   68
 Side 2  free  transition at x/c =  0.4252   47

   8   rms: 0.4239E-01   max: -.6962E+00   C at   47  2   RLX: 0.718
       a = -4.000      CL = -0.2212
      Cm = -0.0522     CD =  0.00931   =>   CDf =  0.00555    CDp =  0.00376

 Side 1  free  transition at x/c =  0.8969   68
 Side 2  free  transition at x/c =  0.4384   47

   9   rms: 0.1255E-01   max: -.2165E+00   C at   47  2
       a = -4.000      CL = -0.2188
      Cm = -0.0526     CD =  0.00933   =>   CDf =  0.00544    CDp =  0.00389

 Side 1  free  transition at x/c =  0.8976   68
 Side 2  free  transition at x/c =  0.4487   48

  10   rms: 0.1715E-02   max: 0.2826E-01   C at   48  2
       a = -4.000      CL = -0.2189
      Cm = -0.0526     CD =  0.00933   =>   CDf =  0.00538    CDp =  0.00395

 Side 1  free  transition at x/c =  0.8976   68
 Side 2  free  transition at x/c =  0.4476   48

  11   rms: 0.2127E-04   max: -.3715E-03   C at   48  2
       a = -4.000      CL = -0.2189
      Cm = -0.0526     CD =  0.00933   =>   CDf =  0.00539    CDp =  0.00394
 plradd ia,ip,cpol            1           0  4.52495646E-03

 Point added to stored polar  1
 Point written to save file  hq1512_Re300k.base.pol                          
 Dump file unspecified or not available
 Calculating wake trajectory ...
 Calculating source influence matrix ...

 Solving BL system ...

 Side 1  free  transition at x/c =  0.8976   68
 Side 2  free  transition at x/c =  0.4477   48

   1   rms: 0.1872E+00   max: -.2993E+01   C at   48  2   RLX: 0.167
       a = -3.500      CL = -0.2118
      Cm = -0.0522     CD =  0.00922   =>   CDf =  0.00539    CDp =  0.00384

 Side 1  free  transition at x/c =  0.8937   68
 Side 2  free  transition at x/c =  0.4697   50

   2   rms: 0.1557E+00   max: -.2291E+01   C at   50  2   RLX: 0.218
       a = -3.500      CL = -0.2034
      Cm = -0.0518     CD =  0.00913   =>   CDf =  0.00535    CDp =  0.00378

 Side 1  free  transition at x/c =  0.8903   68
 Side 2  free  transition at x/c =  0.4872   51

   3   rms: 0.1031E+00   max: -.1380E+01   C at   51  2   RLX: 0.362
       a = -3.500      CL = -0.1912
      Cm = -0.0516     CD =  0.00907   =>   CDf =  0.00531    CDp =  0.00377

 Side 1  free  transition at x/c =  0.8867   68
 Side 2  free  transition at x/c =  0.5106   52

   4   rms: 0.4618E-01   max: -.2385E+00   T at   52  2
       a = -3.500      CL = -0.1679
      Cm = -0.0514     CD =  0.00907   =>   CDf =  0.00540    CDp =  0.00367

 MRCHDU: Convergence failed at  56  side 2    Res =  0.1499E+02
 Side 1  free  transition at x/c =  0.8823   68
 Side 2  free  transition at x/c =  0.5805   56

   5   rms: 0.1836E-01   max: 0.1754E+00   D at   52  2
       a = -3.500      CL = -0.1702
      Cm = -0.0508     CD =  0.00895   =>   CDf =  0.00505    CDp =  0.00390

 Side 1  free  transition at x/c =  0.8815   68
 Side 2  free  transition at x/c =  0.5606   55

   6   rms: 0.5595E-02   max: -.7882E-01   D at   55  2
       a = -3.500      CL = -0.1697
      Cm = -0.0509     CD =  0.00900   =>   CDf =  0.00515    CDp =  0.00385

 Side 1  free  transition at x/c =  0.8816   68
 Side 2  free  transition at x/c =  0.5616   55

   7   rms: 0.4891E-03   max: 0.6868E-02   C at   55  2
       a = -3.500      CL = -0.1697
      Cm = -0.0509     CD =  0.00900   =>   CDf =  0.00513    CDp =  0.00387

 Side 1  free  transition at x/c =  0.8816   68
 Side 2  free  transition at x/c =  0.5614   55

   8   rms: 0.2331E-05   max: -.3150E-04   D at   58  2
       a = -3.500      CL = -0.1697
      Cm = -0.0509     CD =  0.00900   =>   CDf =  0.00513    CDp =  0.00387
 plradd ia,ip,cpol            2           0  4.52495646E-03

 Point added to stored polar  1
 Point written to save file  hq1512_Re300k.base.pol                          
 Dump file unspecified or not available
 Calculating wake trajectory ...
 Calculating source influence matrix ...

 Solving BL system ...

 Side 1  free  transition at x/c =  0.8816   68
 Side 2  free  transition at x/c =  0.5614   55

   1   rms: 0.1108E+00   max: -.9188E+00   C at   55  2   RLX: 0.544
       a = -3.000      CL = -0.1435
      Cm = -0.0499     CD =  0.00894   =>   CDf =  0.00513    CDp =  0.00381

 Side 1  free  transition at x/c =  0.8704   68
 Side 2  free  transition at x/c =  0.5844   56

   2   rms: 0.5291E-01   max: -.3825E+00   T at   56  2
       a = -3.000      CL = -0.1154
      Cm = -0.0503     CD =  0.00925   =>   CDf =  0.00530    CDp =  0.00395

 MRCHDU: Convergence failed at  60  side 2    Res =  0.1552E+01
 MRCHDU: Convergence failed at  61  side 2    Res =  0.2706E+01
 MRCHDU: Convergence failed at  62  side 2    Res =  0.4857E+01
 MRCHDU: Convergence failed at  63  side 2    Res =  0.9815E+01
 MRCHDU: Convergence failed at  64  side 2    Res =  0.1862E+02
 MRCHDU: Convergence failed at  65  side 2    Res =  0.3149E+02
 MRCHDU: Convergence failed at  66  side 2    Res =  0.4327E+02
 MRCHDU: Convergence failed at  67  side 2    Res =  0.4588E+02
 MRCHDU: Convergence failed at  68  side 2    Res =  0.4120E+02
 MRCHDU: Convergence failed at  69  side 2    Res =  0.3483E+02
 MRCHDU: Convergence failed at  70  side 2    Res =  0.2955E+02
 MRCHDU: Convergence failed at  71  side 2    Res =  0.2560E+02
 MRCHDU: Convergence failed at  72  side 2    Res =  0.2248E+02
 MRCHDU: Convergence failed at  73  side 2    Res =  0.1954E+02
 MRCHDU: Convergence failed at  74  side 2    Res =  0.1789E+02
 MRCHDU: Convergence failed at  75  side 2    Res =  0.1762E+02
 MRCHDU: Convergence failed at  76  side 2    Res =  0.1659E+02
 MRCHDU: Convergence failed at  77  side 2    Res =  0.1486E+02
 MRCHDU: Convergence failed at  78  side 2    Res =  0.1478E+02
 MRCHDU: Convergence failed at  79  side 2    Res =  0.1463E+02
 MRCHDU: Convergence failed at  80  side 2    Res =  0.1300E+02
 MRCHDU: Convergence failed at  81  side 2    Res =  0.1163E+02
 MRCHDU: Convergence failed at  82  side 2    Res =  0.1071E+02
 MRCHDU: Convergence failed at  83  side 2    Res =  0.9357E+01
 MRCHDU: Convergence failed at  84  side 2    Res =  0.7830E+01
 MRCHDU: Convergence failed at  85  side 2    Res =  0.5813E+01
 Side 1  free  transition at x/c =  0.8675   67
 Side 2  free  transition at x/c =  0.6305   59

   3   rms: 0.2134E+00   max: 0.8715E+00   T at   84  2
       a = -3.000      CL = -0.0599
      Cm = -0.0594     CD =  0.00762   =>   CDf =  0.00414    CDp =  0.00348

 Side 1  free  transition at x/c =  0.8782   69
 Side 2  free  transition at x/c =  0.6209   58
 idif Ue xi dudx           1  0.20342137      3.10611725E-03   65.490562    
 Uenew xinew           2  4.53279279E-02  6.92129135E-04

   4   rms: 0.6670E-01   max: 0.3864E+00   D at    2  1
       a = -3.000      CL = -0.1185
      Cm = -0.0494     CD =  0.00890   =>   CDf =  0.00512    CDp =  0.00378

 Side 1  free  transition at x/c =  0.8684   67
 Side 2  free  transition at x/c =  0.6184   59

   5   rms: 0.6737E-02   max: -.6559E-01   D at   71  1
       a = -3.000      CL = -0.1175
      Cm = -0.0497     CD =  0.00900   =>   CDf =  0.00513    CDp =  0.00386

 Side 1  free  transition at x/c =  0.8666   67
 Side 2  free  transition at x/c =  0.6177   59

   6   rms: 0.8780E-03   max: -.9134E-02   D at    4  2
       a = -3.000      CL = -0.1174
      Cm = -0.0497     CD =  0.00900   =>   CDf =  0.00515    CDp =  0.00385

 Side 1  free  transition at x/c =  0.8666   67
 Side 2  free  transition at x/c =  0.6177   59

   7   rms: 0.1617E-05   max: 0.1187E-04   D at   68  1
       a = -3.000      CL = -0.1174
      Cm = -0.0497     CD =  0.00900   =>   CDf =  0.00515    CDp =  0.00385
 plradd ia,ip,cpol            3           0  6.66676648E-03

 Point added to stored polar  1
 Point written to save file  hq1512_Re300k.base.pol                          
 Dump file unspecified or not available
 Calculating wake trajectory ...
 Calculating source influence matrix ...

 Solving BL system ...

 Side 1  free  transition at x/c =  0.8666   67
 Side 2  free  transition at x/c =  0.6177   59

   1   rms: 0.9883E-01   max: 0.5446E+00   D at   60  2
       a = -2.500      CL = -0.0675
      Cm = -0.0481     CD =  0.00896   =>   CDf =  0.00525    CDp =  0.00371

 Side 1  free  transition at x/c =  0.8483   67
 Side 2  free  transition at x/c =  0.6414   59

   2   rms: 0.4283E-01   max: -.3657E+00   D at   60  2
       a = -2.500      CL = -0.0636
      Cm = -0.0489     CD =  0.00915   =>   CDf =  0.00541    CDp =  0.00374

 MRCHDU: Convergence failed at  61  side 2    Res =  0.3258E+01
 MRCHDU: Convergence failed at  62  side 2    Res =  0.2987E+01
 MRCHDU: Convergence failed at  63  side 2    Res =  0.1940E+01
 MRCHDU: Convergence failed at  64  side 2    Res =  0.2977E+01
 MRCHDU: Convergence failed at  65  side 2    Res =  0.4315E+01
 MRCHDU: Convergence failed at  66  side 2    Res =  0.6039E+01
 MRCHDU: Convergence failed at  67  side 2    Res =  0.8032E+01
 MRCHDU: Convergence failed at  68  side 2    Res =  0.9921E+01
 MRCHDU: Convergence failed at  69  side 2    Res =  0.1172E+02
 MRCHDU: Convergence failed at  70  side 2    Res =  0.1316E+02
 MRCHDU: Convergence failed at  71  side 2    Res =  0.1409E+02
 MRCHDU: Convergence failed at  72  side 2    Res =  0.1434E+02
 MRCHDU: Convergence failed at  73  side 2    Res =  0.1453E+02
 MRCHDU: Convergence failed at  74  side 2    Res =  0.1515E+02
 MRCHDU: Convergence failed at  75  side 2    Res =  0.1501E+02
 MRCHDU: Convergence failed at  76  side 2    Res =  0.1430E+02
 MRCHDU: Convergence failed at  77  side 2    Res =  0.1457E+02
 MRCHDU: Convergence failed at  78  side 2    Res =  0.1462E+02
 MRCHDU: Convergence failed at  79  side 2    Res =  0.1322E+02
 MRCHDU: Convergence failed at  80  side 2    Res =  0.1204E+02
 MRCHDU: Convergence failed at  81  side 2    Res =  0.1126E+02
 MRCHDU: Convergence failed at  82  side 2    Res =  0.1013E+02
 MRCHDU: Convergence failed at  83  side 2    Res =  0.8833E+01
 MRCHDU: Convergence failed at  84  side 2    Res =  0.6870E+01
 Side 1  free  transition at x/c =  0.8526   67
 Side 2  free  transition at x/c =  0.6652   61

   3   rms: 0.2141E+00   max: 0.8949E+00   T at   84  2
       a = -2.500      CL = -0.0096
      Cm = -0.0586     CD =  0.00781   =>   CDf =  0.00416    CDp =  0.00366

 Side 1  free  transition at x/c =  0.8601   68
 Side 2  free  transition at x/c =  0.6558   60

   4   rms: 0.5619E-01   max: -.1953E+00   D at   61  2
       a = -2.500      CL = -0.0655
      Cm = -0.0483     CD =  0.00901   =>   CDf =  0.00528    CDp =  0.00373

 Side 1  free  transition at x/c =  0.8532   67
 Side 2  free  transition at x/c =  0.6568   60

   5   rms: 0.4194E-02   max: 0.3361E-01   D at   61  2
       a = -2.500      CL = -0.0645
      Cm = -0.0486     CD =  0.00905   =>   CDf =  0.00519    CDp =  0.00386

 Side 1  free  transition at x/c =  0.8521   67
 Side 2  free  transition at x/c =  0.6555   60

   6   rms: 0.1814E-03   max: -.2409E-02   D at   68  1
       a = -2.500      CL = -0.0644
      Cm = -0.0486     CD =  0.00905   =>   CDf =  0.00520    CDp =  0.00385

 Side 1  free  transition at x/c =  0.8521   67
 Side 2  free  transition at x/c =  0.6555   60

   7   rms: 0.1022E-05   max: -.6272E-05   D at   77  1
       a = -2.500      CL = -0.0644
      Cm = -0.0486     CD =  0.00905   =>   CDf =  0.00520    CDp =  0.00385
 plradd ia,ip,cpol            4           0  9.39008407E-03

 Point added to stored polar  1
 Point written to save file  hq1512_Re300k.base.pol                          
 Dump file unspecified or not available
 Calculating wake trajectory ...
 Calculating source influence matrix ...

 Solving BL system ...

 Side 1  free  transition at x/c =  0.8521   67
 Side 2  free  transition at x/c =  0.6555   60

   1   rms: 0.8478E-01   max: -.3875E+00   T at   60  2
       a = -2.000      CL = -0.0124
      Cm = -0.0476     CD =  0.00915   =>   CDf =  0.00529    CDp =  0.00386

 Side 1  free  transition at x/c =  0.8337   67
 Side 2  free  transition at x/c =  0.6801   61

   2   rms: 0.7619E-01   max: -.1310E+01   T at    2  1   RLX: 0.382
       a = -2.000      CL = -0.0124
      Cm = -0.0473     CD =  0.00928   =>   CDf =  0.00534    CDp =  0.00394

 Side 1  free  transition at x/c =  0.8354   67
 Side 2  free  transition at x/c =  0.6810   61

   3   rms: 0.1356E-01   max: -.1186E+00   D at   69  1
       a = -2.000      CL = -0.0108
      Cm = -0.0476     CD =  0.00909   =>   CDf =  0.00532    CDp =  0.00377

 Side 1  free  transition at x/c =  0.8381   67
 Side 2  free  transition at x/c =  0.6827   61

   4   rms: 0.8397E-03   max: -.9328E-02   D at   62  2
       a = -2.000      CL = -0.0108
      Cm = -0.0477     CD =  0.00910   =>   CDf =  0.00528    CDp =  0.00381

 Side 1  free  transition at x/c =  0.8379   67
 Side 2  free  transition at x/c =  0.6829   61

   5   rms: 0.1158E-04   max: -.1042E-03   D at   68  1
       a = -2.000      CL = -0.0108
      Cm = -0.0477     CD =  0.00910   =>   CDf =  0.00528    CDp =  0.00382
 plradd ia,ip,cpol            5           0  2.29140557E-02

 Point added to stored polar  1
 Point written to save file  hq1512_Re300k.base.pol                          
 Dump file unspecified or not available
 Calculating wake trajectory ...
 Calculating source influence matrix ...

 Solving BL system ...

 Side 1  free  transition at x/c =  0.8379   67
 Side 2  free  transition at x/c =  0.6829   61

   1   rms: 0.8698E-01   max: -.3949E+00   T at   61  2
       a = -1.500      CL =  0.0410
      Cm = -0.0466     CD =  0.00917   =>   CDf =  0.00528    CDp =  0.00389

 Side 1  free  transition at x/c =  0.8192   66
 Side 2  free  transition at x/c =  0.7056   62

   2   rms: 0.2203E-01   max: -.2234E+00   D at   68  1
       a = -1.500      CL =  0.0431
      Cm = -0.0468     CD =  0.00918   =>   CDf =  0.00540    CDp =  0.00378

 Side 1  free  transition at x/c =  0.8242   66
 Side 2  free  transition at x/c =  0.7108   63

   3   rms: 0.6993E-02   max: 0.9258E-01   D at   63  2
       a = -1.500      CL =  0.0429
      Cm = -0.0467     CD =  0.00916   =>   CDf =  0.00533    CDp =  0.00383

 Side 1  free  transition at x/c =  0.8237   66
 Side 2  free  transition at x/c =  0.7092   63

   4   rms: 0.6902E-03   max: 0.7158E-02   D at   63  2
       a = -1.500      CL =  0.0429
      Cm = -0.0467     CD =  0.00916   =>   CDf =  0.00534    CDp =  0.00382

 Side 1  free  transition at x/c =  0.8237   66
 Side 2  free  transition at x/c =  0.7090   63

   5   rms: 0.4865E-05   max: -.7631E-04   D at   66  2
       a = -1.500      CL =  0.0429
      Cm = -0.0467     CD =  0.00916   =>   CDf =  0.00534    CDp =  0.00382
 plradd ia,ip,cpol            6           0  3.03116553E-02

 Point added to stored polar  1
 Point written to save file  hq1512_Re300k.base.pol                          
 Dump file unspecified or not available
 Calculating wake trajectory ...
 Calculating source influence matrix ...

 Solving BL system ...

 Side 1  free  transition at x/c =  0.8237   66
 Side 2  free  transition at x/c =  0.7090   63

   1   rms: 0.8676E-01   max: -.4274E+00   T at   63  2
       a = -1.000      CL =  0.0944
      Cm = -0.0456     CD =  0.00917   =>   CDf =  0.00539    CDp =  0.00378

 Side 1  free  transition at x/c =  0.8032   66
 Side 2  free  transition at x/c =  0.7220   63

   2   rms: 0.7439E-01   max: -.4514E+00   T at   64  2
       a = -1.000      CL =  0.0962
      Cm = -0.0458     CD =  0.00890   =>   CDf =  0.00556    CDp =  0.00334

 Side 1  free  transition at x/c =  0.8095   66
 Side 2  free  transition at x/c =  0.7319   63

   3   rms: 0.2226E-01   max: -.2022E+00   D at   63  2
       a = -1.000      CL =  0.0967
      Cm = -0.0458     CD =  0.00917   =>   CDf =  0.00542    CDp =  0.00375

 Side 1  free  transition at x/c =  0.8089   66
 Side 2  free  transition at x/c =  0.7304   63

   4   rms: 0.4807E-03   max: 0.6735E-02   D at   64  2
       a = -1.000      CL =  0.0966
      Cm = -0.0458     CD =  0.00918   =>   CDf =  0.00538    CDp =  0.00380

 Side 1  free  transition at x/c =  0.8089   66
 Side 2  free  transition at x/c =  0.7302   63

   5   rms: 0.1365E-05   max: -.1655E-04   D at   66  2
       a = -1.000      CL =  0.0966
      Cm = -0.0458     CD =  0.00918   =>   CDf =  0.00539    CDp =  0.00380
 plradd ia,ip,cpol            7           0  0.16586320    

 Point added to stored polar  1
 Point written to save file  hq1512_Re300k.base.pol                          
 Dump file unspecified or not available
 Calculating wake trajectory ...
 Calculating source influence matrix ...

 Solving BL system ...

 Side 1  free  transition at x/c =  0.8089   66
 Side 2  free  transition at x/c =  0.7302   63

   1   rms: 0.8443E-01   max: -.3719E+00   T at   63  2
       a = -0.500      CL =  0.1480
      Cm = -0.0448     CD =  0.00920   =>   CDf =  0.00539    CDp =  0.00382

 Side 1  free  transition at x/c =  0.7843   65
 Side 2  free  transition at x/c =  0.7521   65

   2   rms: 0.3265E-01   max: -.2716E+00   D at   65  1
       a = -0.500      CL =  0.1497
      Cm = -0.0447     CD =  0.00915   =>   CDf =  0.00552    CDp =  0.00363

 Side 1  free  transition at x/c =  0.7923   66
 Side 2  free  transition at x/c =  0.7529   64

   3   rms: 0.3338E-02   max: 0.3094E-01   D at   67  1
       a = -0.500      CL =  0.1495
      Cm = -0.0447     CD =  0.00917   =>   CDf =  0.00542    CDp =  0.00376

 Side 1  free  transition at x/c =  0.7910   66
 Side 2  free  transition at x/c =  0.7526   64

   4   rms: 0.9573E-03   max: 0.1172E-01   D at    4  1
       a = -0.500      CL =  0.1495
      Cm = -0.0447     CD =  0.00917   =>   CDf =  0.00542    CDp =  0.00375

 Side 1  free  transition at x/c =  0.7910   66
 Side 2  free  transition at x/c =  0.7526   64

   5   rms: 0.4318E-05   max: 0.4972E-04   D at    4  1
       a = -0.500      CL =  0.1495
      Cm = -0.0447     CD =  0.00917   =>   CDf =  0.00542    CDp =  0.00375
 plradd ia,ip,cpol            8           0  0.15196407    

 Point added to stored polar  1
 Point written to save file  hq1512_Re300k.base.pol                          
 Dump file unspecified or not available
 Calculating wake trajectory ...
 Calculating source influence matrix ...

 Solving BL system ...

 Side 1  free  transition at x/c =  0.7910   66
 Side 2  free  transition at x/c =  0.7526   64

   1   rms: 0.8711E-01   max: -.4520E+00   T at   64  2
       a =  0.000      CL =  0.2011
      Cm = -0.0432     CD =  0.00908   =>   CDf =  0.00542    CDp =  0.00366

 Side 1  free  transition at x/c =  0.7719   65
 Side 2  free  transition at x/c =  0.7650   64

   2   rms: 0.5260E-01   max: -.4880E+00   D at   66  2
       a =  0.000      CL =  0.2050
      Cm = -0.0444     CD =  0.00951   =>   CDf =  0.00556    CDp =  0.00394

 MRCHDU: Convergence failed at  66  side 2    Res =  0.3494E+01
 MRCHDU: Convergence failed at  67  side 2    Res =  0.4628E+01
 MRCHDU: Convergence failed at  68  side 2    Res =  0.2998E+01
 MRCHDU: Convergence failed at  69  side 2    Res =  0.4937E+01
 MRCHDU: Convergence failed at  70  side 2    Res =  0.7363E+01
 MRCHDU: Convergence failed at  71  side 2    Res =  0.1047E+02
 MRCHDU: Convergence failed at  72  side 2    Res =  0.1491E+02
 MRCHDU: Convergence failed at  73  side 2    Res =  0.1850E+02
 MRCHDU: Convergence failed at  74  side 2    Res =  0.2021E+02
 MRCHDU: Convergence failed at  75  side 2    Res =  0.2032E+02
 MRCHDU: Convergence failed at  76  side 2    Res =  0.2137E+02
 MRCHDU: Convergence failed at  77  side 2    Res =  0.2182E+02
 MRCHDU: Convergence failed at  78  side 2    Res =  0.2132E+02
 MRCHDU: Convergence failed at  79  side 2    Res =  0.1931E+02
 MRCHDU: Convergence failed at  80  side 2    Res =  0.1632E+02
 MRCHDU: Convergence failed at  81  side 2    Res =  0.1349E+02
 Side 1  free  transition at x/c =  0.7748   65
 Side 2  free  transition at x/c =  0.7809   66

   3   rms: 0.1881E+00   max: 0.9613E+00   T at   72  2   RLX: 0.954
       a =  0.000      CL =  0.2341
      Cm = -0.0498     CD =  0.00841   =>   CDf =  0.00480    CDp =  0.00361

 Side 1  free  transition at x/c =  0.7747   65
 Side 2  free  transition at x/c =  0.7689   65

   4   rms: 0.4007E-01   max: -.2769E+00   D at   65  2
       a =  0.000      CL =  0.2025
      Cm = -0.0436     CD =  0.00916   =>   CDf =  0.00545    CDp =  0.00371

 Side 1  free  transition at x/c =  0.7743   65
 Side 2  free  transition at x/c =  0.7730   65

   5   rms: 0.3587E-02   max: 0.5181E-01   D at   66  2
       a =  0.000      CL =  0.2028
      Cm = -0.0437     CD =  0.00915   =>   CDf =  0.00542    CDp =  0.00373

 Side 1  free  transition at x/c =  0.7742   65
 Side 2  free  transition at x/c =  0.7719   65

   6   rms: 0.5003E-04   max: -.8027E-03   D at   65  2
       a =  0.000      CL =  0.2028
      Cm = -0.0437     CD =  0.00915   =>   CDf =  0.00542    CDp =  0.00372
 plradd ia,ip,cpol            9           0  0.15196407    

 Point added to stored polar  1
 Point written to save file  hq1512_Re300k.base.pol                          
 Dump file unspecified or not available
 Calculating wake trajectory ...
 Calculating source influence matrix ...

 Solving BL system ...

 Side 1  free  transition at x/c =  0.7742   65
 Side 2  free  transition at x/c =  0.7719   65

   1   rms: 0.8173E-01   max: -.3551E+00   T at   65  2
       a =  0.500      CL =  0.2557
      Cm = -0.0426     CD =  0.00911   =>   CDf =  0.00541    CDp =  0.00370

 Side 1  free  transition at x/c =  0.7554   65
 Side 2  free  transition at x/c =  0.7862   65

   2   rms: 0.2419E-01   max: -.2009E+00   D at   65  1
       a =  0.500      CL =  0.2566
      Cm = -0.0428     CD =  0.00908   =>   CDf =  0.00550    CDp =  0.00359

 Side 1  free  transition at x/c =  0.7577   65
 Side 2  free  transition at x/c =  0.7900   65

   3   rms: 0.2063E-02   max: 0.2362E-01   D at   66  1
       a =  0.500      CL =  0.2565
      Cm = -0.0428     CD =  0.00911   =>   CDf =  0.00543    CDp =  0.00368

 Side 1  free  transition at x/c =  0.7571   65
 Side 2  free  transition at x/c =  0.7898   65

   4   rms: 0.2990E-04   max: -.3081E-03   D at   65  1
       a =  0.500      CL =  0.2565
      Cm = -0.0428     CD =  0.00911   =>   CDf =  0.00544    CDp =  0.00367
 plradd ia,ip,cpol           10           0  0.15196407    

 Point added to stored polar  1
 Point written to save file  hq1512_Re300k.base.pol                          
 Dump file unspecified or not available
 Calculating wake trajectory ...
 Calculating source influence matrix ...

 Solving BL system ...

 Side 1  free  transition at x/c =  0.7571   65
 Side 2  free  transition at x/c =  0.7898   65

   1   rms: 0.8105E-01   max: -.2913E+00   T at   65  2
       a =  1.000      CL =  0.3108
      Cm = -0.0422     CD =  0.00906   =>   CDf =  0.00544    CDp =  0.00362

 Side 1  free  transition at x/c =  0.7377   64
 Side 2  free  transition at x/c =  0.8059   66

   2   rms: 0.1823E-01   max: -.2429E+00   D at   64  1
       a =  1.000      CL =  0.3106
      Cm = -0.0421     CD =  0.00904   =>   CDf =  0.00548    CDp =  0.00356

 Side 1  free  transition at x/c =  0.7394   64
 Side 2  free  transition at x/c =  0.8055   66

   3   rms: 0.2120E-02   max: 0.1747E-01   T at   65  1
       a =  1.000      CL =  0.3104
      Cm = -0.0421     CD =  0.00905   =>   CDf =  0.00546    CDp =  0.00359

 Side 1  free  transition at x/c =  0.7388   64
 Side 2  free  transition at x/c =  0.8054   66

   4   rms: 0.4445E-04   max: -.5754E-03   D at   67  1
       a =  1.000      CL =  0.3104
      Cm = -0.0421     CD =  0.00905   =>   CDf =  0.00547    CDp =  0.00358
 plradd ia,ip,cpol           11           0  0.13821571    

 Point added to stored polar  1
 Point written to save file  hq1512_Re300k.base.pol                          
 Dump file unspecified or not available
 Calculating wake trajectory ...
 Calculating source influence matrix ...

 Solving BL system ...

 Side 1  free  transition at x/c =  0.7388   64
 Side 2  free  transition at x/c =  0.8054   66

   1   rms: 0.8583E-01   max: -.2828E+00   T at   66  2
       a =  1.500      CL =  0.3654
      Cm = -0.0416     CD =  0.00903   =>   CDf =  0.00541    CDp =  0.00362

 Side 1  free  transition at x/c =  0.7250   64
 Side 2  free  transition at x/c =  0.8240   66

   2   rms: 0.1738E-01   max: 0.1550E+00   D at   67  2
       a =  1.500      CL =  0.3644
      Cm = -0.0415     CD =  0.00901   =>   CDf =  0.00541    CDp =  0.00360

 Side 1  free  transition at x/c =  0.7212   63
 Side 2  free  transition at x/c =  0.8227   66

   3   rms: 0.4007E-02   max: -.5857E-01   D at   64  1
       a =  1.500      CL =  0.3646
      Cm = -0.0414     CD =  0.00903   =>   CDf =  0.00549    CDp =  0.00354

 Side 1  free  transition at x/c =  0.7223   64
 Side 2  free  transition at x/c =  0.8221   66

   4   rms: 0.2114E-02   max: -.3828E-01   D at   63  1
       a =  1.500      CL =  0.3645
      Cm = -0.0414     CD =  0.00902   =>   CDf =  0.00549    CDp =  0.00354

 Side 1  free  transition at x/c =  0.7219   64
 Side 2  free  transition at x/c =  0.8221   66

   5   rms: 0.1851E-03   max: 0.2199E-02   D at   64  1
       a =  1.500      CL =  0.3645
      Cm = -0.0414     CD =  0.00902   =>   CDf =  0.00547    CDp =  0.00355

 Side 1  free  transition at x/c =  0.7219   64
 Side 2  free  transition at x/c =  0.8221   66

   6   rms: 0.1390E-05   max: -.1265E-04   D at   66  1
       a =  1.500      CL =  0.3645
      Cm = -0.0414     CD =  0.00902   =>   CDf =  0.00547    CDp =  0.00355
 plradd ia,ip,cpol           12           0  0.12459300    

 Point added to stored polar  1
 Point written to save file  hq1512_Re300k.base.pol                          
 Dump file unspecified or not available
 Calculating wake trajectory ...
 Calculating source influence matrix ...

 Solving BL system ...

 Side 1  free  transition at x/c =  0.7219   64
 Side 2  free  transition at x/c =  0.8221   66

   1   rms: 0.8423E-01   max: -.2877E+00   T at   66  2
       a =  2.000      CL =  0.4204
      Cm = -0.0411     CD =  0.00909   =>   CDf =  0.00539    CDp =  0.00370

 Side 1  free  transition at x/c =  0.7058   63
 Side 2  free  transition at x/c =  0.8427   67

   2   rms: 0.1998E-01   max: -.2273E+00   D at   64  1
       a =  2.000      CL =  0.4178
      Cm = -0.0406     CD =  0.00896   =>   CDf =  0.00539    CDp =  0.00356

 Side 1  free  transition at x/c =  0.7029   63
 Side 2  free  transition at x/c =  0.8405   67

   3   rms: 0.2237E-02   max: 0.2466E-01   D at   67  2
       a =  2.000      CL =  0.4176
      Cm = -0.0406     CD =  0.00898   =>   CDf =  0.00541    CDp =  0.00357

 Side 1  free  transition at x/c =  0.7025   63
 Side 2  free  transition at x/c =  0.8402   67

   4   rms: 0.3743E-04   max: -.4564E-03   D at   69  2
       a =  2.000      CL =  0.4176
      Cm = -0.0406     CD =  0.00898   =>   CDf =  0.00542    CDp =  0.00356
 plradd ia,ip,cpol           13           0  0.11109169    

 Point added to stored polar  1
 Point written to save file  hq1512_Re300k.base.pol                          
 Dump file unspecified or not available
 Calculating wake trajectory ...
 Calculating source influence matrix ...

 Solving BL system ...

 Side 1  free  transition at x/c =  0.7025   63
 Side 2  free  transition at x/c =  0.8401   67

   1   rms: 0.8151E-01   max: -.3491E+00   T at   67  2
       a =  2.500      CL =  0.4687
      Cm = -0.0393     CD =  0.00881   =>   CDf =  0.00542    CDp =  0.00339

 Side 1  free  transition at x/c =  0.6782   62
 Side 2  free  transition at x/c =  0.8541   68

   2   rms: 0.4197E-01   max: -.2912E+00   D at   68  2
       a =  2.500      CL =  0.4701
      Cm = -0.0396     CD =  0.00877   =>   CDf =  0.00551    CDp =  0.00327

 Side 1  free  transition at x/c =  0.6836   62
 Side 2  free  transition at x/c =  0.8615   68

   3   rms: 0.6800E-02   max: -.6109E-01   D at   70  2
       a =  2.500      CL =  0.4698
      Cm = -0.0395     CD =  0.00891   =>   CDf =  0.00530    CDp =  0.00361

 Side 1  free  transition at x/c =  0.6819   62
 Side 2  free  transition at x/c =  0.8590   68

   4   rms: 0.9372E-03   max: -.9639E-02   D at   68  2
       a =  2.500      CL =  0.4698
      Cm = -0.0395     CD =  0.00891   =>   CDf =  0.00534    CDp =  0.00357

 Side 1  free  transition at x/c =  0.6819   62
 Side 2  free  transition at x/c =  0.8593   68

   5   rms: 0.6804E-05   max: -.8302E-04   D at   71  2
       a =  2.500      CL =  0.4698
      Cm = -0.0395     CD =  0.00891   =>   CDf =  0.00534    CDp =  0.00357
 plradd ia,ip,cpol           14           0  8.46756771E-02

 Point added to stored polar  1
 Point written to save file  hq1512_Re300k.base.pol                          
 Dump file unspecified or not available
 Calculating wake trajectory ...
 Calculating source influence matrix ...

 Solving BL system ...

 Side 1  free  transition at x/c =  0.6819   62
 Side 2  free  transition at x/c =  0.8593   68

   1   rms: 0.8332E-01   max: -.3186E+00   T at   68  2
       a =  3.000      CL =  0.5214
      Cm = -0.0382     CD =  0.00882   =>   CDf =  0.00522    CDp =  0.00360

 Side 1  free  transition at x/c =  0.6591   61
 Side 2  free  transition at x/c =  0.8781   68

   2   rms: 0.2445E-01   max: -.2738E+00   D at   62  1
       a =  3.000      CL =  0.5214
      Cm = -0.0383     CD =  0.00883   =>   CDf =  0.00530    CDp =  0.00353

 Side 1  free  transition at x/c =  0.6592   61
 Side 2  free  transition at x/c =  0.8827   68

   3   rms: 0.2250E-02   max: 0.3167E-01   D at   62  1
       a =  3.000      CL =  0.5213
      Cm = -0.0383     CD =  0.00887   =>   CDf =  0.00526    CDp =  0.00360

 Side 1  free  transition at x/c =  0.6585   61
 Side 2  free  transition at x/c =  0.8825   68

   4   rms: 0.1602E-04   max: -.1851E-03   C at   61  1
       a =  3.000      CL =  0.5213
      Cm = -0.0383     CD =  0.00887   =>   CDf =  0.00527    CDp =  0.00360
 plradd ia,ip,cpol           15           0  2.15628315E-02

 Point added to stored polar  1
 Point written to save file  hq1512_Re300k.base.pol                          
 Dump file unspecified or not available
 Calculating wake trajectory ...
 Calculating source influence matrix ...

 Solving BL system ...

 Side 1  free  transition at x/c =  0.6585   61
 Side 2  free  transition at x/c =  0.8825   68

   1   rms: 0.8092E-01   max: -.2912E+00   T at   68  2
       a =  3.500      CL =  0.5725
      Cm = -0.0373     CD =  0.00882   =>   CDf =  0.00513    CDp =  0.00369

 Side 1  free  transition at x/c =  0.6239   60
 Side 2  free  transition at x/c =  0.9131   70

   2   rms: 0.3129E-01   max: -.3801E+00   D at   61  1
       a =  3.500      CL =  0.5715
      Cm = -0.0367     CD =  0.00880   =>   CDf =  0.00530    CDp =  0.00350

 Side 1  free  transition at x/c =  0.6318   60
 Side 2  free  transition at x/c =  0.9136   70

   3   rms: 0.7408E-02   max: 0.9921E-01   C at   70  2
       a =  3.500      CL =  0.5714
      Cm = -0.0367     CD =  0.00880   =>   CDf =  0.00515    CDp =  0.00365

 Side 1  free  transition at x/c =  0.6299   60
 Side 2  free  transition at x/c =  0.9114   69

   4   rms: 0.5544E-03   max: -.5695E-02   D at   72  2
       a =  3.500      CL =  0.5717
      Cm = -0.0367     CD =  0.00881   =>   CDf =  0.00517    CDp =  0.00364

 Side 1  free  transition at x/c =  0.6299   60
 Side 2  free  transition at x/c =  0.9109   69

   5   rms: 0.1867E-04   max: -.2708E-03   C at   69  2
       a =  3.500      CL =  0.5717
      Cm = -0.0367     CD =  0.00881   =>   CDf =  0.00517    CDp =  0.00364
 plradd ia,ip,cpol           16           0  2.15628315E-02

 Point added to stored polar  1
 Point written to save file  hq1512_Re300k.base.pol                          
 Dump file unspecified or not available
 Calculating wake trajectory ...
 Calculating source influence matrix ...

 Solving BL system ...

 Side 1  free  transition at x/c =  0.6299   60
 Side 2  free  transition at x/c =  0.9109   69

   1   rms: 0.8470E-01   max: -.4269E+00   C at   69  2
       a =  4.000      CL =  0.6221
      Cm = -0.0354     CD =  0.00871   =>   CDf =  0.00517    CDp =  0.00354

 Side 1  free  transition at x/c =  0.5841   57
 Side 2  free  transition at x/c =  0.9458   72

   2   rms: 0.3018E-01   max: -.3451E+00   D at   58  1
       a =  4.000      CL =  0.6300
      Cm = -0.0369     CD =  0.00889   =>   CDf =  0.00527    CDp =  0.00362

 Side 1  free  transition at x/c =  0.5921   58
 Side 2  free  transition at x/c =  0.9519   72

   3   rms: 0.6905E-02   max: 0.6873E-01   C at   72  2
       a =  4.000      CL =  0.6320
      Cm = -0.0373     CD =  0.00884   =>   CDf =  0.00510    CDp =  0.00374

 Side 1  free  transition at x/c =  0.5897   58
 Side 2  free  transition at x/c =  0.9483   72

   4   rms: 0.4065E-03   max: -.4522E-02   C at   72  2
       a =  4.000      CL =  0.6320
      Cm = -0.0373     CD =  0.00884   =>   CDf =  0.00513    CDp =  0.00371

 Side 1  free  transition at x/c =  0.5896   58
 Side 2  free  transition at x/c =  0.9485   72

   5   rms: 0.1726E-05   max: 0.2001E-04   C at   72  2
       a =  4.000      CL =  0.6320
      Cm = -0.0373     CD =  0.00884   =>   CDf =  0.00513    CDp =  0.00371
 plradd ia,ip,cpol           17           0  2.15628315E-02

 Point added to stored polar  1
 Point written to save file  hq1512_Re300k.base.pol                          
 Dump file unspecified or not available
 Calculating wake trajectory ...
 Calculating source influence matrix ...

 Solving BL system ...

 Side 1  free  transition at x/c =  0.5896   58
 Side 2  free  transition at x/c =  0.9485   72

   1   rms: 0.1186E+00   max: 0.6951E+00   C at   58  1   RLX: 0.823
       a =  4.500      CL =  0.6899
      Cm = -0.0397     CD =  0.00905   =>   CDf =  0.00499    CDp =  0.00407

 Side 1  free  transition at x/c =  0.5322   55
 Side 2  free  transition at x/c =  0.9776   73

   2   rms: 0.3859E-01   max: -.2674E+00   D at   55  1
       a =  4.500      CL =  0.7090
      Cm = -0.0420     CD =  0.00914   =>   CDf =  0.00528    CDp =  0.00386

 Side 1  free  transition at x/c =  0.5090   53
 Side 2  free  transition at x/c =  0.9871   74

   3   rms: 0.7509E-02   max: -.9521E-01   C at   74  2
       a =  4.500      CL =  0.7089
      Cm = -0.0420     CD =  0.00917   =>   CDf =  0.00534    CDp =  0.00383

 Side 1  free  transition at x/c =  0.5099   53
 Side 2  free  transition at x/c =  0.9902   74

   4   rms: 0.3692E-03   max: -.5395E-02   C at   74  2
       a =  4.500      CL =  0.7089
      Cm = -0.0420     CD =  0.00917   =>   CDf =  0.00532    CDp =  0.00385

 Side 1  free  transition at x/c =  0.5098   53
 Side 2  free  transition at x/c =  0.9904   74

   5   rms: 0.1141E-05   max: -.8499E-05   C at   53  1
       a =  4.500      CL =  0.7089
      Cm = -0.0420     CD =  0.00917   =>   CDf =  0.00532    CDp =  0.00385
 plradd ia,ip,cpol           18           0  1.60735585E-02

 Point added to stored polar  1
 Point written to save file  hq1512_Re300k.base.pol                          
 Dump file unspecified or not available
 Calculating wake trajectory ...
 Calculating source influence matrix ...

 Solving BL system ...

 Side 1  free  transition at x/c =  0.5098   53
 Side 2  free  transition at x/c =  0.9904   74

   1   rms: 0.1519E+00   max: 0.1765E+01   C at   53  1   RLX: 0.628
       a =  5.000      CL =  0.7575
      Cm = -0.0454     CD =  0.00958   =>   CDf =  0.00532    CDp =  0.00425

 Side 1  free  transition at x/c =  0.4174   47
 Side 2 forced transition at x/c =  1.0000   75

   2   rms: 0.8249E-01   max: -.8507E+00   C at   75  2   RLX: 0.588
       a =  5.000      CL =  0.7465
      Cm = -0.0411     CD =  0.01001   =>   CDf =  0.00581    CDp =  0.00420

 Side 1  free  transition at x/c =  0.4140   47
 Side 2 forced transition at x/c =  1.0000   75

   3   rms: 0.1900E-01   max: 0.1927E+00   C at   47  1
       a =  5.000      CL =  0.7509
      Cm = -0.0403     CD =  0.01013   =>   CDf =  0.00586    CDp =  0.00427

 Side 1  free  transition at x/c =  0.4008   46
 Side 2 forced transition at x/c =  1.0000   75

   4   rms: 0.1284E-02   max: -.2034E-01   D at   48  1
       a =  5.000      CL =  0.7513
      Cm = -0.0404     CD =  0.01011   =>   CDf =  0.00589    CDp =  0.00422

 Side 1  free  transition at x/c =  0.4006   46
 Side 2 forced transition at x/c =  1.0000   75

   5   rms: 0.1745E-04   max: -.2670E-03   D at   48  1
       a =  5.000      CL =  0.7513
      Cm = -0.0404     CD =  0.01011   =>   CDf =  0.00589    CDp =  0.00422
 plradd ia,ip,cpol           19           0  8.57915170E-03

 Point added to stored polar  1
 Point written to save file  hq1512_Re300k.base.pol                          
 Dump file unspecified or not available
 Calculating wake trajectory ...
 Calculating source influence matrix ...

 Solving BL system ...

 Side 1  free  transition at x/c =  0.4006   46
 Side 2 forced transition at x/c =  1.0000   75

   1   rms: 0.1589E+00   max: 0.2332E+01   C at   46  1   RLX: 0.604
       a =  5.500      CL =  0.7730
      Cm = -0.0386     CD =  0.01088   =>   CDf =  0.00570    CDp =  0.00518

 Side 1  free  transition at x/c =  0.3462   43
 Side 2 forced transition at x/c =  1.0000   74

   2   rms: 0.4594E-01   max: 0.4246E+00   C at   43  1
       a =  5.500      CL =  0.7930
      Cm = -0.0384     CD =  0.01111   =>   CDf =  0.00618    CDp =  0.00493

 Side 1  free  transition at x/c =  0.3182   41
 Side 2 forced transition at x/c =  1.0000   74

   3   rms: 0.7632E-02   max: -.1235E+00   C at   41  1
       a =  5.500      CL =  0.7926
      Cm = -0.0383     CD =  0.01112   =>   CDf =  0.00631    CDp =  0.00481

 Side 1  free  transition at x/c =  0.3210   41
 Side 2 forced transition at x/c =  1.0000   74

   4   rms: 0.5489E-03   max: 0.1011E-01   C at   41  1
       a =  5.500      CL =  0.7926
      Cm = -0.0383     CD =  0.01112   =>   CDf =  0.00628    CDp =  0.00484

 Side 1  free  transition at x/c =  0.3207   41
 Side 2 forced transition at x/c =  1.0000   74

   5   rms: 0.3365E-05   max: -.4626E-04   C at   41  1
       a =  5.500      CL =  0.7926
      Cm = -0.0383     CD =  0.01112   =>   CDf =  0.00628    CDp =  0.00484
 plradd ia,ip,cpol           20           0  8.57915170E-03

 Point added to stored polar  1
 Point written to save file  hq1512_Re300k.base.pol                          
 Dump file unspecified or not available
 Calculating wake trajectory ...
 Calculating source influence matrix ...

 Solving BL system ...

 Side 1  free  transition at x/c =  0.3207   41
 Side 2 forced transition at x/c =  1.0000   74

   1   rms: 0.1091E+00   max: 0.1403E+01   C at   41  1
       a =  6.000      CL =  0.8375
      Cm = -0.0368     CD =  0.01202   =>   CDf =  0.00628    CDp =  0.00573

 Side 1  free  transition at x/c =  0.2734   38
 Side 2 forced transition at x/c =  1.0000   74

   2   rms: 0.2199E-01   max: 0.2391E+00   D at   40  1
       a =  6.000      CL =  0.8371
      Cm = -0.0368     CD =  0.01200   =>   CDf =  0.00657    CDp =  0.00543

 Side 1  free  transition at x/c =  0.2786   38
 Side 2 forced transition at x/c =  1.0000   74

   3   rms: 0.3848E-02   max: 0.6077E-01   C at   38  1
       a =  6.000      CL =  0.8371
      Cm = -0.0368     CD =  0.01202   =>   CDf =  0.00648    CDp =  0.00555

 Side 1  free  transition at x/c =  0.2769   38
 Side 2 forced transition at x/c =  1.0000   74

   4   rms: 0.1115E-03   max: -.1850E-02   D at   40  1
       a =  6.000      CL =  0.8370
      Cm = -0.0368     CD =  0.01202   =>   CDf =  0.00649    CDp =  0.00553

 Side 1  free  transition at x/c =  0.2769   38
 Side 2 forced transition at x/c =  1.0000   74

   5   rms: 0.9383E-06   max: -.5746E-05   D at    4  2
       a =  6.000      CL =  0.8370
      Cm = -0.0368     CD =  0.01202   =>   CDf =  0.00649    CDp =  0.00553
 plradd ia,ip,cpol           21           0  8.57915170E-03

 Point added to stored polar  1
 Point written to save file  hq1512_Re300k.base.pol                          
 Dump file unspecified or not available
 Calculating wake trajectory ...
 Calculating source influence matrix ...

 Solving BL system ...

 Side 1  free  transition at x/c =  0.2769   38
 Side 2 forced transition at x/c =  1.0000   74

   1   rms: 0.8909E-01   max: 0.7000E+00   C at   38  1
       a =  6.500      CL =  0.8840
      Cm = -0.0356     CD =  0.01279   =>   CDf =  0.00626    CDp =  0.00653

 Side 1  free  transition at x/c =  0.2374   36
 Side 2 forced transition at x/c =  1.0000   73

   2   rms: 0.2539E-01   max: -.4685E+00   D at   37  1
       a =  6.500      CL =  0.8804
      Cm = -0.0351     CD =  0.01303   =>   CDf =  0.00670    CDp =  0.00633

 Side 1  free  transition at x/c =  0.2436   37
 Side 2 forced transition at x/c =  1.0000   73

   3   rms: 0.7143E-02   max: 0.8819E-01   C at   37  1
       a =  6.500      CL =  0.8823
      Cm = -0.0353     CD =  0.01287   =>   CDf =  0.00657    CDp =  0.00629

 Side 1  free  transition at x/c =  0.2413   37
 Side 2 forced transition at x/c =  1.0000   73

   4   rms: 0.1837E-03   max: -.2829E-02   D at   38  1
       a =  6.500      CL =  0.8823
      Cm = -0.0353     CD =  0.01286   =>   CDf =  0.00659    CDp =  0.00627

 Side 1  free  transition at x/c =  0.2412   37
 Side 2 forced transition at x/c =  1.0000   73

   5   rms: 0.9841E-06   max: -.5373E-05   C at   73  2
       a =  6.500      CL =  0.8823
      Cm = -0.0353     CD =  0.01286   =>   CDf =  0.00659    CDp =  0.00627
 plradd ia,ip,cpol           22           0  8.57915170E-03

 Point added to stored polar  1
 Point written to save file  hq1512_Re300k.base.pol                          
 Dump file unspecified or not available
 Calculating wake trajectory ...
 Calculating source influence matrix ...

 Solving BL system ...

 Side 1  free  transition at x/c =  0.2412   37
 Side 2 forced transition at x/c =  1.0000   73

   1   rms: 0.9853E-01   max: 0.7063E+00   C at   37  1   RLX: 0.859
       a =  7.000      CL =  0.9192
      Cm = -0.0339     CD =  0.01375   =>   CDf =  0.00659    CDp =  0.00717

 Side 1  free  transition at x/c =  0.2092   35
 Side 2 forced transition at x/c =  1.0000   73

   2   rms: 0.2834E-01   max: -.4194E+00   D at   35  1
       a =  7.000      CL =  0.9268
      Cm = -0.0338     CD =  0.01373   =>   CDf =  0.00667    CDp =  0.00705

 Side 1  free  transition at x/c =  0.2027   34
 Side 2 forced transition at x/c =  1.0000   73

   3   rms: 0.3602E-02   max: -.6463E-01   D at   35  1
       a =  7.000      CL =  0.9277
      Cm = -0.0339     CD =  0.01365   =>   CDf =  0.00666    CDp =  0.00700

 Side 1  free  transition at x/c =  0.2006   34
 Side 2 forced transition at x/c =  1.0000   73

   4   rms: 0.2114E-03   max: -.3009E-02   C at   34  1
       a =  7.000      CL =  0.9276
      Cm = -0.0339     CD =  0.01365   =>   CDf =  0.00666    CDp =  0.00699

 Side 1  free  transition at x/c =  0.2006   34
 Side 2 forced transition at x/c =  1.0000   73

   5   rms: 0.1902E-05   max: 0.1085E-04   C at   73  2
       a =  7.000      CL =  0.9276
      Cm = -0.0339     CD =  0.01365   =>   CDf =  0.00666    CDp =  0.00699
 plradd ia,ip,cpol           23           0  8.57915170E-03

 Point added to stored polar  1
 Point written to save file  hq1512_Re300k.base.pol                          
 Dump file unspecified or not available
 Calculating wake trajectory ...
 Calculating source influence matrix ...

 Solving BL system ...

 Side 1  free  transition at x/c =  0.2006   34
 Side 2 forced transition at x/c =  1.0000   73

   1   rms: 0.1007E+00   max: 0.8872E+00   C at   34  1   RLX: 0.777
       a =  7.500      CL =  0.9623
      Cm = -0.0328     CD =  0.01435   =>   CDf =  0.00640    CDp =  0.00795

 Side 1  free  transition at x/c =  0.1579   32
 Side 2 forced transition at x/c =  1.0000   72

   2   rms: 0.3498E-01   max: -.4139E+00   D at   32  1
       a =  7.500      CL =  0.9692
      Cm = -0.0320     CD =  0.01475   =>   CDf =  0.00683    CDp =  0.00792

 Side 1  free  transition at x/c =  0.1323   30
 Side 2 forced transition at x/c =  1.0000   72

   3   rms: 0.1068E-01   max: -.1496E+00   D at   32  1
       a =  7.500      CL =  0.9668
      Cm = -0.0317     CD =  0.01492   =>   CDf =  0.00698    CDp =  0.00794

 Side 1  free  transition at x/c =  0.1301   30
 Side 2 forced transition at x/c =  1.0000   72

   4   rms: 0.9626E-03   max: 0.1596E-01   C at   30  1
       a =  7.500      CL =  0.9668
      Cm = -0.0317     CD =  0.01492   =>   CDf =  0.00699    CDp =  0.00793

 Side 1  free  transition at x/c =  0.1297   30
 Side 2 forced transition at x/c =  1.0000   72

   5   rms: 0.1372E-04   max: -.2277E-03   C at   30  1
       a =  7.500      CL =  0.9668
      Cm = -0.0317     CD =  0.01492   =>   CDf =  0.00699    CDp =  0.00793
 plradd ia,ip,cpol           24           0  2.15179592E-04

 Point added to stored polar  1
 Point written to save file  hq1512_Re300k.base.pol                          
 Dump file unspecified or not available
 Calculating wake trajectory ...
 Calculating source influence matrix ...

 Solving BL system ...

 Side 1  free  transition at x/c =  0.1297   30
 Side 2 forced transition at x/c =  1.0000   72

   1   rms: 0.1693E+00   max: 0.2601E+01   C at   30  1   RLX: 0.427
       a =  8.000      CL =  0.9801
      Cm = -0.0304     CD =  0.01581   =>   CDf =  0.00700    CDp =  0.00881

 Side 1  free  transition at x/c =  0.1055   28
 Side 2 forced transition at x/c =  1.0000   72

   2   rms: 0.6975E-01   max: -.5461E+00   D at   28  1   RLX: 0.916
       a =  8.000      CL =  0.9991
      Cm = -0.0289     CD =  0.01664   =>   CDf =  0.00717    CDp =  0.00947

 Side 1  free  transition at x/c =  0.0860   27
 Side 2 forced transition at x/c =  1.0000   72

   3   rms: 0.2044E-01   max: -.2665E+00   D at   28  1
       a =  8.000      CL =  0.9984
      Cm = -0.0285     CD =  0.01682   =>   CDf =  0.00735    CDp =  0.00946

 Side 1  free  transition at x/c =  0.0855   27
 Side 2 forced transition at x/c =  1.0000   72

   4   rms: 0.3327E-02   max: -.4078E-01   D at   28  1
       a =  8.000      CL =  0.9983
      Cm = -0.0284     CD =  0.01681   =>   CDf =  0.00732    CDp =  0.00949

 Side 1  free  transition at x/c =  0.0848   27
 Side 2 forced transition at x/c =  1.0000   72

   5   rms: 0.2203E-03   max: -.2387E-02   D at   27  1
       a =  8.000      CL =  0.9982
      Cm = -0.0284     CD =  0.01681   =>   CDf =  0.00733    CDp =  0.00948

 Side 1  free  transition at x/c =  0.0847   27
 Side 2 forced transition at x/c =  1.0000   72

   6   rms: 0.2899E-05   max: -.9732E-05   C at   72  2
       a =  8.000      CL =  0.9982
      Cm = -0.0284     CD =  0.01681   =>   CDf =  0.00733    CDp =  0.00948
 plradd ia,ip,cpol           25           0  2.15179592E-04

 Point added to stored polar  1
 Point written to save file  hq1512_Re300k.base.pol                          
 Dump file unspecified or not available
 Calculating wake trajectory ...
 Calculating source influence matrix ...

 Solving BL system ...

 Side 1  free  transition at x/c =  0.0847   27
 Side 2 forced transition at x/c =  1.0000   72

   1   rms: 0.1286E+00   max: 0.5906E+00   C at   27  1
       a =  8.500      CL =  1.0181
      Cm = -0.0234     CD =  0.01976   =>   CDf =  0.00734    CDp =  0.01243

 Side 1  free  transition at x/c =  0.0692   25
 Side 2 forced transition at x/c =  1.0000   72

   2   rms: 0.5373E-01   max: -.5043E+00   D at   27  1   RLX: 0.991
       a =  8.500      CL =  1.0295
      Cm = -0.0250     CD =  0.01821   =>   CDf =  0.00735    CDp =  0.01086

 Side 1  free  transition at x/c =  0.0710   25
 Side 2 forced transition at x/c =  1.0000   72

   3   rms: 0.7109E-02   max: -.1974E-01   D at   79  2
       a =  8.500      CL =  1.0330
      Cm = -0.0255     CD =  0.01832   =>   CDf =  0.00733    CDp =  0.01099

 Side 1  free  transition at x/c =  0.0700   25
 Side 2 forced transition at x/c =  1.0000   72

   4   rms: 0.2099E-03   max: -.1199E-02   D at   27  1
       a =  8.500      CL =  1.0329
      Cm = -0.0255     CD =  0.01832   =>   CDf =  0.00732    CDp =  0.01100

 Side 1  free  transition at x/c =  0.0700   25
 Side 2 forced transition at x/c =  1.0000   72

   5   rms: 0.3234E-05   max: 0.9402E-05   T at   25  1
       a =  8.500      CL =  1.0329
      Cm = -0.0255     CD =  0.01832   =>   CDf =  0.00732    CDp =  0.01100
 plradd ia,ip,cpol           26           0  2.15179592E-04

 Point added to stored polar  1
 Point written to save file  hq1512_Re300k.base.pol                          
 Dump file unspecified or not available
 Calculating wake trajectory ...
 Calculating source influence matrix ...

 Solving BL system ...

 Side 1  free  transition at x/c =  0.0700   25
 Side 2 forced transition at x/c =  1.0000   72

   1   rms: 0.7678E-01   max: 0.4648E+00   T at   25  1
       a =  9.000      CL =  1.0735
      Cm = -0.0233     CD =  0.01942   =>   CDf =  0.00702    CDp =  0.01241

 Side 1  free  transition at x/c =  0.0590   25
 Side 2 forced transition at x/c =  1.0000   71

   2   rms: 0.1653E-01   max: -.9356E-01   D at   25  1
       a =  9.000      CL =  1.0621
      Cm = -0.0219     CD =  0.02004   =>   CDf =  0.00730    CDp =  0.01274

 Side 1  free  transition at x/c =  0.0596   25
 Side 2 forced transition at x/c =  1.0000   71

   3   rms: 0.4871E-02   max: -.4277E-01   D at   25  1
       a =  9.000      CL =  1.0624
      Cm = -0.0220     CD =  0.02004   =>   CDf =  0.00732    CDp =  0.01273

 Side 1  free  transition at x/c =  0.0596   25
 Side 2 forced transition at x/c =  1.0000   71

   4   rms: 0.2379E-03   max: 0.1132E-02   T at   25  1
       a =  9.000      CL =  1.0626
      Cm = -0.0220     CD =  0.02005   =>   CDf =  0.00732    CDp =  0.01273

 Side 1  free  transition at x/c =  0.0596   25
 Side 2 forced transition at x/c =  1.0000   71

   5   rms: 0.1635E-05   max: -.1052E-04   D at   25  1
       a =  9.000      CL =  1.0626
      Cm = -0.0220     CD =  0.02005   =>   CDf =  0.00731    CDp =  0.01273
 plradd ia,ip,cpol           27           0  2.15179592E-04

 Point added to stored polar  1
 Point written to save file  hq1512_Re300k.base.pol                          
 Dump file unspecified or not available
 Calculating wake trajectory ...
 Calculating source influence matrix ...

 Solving BL system ...

 Side 1  free  transition at x/c =  0.0596   25
 Side 2 forced transition at x/c =  1.0000   71

   1   rms: 0.7707E-01   max: -.6278E+00   C at   25  1   RLX: 0.796
       a =  9.500      CL =  1.0984
      Cm = -0.0208     CD =  0.02049   =>   CDf =  0.00732    CDp =  0.01317

 Side 1  free  transition at x/c =  0.0542   25
 Side 2 forced transition at x/c =  1.0000   71

   2   rms: 0.1306E-01   max: 0.6669E-01   T at   25  1
       a =  9.500      CL =  1.0983
      Cm = -0.0193     CD =  0.02110   =>   CDf =  0.00717    CDp =  0.01393

 Side 1  free  transition at x/c =  0.0531   25
 Side 2 forced transition at x/c =  1.0000   71

   3   rms: 0.1121E-02   max: 0.5267E-02   D at   91  1
       a =  9.500      CL =  1.0974
      Cm = -0.0191     CD =  0.02110   =>   CDf =  0.00716    CDp =  0.01394

 Side 1  free  transition at x/c =  0.0531   25
 Side 2 forced transition at x/c =  1.0000   71

   4   rms: 0.2681E-04   max: -.1349E-03   D at   91  1
       a =  9.500      CL =  1.0974
      Cm = -0.0191     CD =  0.02110   =>   CDf =  0.00716    CDp =  0.01394
 plradd ia,ip,cpol           28           0  2.15179592E-04

 Point added to stored polar  1
 Point written to save file  hq1512_Re300k.base.pol                          
 Dump file unspecified or not available
 Calculating wake trajectory ...
 Calculating source influence matrix ...

 Solving BL system ...

 Side 1  free  transition at x/c =  0.0531   25
 Side 2 forced transition at x/c =  1.0000   71

   1   rms: 0.7129E-01   max: 0.3619E+00   T at   25  1
       a = 10.000      CL =  1.1277
      Cm = -0.0158     CD =  0.02250   =>   CDf =  0.00716    CDp =  0.01534

 Side 1  free  transition at x/c =  0.0485   25
 Side 2 forced transition at x/c =  1.0000   71

   2   rms: 0.1535E-01   max: 0.6172E-01   D at   24  1
       a = 10.000      CL =  1.1148
      Cm = -0.0142     CD =  0.02342   =>   CDf =  0.00711    CDp =  0.01631

 Side 1  free  transition at x/c =  0.0479   24
 Side 2 forced transition at x/c =  1.0000   71

   3   rms: 0.1829E-02   max: -.1202E-01   D at   25  1
       a = 10.000      CL =  1.1153
      Cm = -0.0143     CD =  0.02335   =>   CDf =  0.00714    CDp =  0.01621

 Side 1  free  transition at x/c =  0.0479   24
 Side 2 forced transition at x/c =  1.0000   71

   4   rms: 0.1188E-03   max: -.5509E-03   D at   88  1
       a = 10.000      CL =  1.1154
      Cm = -0.0143     CD =  0.02335   =>   CDf =  0.00714    CDp =  0.01621

 Side 1  free  transition at x/c =  0.0479   24
 Side 2 forced transition at x/c =  1.0000   71

   5   rms: 0.7280E-06   max: -.5096E-05   D at   85  2
       a = 10.000      CL =  1.1154
      Cm = -0.0143     CD =  0.02335   =>   CDf =  0.00714    CDp =  0.01621
 plradd ia,ip,cpol           29           0  2.15179592E-04

 Point added to stored polar  1
 Point written to save file  hq1512_Re300k.base.pol                          
 Dump file unspecified or not available

.OPERva   c>  
 Solving BL system ...

 Side 1  free  transition at x/c =  0.0479   24
 Side 2 forced transition at x/c =  1.0000   71

   1   rms: 0.3283E-06   max: -.1449E-05   D at   30  2
       a = 10.000      CL =  1.1154
      Cm = -0.0143     CD =  0.02335   =>   CDf =  0.00714    CDp =  0.01621
 plradd ia,ip,cpol           30         182  2.15179592E-04

 Point added to stored polar  1
 Point written to save file  hq1512_Re300k.base.pol                          
 Dump file unspecified or not available
 Calculating wake trajectory ...
 Calculating source influence matrix ...

 Solving BL system ...

 Side 1  free  transition at x/c =  0.0479   24
 Side 2 forced transition at x/c =  1.0000   71

   1   rms: 0.3347E-01   max: 0.1595E+00   T at   24  1
       a = 10.250      CL =  1.1323
      Cm = -0.0130     CD =  0.02395   =>   CDf =  0.00714    CDp =  0.01681

 Side 1  free  transition at x/c =  0.0467   24
 Side 2 forced transition at x/c =  1.0000   71

   2   rms: 0.2056E-02   max: 0.1328E-01   D at   24  1
       a = 10.250      CL =  1.1308
      Cm = -0.0128     CD =  0.02402   =>   CDf =  0.00702    CDp =  0.01700

 Side 1  free  transition at x/c =  0.0466   24
 Side 2 forced transition at x/c =  1.0000   71

   3   rms: 0.4765E-04   max: 0.4007E-03   D at   86  1
       a = 10.250      CL =  1.1308
      Cm = -0.0128     CD =  0.02401   =>   CDf =  0.00702    CDp =  0.01700
 plradd ia,ip,cpol           31           0  2.15179592E-04

 Point added to stored polar  1
 Point written to save file  hq1512_Re300k.base.pol                          
 Dump file unspecified or not available
 Calculating wake trajectory ...
 Calculating source influence matrix ...

 Solving BL system ...

 Side 1  free  transition at x/c =  0.0466   24
 Side 2 forced transition at x/c =  1.0000   71

   1   rms: 0.3350E-01   max: 0.1413E+00   T at   24  1
       a = 10.500      CL =  1.1463
      Cm = -0.0113     CD =  0.02478   =>   CDf =  0.00664    CDp =  0.01814

 Side 1  free  transition at x/c =  0.0448   25
 Side 2 forced transition at x/c =  1.0000   70

   2   rms: 0.3291E-02   max: -.3789E-01   D at    2  1
       a = 10.500      CL =  1.1448
      Cm = -0.0112     CD =  0.02481   =>   CDf =  0.00689    CDp =  0.01791

 Side 1  free  transition at x/c =  0.0449   25
 Side 2 forced transition at x/c =  1.0000   70

   3   rms: 0.1008E-02   max: -.1219E-01   D at    4  1
       a = 10.500      CL =  1.1448
      Cm = -0.0112     CD =  0.02481   =>   CDf =  0.00689    CDp =  0.01791

 Side 1  free  transition at x/c =  0.0449   25
 Side 2 forced transition at x/c =  1.0000   70

   4   rms: 0.9201E-06   max: 0.8392E-05   C at   70  2
       a = 10.500      CL =  1.1448
      Cm = -0.0112     CD =  0.02481   =>   CDf =  0.00689    CDp =  0.01791
 plradd ia,ip,cpol           32           0 -1.37307616E-05

 Point added to stored polar  1
 Point written to save file  hq1512_Re300k.base.pol                          
 Dump file unspecified or not available
 Calculating wake trajectory ...
 Calculating source influence matrix ...

 Solving BL system ...

 Side 1  free  transition at x/c =  0.0449   25
 Side 2 forced transition at x/c =  1.0000   70

   1   rms: 0.3357E-01   max: 0.1303E+00   T at   25  1
       a = 10.750      CL =  1.1593
      Cm = -0.0098     CD =  0.02567   =>   CDf =  0.00690    CDp =  0.01878

 Side 1  free  transition at x/c =  0.0427   25
 Side 2 forced transition at x/c =  1.0000   70

   2   rms: 0.5899E-02   max: -.5416E-01   D at   25  1
       a = 10.750      CL =  1.1577
      Cm = -0.0096     CD =  0.02563   =>   CDf =  0.00681    CDp =  0.01882

 Side 1  free  transition at x/c =  0.0429   25
 Side 2 forced transition at x/c =  1.0000   70

   3   rms: 0.6081E-03   max: -.2632E-02   D at   86  1
       a = 10.750      CL =  1.1581
      Cm = -0.0097     CD =  0.02562   =>   CDf =  0.00681    CDp =  0.01881

 Side 1  free  transition at x/c =  0.0429   25
 Side 2 forced transition at x/c =  1.0000   70

   4   rms: 0.2833E-05   max: -.1506E-04   D at   25  1
       a = 10.750      CL =  1.1581
      Cm = -0.0097     CD =  0.02563   =>   CDf =  0.00681    CDp =  0.01881
 plradd ia,ip,cpol           33           0 -1.37307616E-05

 Point added to stored polar  1
 Point written to save file  hq1512_Re300k.base.pol                          
 Dump file unspecified or not available
 Calculating wake trajectory ...
 Calculating source influence matrix ...

 Solving BL system ...

 Side 1  free  transition at x/c =  0.0429   25
 Side 2 forced transition at x/c =  1.0000   70

   1   rms: 0.3353E-01   max: 0.1467E+00   T at   25  1
       a = 11.000      CL =  1.1720
      Cm = -0.0083     CD =  0.02648   =>   CDf =  0.00681    CDp =  0.01967

 Side 1  free  transition at x/c =  0.0405   25
 Side 2 forced transition at x/c =  1.0000   70

   2   rms: 0.9489E-02   max: -.8982E-01   D at   25  1
       a = 11.000      CL =  1.1698
      Cm = -0.0081     CD =  0.02645   =>   CDf =  0.00676    CDp =  0.01969

 Side 1  free  transition at x/c =  0.0409   25
 Side 2 forced transition at x/c =  1.0000   70

   3   rms: 0.1162E-02   max: -.4985E-02   D at   85  1
       a = 11.000      CL =  1.1706
      Cm = -0.0082     CD =  0.02645   =>   CDf =  0.00676    CDp =  0.01969

 Side 1  free  transition at x/c =  0.0408   25
 Side 2 forced transition at x/c =  1.0000   70

   4   rms: 0.5219E-05   max: 0.6086E-04   D at   83  1
       a = 11.000      CL =  1.1706
      Cm = -0.0082     CD =  0.02645   =>   CDf =  0.00676    CDp =  0.01969
 plradd ia,ip,cpol           34           0 -1.37307616E-05

 Point added to stored polar  1
 Point written to save file  hq1512_Re300k.base.pol                          
 Dump file unspecified or not available
 Calculating wake trajectory ...
 Calculating source influence matrix ...

 Solving BL system ...

 Side 1  free  transition at x/c =  0.0408   25
 Side 2 forced transition at x/c =  1.0000   70

   1   rms: 0.3550E-01   max: 0.1877E+00   T at   25  1
       a = 11.250      CL =  1.1827
      Cm = -0.0069     CD =  0.02740   =>   CDf =  0.00676    CDp =  0.02064

 Side 1  free  transition at x/c =  0.0385   25
 Side 2 forced transition at x/c =  1.0000   70

   2   rms: 0.6297E-02   max: 0.2634E-01   D at   24  1
       a = 11.250      CL =  1.1777
      Cm = -0.0064     CD =  0.02789   =>   CDf =  0.00675    CDp =  0.02113

 Side 1  free  transition at x/c =  0.0383   25
 Side 2 forced transition at x/c =  1.0000   70

   3   rms: 0.1536E-03   max: 0.1302E-02   D at   77  2
       a = 11.250      CL =  1.1776
      Cm = -0.0064     CD =  0.02788   =>   CDf =  0.00676    CDp =  0.02112

 Side 1  free  transition at x/c =  0.0383   25
 Side 2 forced transition at x/c =  1.0000   70

   4   rms: 0.5955E-05   max: -.2157E-04   C at   70  2
       a = 11.250      CL =  1.1776
      Cm = -0.0064     CD =  0.02788   =>   CDf =  0.00676    CDp =  0.02112
 plradd ia,ip,cpol           35           0 -1.37307616E-05

 Point added to stored polar  1
 Point written to save file  hq1512_Re300k.base.pol                          
 Dump file unspecified or not available
 Calculating wake trajectory ...
 Calculating source influence matrix ...

 Solving BL system ...

 Side 1  free  transition at x/c =  0.0383   25
 Side 2 forced transition at x/c =  1.0000   70

   1   rms: 0.5244E-01   max: 0.1831E+00   T at   25  1
       a = 11.500      CL =  1.1820
      Cm = -0.0045     CD =  0.03028   =>   CDf =  0.00676    CDp =  0.02351

 Side 1  free  transition at x/c =  0.0364   24
 Side 2 forced transition at x/c =  1.0000   70

   2   rms: 0.2768E-01   max: -.2380E+00   D at   24  1
       a = 11.500      CL =  1.1844
      Cm = -0.0047     CD =  0.02902   =>   CDf =  0.00663    CDp =  0.02239

 Side 1  free  transition at x/c =  0.0368   24
 Side 2 forced transition at x/c =  1.0000   70

   3   rms: 0.6165E-02   max: 0.2378E-01   T at   24  1
       a = 11.500      CL =  1.1894
      Cm = -0.0051     CD =  0.02885   =>   CDf =  0.00665    CDp =  0.02221

 Side 1  free  transition at x/c =  0.0366   24
 Side 2 forced transition at x/c =  1.0000   70

   4   rms: 0.7688E-04   max: 0.9070E-03   D at   80  1
       a = 11.500      CL =  1.1893
      Cm = -0.0051     CD =  0.02887   =>   CDf =  0.00664    CDp =  0.02223
 plradd ia,ip,cpol           36           0 -1.37307616E-05

 Point added to stored polar  1
 Point written to save file  hq1512_Re300k.base.pol                          
 Dump file unspecified or not available
 Calculating wake trajectory ...
 Calculating source influence matrix ...

 Solving BL system ...

 Side 1  free  transition at x/c =  0.0366   24
 Side 2 forced transition at x/c =  1.0000   70

   1   rms: 0.3239E-01   max: 0.1436E+00   T at   24  1
       a = 11.750      CL =  1.2031
      Cm = -0.0040     CD =  0.02978   =>   CDf =  0.00664    CDp =  0.02314

 Side 1  free  transition at x/c =  0.0350   24
 Side 2 forced transition at x/c =  1.0000   70

   2   rms: 0.2121E-02   max: 0.1086E-01   D at   80  1
       a = 11.750      CL =  1.2015
      Cm = -0.0039     CD =  0.02982   =>   CDf =  0.00651    CDp =  0.02331

 Side 1  free  transition at x/c =  0.0351   24
 Side 2 forced transition at x/c =  1.0000   70

   3   rms: 0.9233E-04   max: -.4155E-03   D at   81  1
       a = 11.750      CL =  1.2015
      Cm = -0.0039     CD =  0.02982   =>   CDf =  0.00651    CDp =  0.02331
 plradd ia,ip,cpol           37           0 -1.37307616E-05

 Point added to stored polar  1
 Point written to save file  hq1512_Re300k.base.pol                          
 Dump file unspecified or not available
 Calculating wake trajectory ...
 Calculating source influence matrix ...

 Solving BL system ...

 Side 1  free  transition at x/c =  0.0351   24
 Side 2 forced transition at x/c =  1.0000   70

   1   rms: 0.3315E-01   max: 0.1618E+00   T at   24  1
       a = 12.000      CL =  1.2149
      Cm = -0.0029     CD =  0.03071   =>   CDf =  0.00651    CDp =  0.02420

 Side 1  free  transition at x/c =  0.0326   24
 Side 2 forced transition at x/c =  1.0000   70

   2   rms: 0.6665E-02   max: -.6226E-01   D at   24  1
       a = 12.000      CL =  1.2134
      Cm = -0.0029     CD =  0.03066   =>   CDf =  0.00642    CDp =  0.02424

 Side 1  free  transition at x/c =  0.0328   24
 Side 2 forced transition at x/c =  1.0000   70

   3   rms: 0.8667E-03   max: -.3319E-02   D at   80  1
       a = 12.000      CL =  1.2140
      Cm = -0.0029     CD =  0.03064   =>   CDf =  0.00642    CDp =  0.02422

 Side 1  free  transition at x/c =  0.0328   24
 Side 2 forced transition at x/c =  1.0000   70

   4   rms: 0.1814E-04   max: -.8937E-04   D at   79  2
       a = 12.000      CL =  1.2140
      Cm = -0.0029     CD =  0.03064   =>   CDf =  0.00642    CDp =  0.02422
 plradd ia,ip,cpol           38           0 -1.37307616E-05

 Point added to stored polar  1
 Point written to save file  hq1512_Re300k.base.pol                          
 Dump file unspecified or not available
 Calculating wake trajectory ...
 Calculating source influence matrix ...

 Solving BL system ...

 Side 1  free  transition at x/c =  0.0328   24
 Side 2 forced transition at x/c =  1.0000   70

   1   rms: 0.3569E-01   max: 0.1887E+00   T at   24  1
       a = 12.250      CL =  1.2271
      Cm = -0.0022     CD =  0.03150   =>   CDf =  0.00642    CDp =  0.02508

 Side 1  free  transition at x/c =  0.0307   24
 Side 2 forced transition at x/c =  1.0000   70

   2   rms: 0.3992E-02   max: 0.1829E-01   D at   78  1
       a = 12.250      CL =  1.2242
      Cm = -0.0020     CD =  0.03171   =>   CDf =  0.00638    CDp =  0.02533

 Side 1  free  transition at x/c =  0.0306   24
 Side 2 forced transition at x/c =  1.0000   70

   3   rms: 0.1157E-03   max: 0.9687E-03   D at   79  2
       a = 12.250      CL =  1.2241
      Cm = -0.0020     CD =  0.03171   =>   CDf =  0.00638    CDp =  0.02533

 Side 1  free  transition at x/c =  0.0306   24
 Side 2 forced transition at x/c =  1.0000   70

   4   rms: 0.1814E-05   max: -.2983E-04   C at   70  2
       a = 12.250      CL =  1.2241
      Cm = -0.0020     CD =  0.03171   =>   CDf =  0.00638    CDp =  0.02532
 plradd ia,ip,cpol           39           0 -1.37307616E-05

 Point added to stored polar  1
 Point written to save file  hq1512_Re300k.base.pol                          
 Dump file unspecified or not available
 Calculating wake trajectory ...
 Calculating source influence matrix ...

 Solving BL system ...

 Side 1  free  transition at x/c =  0.0306   24
 Side 2 forced transition at x/c =  1.0000   70

   1   rms: 0.3664E-01   max: 0.1654E+00   T at   24  1
       a = 12.500      CL =  1.2316
      Cm = -0.0010     CD =  0.03327   =>   CDf =  0.00592    CDp =  0.02734

 Side 1  free  transition at x/c =  0.0286   24
 Side 2 forced transition at x/c =  1.0000   69

   2   rms: 0.1126E-01   max: -.7409E-01   D at    2  1
       a = 12.500      CL =  1.2266
      Cm = -0.0006     CD =  0.03355   =>   CDf =  0.00631    CDp =  0.02724

 Side 1  free  transition at x/c =  0.0285   24
 Side 2 forced transition at x/c =  1.0000   69

   3   rms: 0.1752E-02   max: -.1185E-01   D at    4  1
       a = 12.500      CL =  1.2275
      Cm = -0.0006     CD =  0.03353   =>   CDf =  0.00631    CDp =  0.02722

 Side 1  free  transition at x/c =  0.0284   24
 Side 2 forced transition at x/c =  1.0000   69

   4   rms: 0.7432E-04   max: -.3757E-03   C at   24  1
       a = 12.500      CL =  1.2275
      Cm = -0.0006     CD =  0.03353   =>   CDf =  0.00631    CDp =  0.02722
 plradd ia,ip,cpol           40           0 -1.37307616E-05

 Point added to stored polar  1
 Point written to save file  hq1512_Re300k.base.pol                          
 Dump file unspecified or not available
 Calculating wake trajectory ...
 Calculating source influence matrix ...

 Solving BL system ...

 Side 1  free  transition at x/c =  0.0284   24
 Side 2 forced transition at x/c =  1.0000   69

   1   rms: 0.3836E-01   max: -.3207E+00   C at   24  1
       a = 12.750      CL =  1.2446
      Cm = -0.0003     CD =  0.03411   =>   CDf =  0.00631    CDp =  0.02780

 Side 1  free  transition at x/c =  0.0262   24
 Side 2 forced transition at x/c =  1.0000   69

   2   rms: 0.4275E-02   max: -.2787E-01   D at   25  1
       a = 12.750      CL =  1.2426
      Cm = -0.0002     CD =  0.03427   =>   CDf =  0.00614    CDp =  0.02814

 Side 1  free  transition at x/c =  0.0257   24
 Side 2 forced transition at x/c =  1.0000   69

   3   rms: 0.3603E-03   max: -.2705E-02   D at   24  1
       a = 12.750      CL =  1.2426
      Cm = -0.0002     CD =  0.03427   =>   CDf =  0.00614    CDp =  0.02814

 Side 1  free  transition at x/c =  0.0256   24
 Side 2 forced transition at x/c =  1.0000   69

   4   rms: 0.3810E-04   max: 0.1414E-03   T at   24  1
       a = 12.750      CL =  1.2426
      Cm = -0.0002     CD =  0.03427   =>   CDf =  0.00614    CDp =  0.02813
 plradd ia,ip,cpol           41           0 -1.37307616E-05

 Point added to stored polar  1
 Point written to save file  hq1512_Re300k.base.pol                          
 Dump file unspecified or not available
 Calculating wake trajectory ...
 Calculating source influence matrix ...

 Solving BL system ...

 Side 1  free  transition at x/c =  0.0256   24
 Side 2 forced transition at x/c =  1.0000   69

   1   rms: 0.3830E-01   max: 0.2476E+00   T at   24  1   RLX: 0.986
       a = 13.000      CL =  1.2566
      Cm =  0.0003     CD =  0.03524   =>   CDf =  0.00614    CDp =  0.02910

 Side 1  free  transition at x/c =  0.0222   24
 Side 2 forced transition at x/c =  1.0000   69

   2   rms: 0.1029E-01   max: -.8843E-01   D at   24  1
       a = 13.000      CL =  1.2513
      Cm =  0.0005     CD =  0.03559   =>   CDf =  0.00611    CDp =  0.02948

 Side 1  free  transition at x/c =  0.0224   24
 Side 2 forced transition at x/c =  1.0000   69

   3   rms: 0.8976E-03   max: -.5704E-02   D at   24  1
       a = 13.000      CL =  1.2518
      Cm =  0.0004     CD =  0.03558   =>   CDf =  0.00612    CDp =  0.02946

 Side 1  free  transition at x/c =  0.0224   24
 Side 2 forced transition at x/c =  1.0000   69

   4   rms: 0.2328E-04   max: 0.1198E-03   D at   74  1
       a = 13.000      CL =  1.2518
      Cm =  0.0004     CD =  0.03559   =>   CDf =  0.00612    CDp =  0.02947
 plradd ia,ip,cpol           42           0 -1.37307616E-05

 Point added to stored polar  1
 Point written to save file  hq1512_Re300k.base.pol                          
 Dump file unspecified or not available
 Calculating wake trajectory ...
 Calculating source influence matrix ...

 Solving BL system ...

 Side 1  free  transition at x/c =  0.0224   24
 Side 2 forced transition at x/c =  1.0000   69

   1   rms: 0.4755E-01   max: -.1598E+00   D at   25  1   RLX: 0.920
       a = 13.250      CL =  1.2498
      Cm =  0.0013     CD =  0.03820   =>   CDf =  0.00612    CDp =  0.03208

 Side 1  free  transition at x/c =  0.0203   23
 Side 2 forced transition at x/c =  1.0000   69

   2   rms: 0.2623E-01   max: -.2137E+00   D at   23  1
       a = 13.250      CL =  1.2545
      Cm =  0.0013     CD =  0.03742   =>   CDf =  0.00598    CDp =  0.03144

 Side 1  free  transition at x/c =  0.0193   23
 Side 2 forced transition at x/c =  1.0000   69

   3   rms: 0.4991E-02   max: 0.3184E-01   T at   23  1
       a = 13.250      CL =  1.2571
      Cm =  0.0013     CD =  0.03737   =>   CDf =  0.00600    CDp =  0.03138

 Side 1  free  transition at x/c =  0.0190   23
 Side 2 forced transition at x/c =  1.0000   69

   4   rms: 0.1921E-03   max: -.2010E-02   D at   23  1
       a = 13.250      CL =  1.2572
      Cm =  0.0012     CD =  0.03741   =>   CDf =  0.00600    CDp =  0.03141

 Side 1  free  transition at x/c =  0.0190   23
 Side 2 forced transition at x/c =  1.0000   69

   5   rms: 0.1816E-04   max: 0.8711E-04   T at   23  1
       a = 13.250      CL =  1.2572
      Cm =  0.0012     CD =  0.03741   =>   CDf =  0.00600    CDp =  0.03141
 plradd ia,ip,cpol           43           0 -1.37307616E-05

 Point added to stored polar  1
 Point written to save file  hq1512_Re300k.base.pol                          
 Dump file unspecified or not available
 Calculating wake trajectory ...
 Calculating source influence matrix ...

 Solving BL system ...

 Side 1  free  transition at x/c =  0.0190   23
 Side 2 forced transition at x/c =  1.0000   69

   1   rms: 0.3754E-01   max: 0.2205E+00   T at   23  1   RLX: 0.898
       a = 13.500      CL =  1.2642
      Cm =  0.0017     CD =  0.03914   =>   CDf =  0.00601    CDp =  0.03313

 Side 1  free  transition at x/c =  0.0169   23
 Side 2 forced transition at x/c =  1.0000   69

   2   rms: 0.8332E-02   max: 0.3088E-01   D at   72  1
       a = 13.500      CL =  1.2606
      Cm =  0.0018     CD =  0.03948   =>   CDf =  0.00597    CDp =  0.03351

 Side 1  free  transition at x/c =  0.0172   23
 Side 2 forced transition at x/c =  1.0000   69

   3   rms: 0.3649E-03   max: -.3070E-02   D at   23  1
       a = 13.500      CL =  1.2606
      Cm =  0.0018     CD =  0.03945   =>   CDf =  0.00595    CDp =  0.03350

 Side 1  free  transition at x/c =  0.0172   23
 Side 2 forced transition at x/c =  1.0000   69

   4   rms: 0.3235E-04   max: 0.1570E-03   T at   23  1
       a = 13.500      CL =  1.2606
      Cm =  0.0018     CD =  0.03945   =>   CDf =  0.00595    CDp =  0.03350
 plradd ia,ip,cpol           44           0 -1.37307616E-05

 Point added to stored polar  1
 Point written to save file  hq1512_Re300k.base.pol                          
 Dump file unspecified or not available
 Calculating wake trajectory ...
 Calculating source influence matrix ...

 Solving BL system ...

 Side 1  free  transition at x/c =  0.0172   23
 Side 2 forced transition at x/c =  1.0000   69

   1   rms: 0.4078E-01   max: 0.1222E+00   D at   68  1   RLX: 0.850
       a = 13.750      CL =  1.2620
      Cm =  0.0021     CD =  0.04178   =>   CDf =  0.00595    CDp =  0.03583

 Side 1  free  transition at x/c =  0.0160   22
 Side 2 forced transition at x/c =  1.0000   69

   2   rms: 0.1208E-01   max: 0.6045E-01   D at   71  1
       a = 13.750      CL =  1.2546
      Cm =  0.0024     CD =  0.04267   =>   CDf =  0.00590    CDp =  0.03677

 Side 1  free  transition at x/c =  0.0159   22
 Side 2 forced transition at x/c =  1.0000   69

   3   rms: 0.6935E-03   max: 0.7814E-02   D at   70  1
       a = 13.750      CL =  1.2541
      Cm =  0.0025     CD =  0.04259   =>   CDf =  0.00588    CDp =  0.03671

 Side 1  free  transition at x/c =  0.0160   22
 Side 2 forced transition at x/c =  1.0000   69

   4   rms: 0.2316E-04   max: 0.1686E-03   D at   81  2
       a = 13.750      CL =  1.2541
      Cm =  0.0025     CD =  0.04259   =>   CDf =  0.00588    CDp =  0.03670
 plradd ia,ip,cpol           45           0 -1.37307616E-05

 Point added to stored polar  1
 Point written to save file  hq1512_Re300k.base.pol                          
 Dump file unspecified or not available
 Calculating wake trajectory ...
 Calculating source influence matrix ...

 Solving BL system ...

 Side 1  free  transition at x/c =  0.0160   22
 Side 2 forced transition at x/c =  1.0000   69

   1   rms: 0.3865E-01   max: -.2721E+00   C at   22  1   RLX: 0.808
       a = 14.000      CL =  1.2595
      Cm =  0.0027     CD =  0.04452   =>   CDf =  0.00589    CDp =  0.03863

 Side 1  free  transition at x/c =  0.0146   22
 Side 2 forced transition at x/c =  1.0000   69

   2   rms: 0.1108E-01   max: 0.5149E-01   D at   69  1
       a = 14.000      CL =  1.2554
      Cm =  0.0028     CD =  0.04531   =>   CDf =  0.00575    CDp =  0.03956

 Side 1  free  transition at x/c =  0.0146   22
 Side 2 forced transition at x/c =  1.0000   69

   3   rms: 0.1210E-02   max: 0.8670E-02   D at   81  2
       a = 14.000      CL =  1.2545
      Cm =  0.0028     CD =  0.04521   =>   CDf =  0.00571    CDp =  0.03950

 Side 1  free  transition at x/c =  0.0146   22
 Side 2 forced transition at x/c =  1.0000   69

   4   rms: 0.3773E-04   max: 0.5216E-03   D at   81  2
       a = 14.000      CL =  1.2545
      Cm =  0.0028     CD =  0.04520   =>   CDf =  0.00571    CDp =  0.03949
 plradd ia,ip,cpol           46           0 -1.37307616E-05

 Point added to stored polar  1
 Point written to save file  hq1512_Re300k.base.pol                          
 Dump file unspecified or not available
 Calculating wake trajectory ...
 Calculating source influence matrix ...

 Solving BL system ...

 Side 1  free  transition at x/c =  0.0146   22
 Side 2 forced transition at x/c =  1.0000   69

   1   rms: 0.3647E-01   max: 0.1191E+00   D at   65  1   RLX: 0.767
       a = 14.250      CL =  1.2560
      Cm =  0.0028     CD =  0.04756   =>   CDf =  0.00572    CDp =  0.04184

 Side 1  free  transition at x/c =  0.0140   22
 Side 2 forced transition at x/c =  1.0000   69

   2   rms: 0.9782E-02   max: 0.4404E-01   D at   67  1
       a = 14.250      CL =  1.2539
      Cm =  0.0028     CD =  0.04818   =>   CDf =  0.00562    CDp =  0.04257

 Side 1  free  transition at x/c =  0.0139   22
 Side 2 forced transition at x/c =  1.0000   69

   3   rms: 0.1098E-02   max: 0.5824E-02   D at   82  2
       a = 14.250      CL =  1.2531
      Cm =  0.0029     CD =  0.04809   =>   CDf =  0.00559    CDp =  0.04251

 Side 1  free  transition at x/c =  0.0139   22
 Side 2 forced transition at x/c =  1.0000   69

   4   rms: 0.3409E-04   max: 0.3080E-03   D at   82  2
       a = 14.250      CL =  1.2530
      Cm =  0.0029     CD =  0.04808   =>   CDf =  0.00559    CDp =  0.04250
 plradd ia,ip,cpol           47           0 -1.37307616E-05

 Point added to stored polar  1
 Point written to save file  hq1512_Re300k.base.pol                          
 Dump file unspecified or not available
 Calculating wake trajectory ...
 Calculating source influence matrix ...

 Solving BL system ...

 Side 1  free  transition at x/c =  0.0139   22
 Side 2 forced transition at x/c =  1.0000   69

   1   rms: 0.3686E-01   max: 0.1439E+00   T at   22  1   RLX: 0.733
       a = 14.500      CL =  1.2544
      Cm =  0.0026     CD =  0.05048   =>   CDf =  0.00559    CDp =  0.04489

 Side 1  free  transition at x/c =  0.0132   22
 Side 2 forced transition at x/c =  1.0000   69

   2   rms: 0.1126E-01   max: 0.5564E-01   D at   66  1
       a = 14.500      CL =  1.2515
      Cm =  0.0025     CD =  0.05134   =>   CDf =  0.00551    CDp =  0.04583

 Side 1  free  transition at x/c =  0.0131   22
 Side 2 forced transition at x/c =  1.0000   69

   3   rms: 0.1205E-02   max: 0.7478E-02   D at   65  1
       a = 14.500      CL =  1.2506
      Cm =  0.0026     CD =  0.05122   =>   CDf =  0.00548    CDp =  0.04574

 Side 1  free  transition at x/c =  0.0131   22
 Side 2 forced transition at x/c =  1.0000   69

   4   rms: 0.4174E-04   max: 0.3927E-03   D at   82  2
       a = 14.500      CL =  1.2506
      Cm =  0.0026     CD =  0.05121   =>   CDf =  0.00548    CDp =  0.04573
 plradd ia,ip,cpol           48           0 -1.37307616E-05

 Point added to stored polar  1
 Point written to save file  hq1512_Re300k.base.pol                          
 Dump file unspecified or not available
 Calculating wake trajectory ...
 Calculating source influence matrix ...

 Solving BL system ...

 Side 1  free  transition at x/c =  0.0131   22
 Side 2 forced transition at x/c =  1.0000   69

   1   rms: 0.3725E-01   max: 0.1286E+00   D at   62  1   RLX: 0.699
       a = 14.750      CL =  1.2507
      Cm =  0.0021     CD =  0.05376   =>   CDf =  0.00548    CDp =  0.04828

 Side 1  free  transition at x/c =  0.0127   22
 Side 2 forced transition at x/c =  1.0000   69

   2   rms: 0.1447E-01   max: 0.6504E-01   D at   64  1
       a = 14.750      CL =  1.2465
      Cm =  0.0019     CD =  0.05499   =>   CDf =  0.00542    CDp =  0.04958

 Side 1  free  transition at x/c =  0.0126   22
 Side 2 forced transition at x/c =  1.0000   69

   3   rms: 0.1917E-02   max: 0.1173E-01   D at   82  2
       a = 14.750      CL =  1.2452
      Cm =  0.0019     CD =  0.05483   =>   CDf =  0.00538    CDp =  0.04945

 Side 1  free  transition at x/c =  0.0126   22
 Side 2 forced transition at x/c =  1.0000   69

   4   rms: 0.6220E-04   max: 0.5759E-03   D at   82  2
       a = 14.750      CL =  1.2452
      Cm =  0.0020     CD =  0.05481   =>   CDf =  0.00538    CDp =  0.04943
 plradd ia,ip,cpol           49           0 -1.37307616E-05

 Point added to stored polar  1
 Point written to save file  hq1512_Re300k.base.pol                          
 Dump file unspecified or not available
 Calculating wake trajectory ...
 Calculating source influence matrix ...

 Solving BL system ...

 Side 1  free  transition at x/c =  0.0126   22
 Side 2 forced transition at x/c =  1.0000   69

   1   rms: 0.3883E-01   max: 0.1439E+00   D at   60  1   RLX: 0.665
       a = 15.000      CL =  1.2433
      Cm =  0.0013     CD =  0.05771   =>   CDf =  0.00538    CDp =  0.05233

 Side 1  free  transition at x/c =  0.0125   22
 Side 2 forced transition at x/c =  1.0000   69

   2   rms: 0.1512E-01   max: 0.6492E-01   D at   62  1
       a = 15.000      CL =  1.2395
      Cm =  0.0010     CD =  0.05902   =>   CDf =  0.00529    CDp =  0.05373

 Side 1  free  transition at x/c =  0.0125   22
 Side 2 forced transition at x/c =  1.0000   69

   3   rms: 0.1903E-02   max: 0.1016E-01   D at   83  2
       a = 15.000      CL =  1.2383
      Cm =  0.0011     CD =  0.05880   =>   CDf =  0.00524    CDp =  0.05356

 Side 1  free  transition at x/c =  0.0125   22
 Side 2 forced transition at x/c =  1.0000   69

   4   rms: 0.5932E-04   max: 0.6346E-03   D at   83  2
       a = 15.000      CL =  1.2383
      Cm =  0.0011     CD =  0.05877   =>   CDf =  0.00524    CDp =  0.05353
 plradd ia,ip,cpol           50           0 -1.37307616E-05

 Point added to stored polar  1
 Point written to save file  hq1512_Re300k.base.pol                          
 Dump file unspecified or not available
 Calculating wake trajectory ...
 Calculating source influence matrix ...

 Solving BL system ...

 Side 1  free  transition at x/c =  0.0125   22
 Side 2 forced transition at x/c =  1.0000   69

   1   rms: 0.4049E-01   max: 0.1537E+00   D at   59  1   RLX: 0.633
       a = 15.250      CL =  1.2354
      Cm =  0.0002     CD =  0.06189   =>   CDf =  0.00524    CDp =  0.05664

 Side 1  free  transition at x/c =  0.0122   22
 Side 2 forced transition at x/c =  1.0000   69

   2   rms: 0.1824E-01   max: 0.7649E-01   D at   60  1
       a = 15.250      CL =  1.2300
      Cm = -0.0003     CD =  0.06370   =>   CDf =  0.00518    CDp =  0.05852

 Side 1  free  transition at x/c =  0.0121   22
 Side 2 forced transition at x/c =  1.0000   69

   3   rms: 0.2584E-02   max: 0.1562E-01   D at   83  2
       a = 15.250      CL =  1.2285
      Cm = -0.0003     CD =  0.06340   =>   CDf =  0.00513    CDp =  0.05827

 Side 1  free  transition at x/c =  0.0122   22
 Side 2 forced transition at x/c =  1.0000   69

   4   rms: 0.1095E-03   max: 0.1483E-02   D at   83  2
       a = 15.250      CL =  1.2284
      Cm = -0.0002     CD =  0.06335   =>   CDf =  0.00513    CDp =  0.05823

 Side 1  free  transition at x/c =  0.0122   22
 Side 2 forced transition at x/c =  1.0000   69

   5   rms: 0.9418E-05   max: 0.5446E-04   C at   69  2
       a = 15.250      CL =  1.2284
      Cm = -0.0002     CD =  0.06335   =>   CDf =  0.00513    CDp =  0.05823
 plradd ia,ip,cpol           51           0 -1.37307616E-05

 Point added to stored polar  1
 Point written to save file  hq1512_Re300k.base.pol                          
 Dump file unspecified or not available
 Calculating wake trajectory ...
 Calculating source influence matrix ...

 Solving BL system ...

 Side 1  free  transition at x/c =  0.0121   22
 Side 2 forced transition at x/c =  1.0000   69

   1   rms: 0.4662E-01   max: 0.1793E+00   D at   57  1   RLX: 0.601
       a = 15.500      CL =  1.2228
      Cm = -0.0014     CD =  0.06699   =>   CDf =  0.00513    CDp =  0.06186

 Side 1  free  transition at x/c =  0.0119   22
 Side 2 forced transition at x/c =  1.0000   69

   2   rms: 0.2223E-01   max: 0.8978E-01   D at   58  1
       a = 15.500      CL =  1.2151
      Cm = -0.0021     CD =  0.06936   =>   CDf =  0.00506    CDp =  0.06431

 Side 1  free  transition at x/c =  0.0118   21
 Side 2 forced transition at x/c =  1.0000   69

   3   rms: 0.3102E-02   max: -.2451E-01   D at   21  1
       a = 15.500      CL =  1.2141
      Cm = -0.0020     CD =  0.06882   =>   CDf =  0.00500    CDp =  0.06382

 Side 1  free  transition at x/c =  0.0118   21
 Side 2 forced transition at x/c =  1.0000   69

   4   rms: 0.3423E-03   max: -.1808E-02   D at   58  1
       a = 15.500      CL =  1.2142
      Cm = -0.0020     CD =  0.06875   =>   CDf =  0.00500    CDp =  0.06374

 Side 1  free  transition at x/c =  0.0118   21
 Side 2 forced transition at x/c =  1.0000   69

   5   rms: 0.4258E-04   max: -.2308E-03   D at   83  2
       a = 15.500      CL =  1.2143
      Cm = -0.0020     CD =  0.06876   =>   CDf =  0.00500    CDp =  0.06375
 plradd ia,ip,cpol           52           0 -1.37307616E-05

 Point added to stored polar  1
 Point written to save file  hq1512_Re300k.base.pol                          
 Dump file unspecified or not available
 Calculating wake trajectory ...
 Calculating source influence matrix ...

 Solving BL system ...

 Side 1  free  transition at x/c =  0.0118   21
 Side 2 forced transition at x/c =  1.0000   69

   1   rms: 0.3622E-01   max: 0.1388E+00   D at   55  1   RLX: 0.576
       a = 15.750      CL =  1.2131
      Cm = -0.0030     CD =  0.07174   =>   CDf =  0.00501    CDp =  0.06673

 Side 1  free  transition at x/c =  0.0118   21
 Side 2 forced transition at x/c =  1.0000   69

   2   rms: 0.1775E-01   max: 0.7247E-01   D at   56  1
       a = 15.750      CL =  1.2095
      Cm = -0.0038     CD =  0.07380   =>   CDf =  0.00492    CDp =  0.06888

 Side 1  free  transition at x/c =  0.0118   21
 Side 2 forced transition at x/c =  1.0000   69

   3   rms: 0.3450E-02   max: 0.1592E-01   D at   84  2
       a = 15.750      CL =  1.2072
      Cm = -0.0038     CD =  0.07352   =>   CDf =  0.00485    CDp =  0.06867

 Side 1  free  transition at x/c =  0.0118   21
 Side 2 forced transition at x/c =  1.0000   69

   4   rms: 0.2043E-03   max: 0.1705E-02   D at   84  2
       a = 15.750      CL =  1.2070
      Cm = -0.0038     CD =  0.07345   =>   CDf =  0.00486    CDp =  0.06859

 Side 1  free  transition at x/c =  0.0118   21
 Side 2 forced transition at x/c =  1.0000   69

   5   rms: 0.1053E-04   max: -.3202E-04   D at   54  1
       a = 15.750      CL =  1.2070
      Cm = -0.0038     CD =  0.07344   =>   CDf =  0.00486    CDp =  0.06859
 plradd ia,ip,cpol           53           0 -1.37307616E-05

 Point added to stored polar  1
 Point written to save file  hq1512_Re300k.base.pol                          
 Dump file unspecified or not available
 Calculating wake trajectory ...
 Calculating source influence matrix ...

 Solving BL system ...

 Side 1  free  transition at x/c =  0.0118   21
 Side 2 forced transition at x/c =  1.0000   69

   1   rms: 0.3719E-01   max: 0.1447E+00   D at   53  1   RLX: 0.553
       a = 16.000      CL =  1.2054
      Cm = -0.0049     CD =  0.07657   =>   CDf =  0.00486    CDp =  0.07170

 Side 1  free  transition at x/c =  0.0117   21
 Side 2 forced transition at x/c =  1.0000   69

   2   rms: 0.1894E-01   max: 0.8095E-01   D at   55  1
       a = 16.000      CL =  1.2015
      Cm = -0.0060     CD =  0.07896   =>   CDf =  0.00476    CDp =  0.07419

 Side 1  free  transition at x/c =  0.0117   21
 Side 2 forced transition at x/c =  1.0000   69

   3   rms: 0.4035E-02   max: 0.2082E-01   D at   84  2
       a = 16.000      CL =  1.1989
      Cm = -0.0060     CD =  0.07863   =>   CDf =  0.00469    CDp =  0.07394

 Side 1  free  transition at x/c =  0.0117   21
 Side 2 forced transition at x/c =  1.0000   69

   4   rms: 0.2205E-03   max: 0.1956E-02   D at   84  2
       a = 16.000      CL =  1.1988
      Cm = -0.0059     CD =  0.07852   =>   CDf =  0.00469    CDp =  0.07383

 Side 1  free  transition at x/c =  0.0117   21
 Side 2 forced transition at x/c =  1.0000   69

   5   rms: 0.2692E-04   max: -.1078E-03   D at   86  2
       a = 16.000      CL =  1.1988
      Cm = -0.0059     CD =  0.07852   =>   CDf =  0.00469    CDp =  0.07383
 plradd ia,ip,cpol           54           0 -1.37307616E-05

 Point added to stored polar  1
 Point written to save file  hq1512_Re300k.base.pol                          
 Dump file unspecified or not available

.OPERva   c>  
 Polar accumulation disabled

.OPERv   c>  
 XFOIL   c>  
 XFOIL   c>  