  
       XFOIL         Version 6.99
  
 Calculated polar for: HQ 1.5/8.5 AIRFOIL                              
  
 1 1 Reynolds number fixed          Mach number fixed         
  
 xtrf =   1.000 (top)        1.000 (bottom)  
 Mach =   0.000     Re =     0.300 e 6     Ncrit =   9.000
  
   alpha    CL        CD       CDp       CM     Top_Xtr  Bot_Xtr
  ------ -------- --------- --------- -------- -------- --------
-4.000  -0.2468   0.01259   0.00570  -0.0478   0.9724   0.0460
-3.500  -0.1745   0.01120   0.00421  -0.0516   0.9647   0.0610
-3.000  -0.1137   0.00883   0.00314  -0.0542   0.9530   0.3659
-2.500  -0.0568   0.00792   0.00304  -0.0546   0.9402   0.6123
-2.000  -0.0025   0.00783   0.00319  -0.0535   0.9266   0.7201
-1.500   0.0507   0.00786   0.00317  -0.0522   0.9117   0.7675
-1.000   0.1009   0.00778   0.00307  -0.0501   0.8936   0.8010
-0.500   0.1508   0.00766   0.00294  -0.0481   0.8742   0.8290
0.000   0.1988   0.00749   0.00278  -0.0455   0.8533   0.8630
0.500   0.2467   0.00735   0.00269  -0.0429   0.8318   0.8999
1.000   0.3039   0.00725   0.00263  -0.0424   0.8136   0.9473
1.500   0.3824   0.00722   0.00258  -0.0471   0.7942   0.9899
2.000   0.4382   0.00729   0.00261  -0.0474   0.7701   1.0000
2.500   0.4888   0.00728   0.00249  -0.0460   0.7216   1.0000
3.000   0.5405   0.00741   0.00250  -0.0448   0.6655   1.0000
3.500   0.5900   0.00787   0.00261  -0.0434   0.5739   1.0000
4.000   0.6361   0.00885   0.00301  -0.0417   0.4324   1.0000
4.500   0.6824   0.01004   0.00365  -0.0404   0.3070   1.0000
5.000   0.7296   0.01124   0.00442  -0.0394   0.1986   1.0000
5.500   0.7723   0.01325   0.00569  -0.0379   0.0705   1.0000
6.000   0.8208   0.01439   0.00686  -0.0368   0.0572   1.0000
6.500   0.8674   0.01571   0.00826  -0.0356   0.0478   1.0000
7.000   0.9125   0.01722   0.00994  -0.0343   0.0357   1.0000
7.500   0.9535   0.01966   0.01258  -0.0320   0.0217   1.0000
8.000   0.9925   0.02252   0.01555  -0.0299   0.0168   1.0000
8.500   1.0353   0.02480   0.01819  -0.0280   0.0145   1.0000
9.000   1.0727   0.02829   0.02206  -0.0257   0.0130   1.0000
9.500   1.1016   0.03332   0.02765  -0.0227   0.0125   1.0000
10.000   1.1050   0.04213   0.03744  -0.0176   0.0130   1.0000
10.250   1.0841   0.04845   0.04437  -0.0138   0.0137   1.0000
10.500   1.0617   0.05275   0.04899  -0.0102   0.0141   1.0000
10.750   1.0400   0.05683   0.05330  -0.0083   0.0143   1.0000
11.000   1.0175   0.06150   0.05818  -0.0081   0.0146   1.0000
11.250   0.9954   0.06681   0.06368  -0.0097   0.0147   1.0000
11.500   0.9735   0.07305   0.07008  -0.0131   0.0148   1.0000
11.750   0.9534   0.08024   0.07741  -0.0183   0.0149   1.0000
12.000   0.9298   0.09012   0.08742  -0.0261   0.0150   1.0000
12.250   0.9013   0.10422   0.10162  -0.0362   0.0153   1.0000
12.500   0.8773   0.11744   0.11480  -0.0434   0.0160   1.0000
12.750   0.8642   0.12600   0.12332  -0.0476   0.0166   1.0000
13.000   0.7027   0.13698   0.13458  -0.0496   0.0206   1.0000
13.250   0.6927   0.14261   0.14020  -0.0522   0.0232   1.0000
