
 ===================================================
  XFOIL Version 6.99
  Copyright (C) 2000   Mark Drela, Harold Youngren

  This software comes with ABSOLUTELY NO WARRANTY,
    subject to the GNU General Public License.

  Caveat computor
 ===================================================

 File  xfoil.def  not found

   QUIT    Exit program

  .OPER    Direct operating point(s)
  .MDES    Complex mapping design routine
  .QDES    Surface speed design routine
  .GDES    Geometry design routine

   SAVE f  Write airfoil to labeled coordinate file
   PSAV f  Write airfoil to plain coordinate file
   ISAV f  Write airfoil to ISES coordinate file
   MSAV f  Write airfoil to MSES coordinate file
   REVE    Reverse written-airfoil node ordering

   LOAD f  Read buffer airfoil from coordinate file
   NACA i  Set NACA 4,5-digit airfoil and buffer airfoil
   INTE    Set buffer airfoil by interpolating two airfoils
   NORM    Buffer airfoil normalization toggle
   XYCM rr Change CM reference location, currently  0.25000 0.00000

   BEND    Display structural properties of current airfoil

   PCOP    Set current-airfoil panel nodes directly from buffer airfoil points
   PANE    Set current-airfoil panel nodes ( 160 ) based on curvature
  .PPAR    Show/change paneling

  .PLOP    Plotting options

   WDEF f  Write  current-settings file
   RDEF f  Reread current-settings file
   NAME s  Specify new airfoil name
   NINC    Increment name version number

   Z       Zoom    | (available in all menus)
   U       Unzoom  | 

 XFOIL   c>  
 Labeled airfoil file.  Name:  HQ 2.0/8 AIRFOIL                                

 Number of input coordinate points:  77
 Counterclockwise ordering
 Max thickness =     0.079761  at x =   0.350
 Max camber    =     0.019660  at x =   0.500

  LE  x,y  =  -0.00006   0.00057  |   Chord =   1.00006
  TE  x,y  =   1.00000   0.00000  |

 Current airfoil nodes set from buffer airfoil nodes (  77 )

 WARNING: Poor input coordinate distribution
          Excessive panel angle   64.8  at i =  39
          Repaneling with PANE and/or PPAR suggested
           (doing GDES,CADD before repaneling _may_
            improve excessively coarse LE spacing

 XFOIL   c>  
 XFOIL   c>  
 Sharp trailing edge

 Paneling parameters used...
   Number of panel nodes       160
   Panel bunching parameter    1.000
   TE/LE panel density ratio   0.150
   Refined-area/LE panel density ratio    0.200
   Top    side refined area x/c limits  1.000 1.000
   Bottom side refined area x/c limits  1.000 1.000

 XFOIL   c>  
.OPERi   c>  
 Xtr/c     =  1.0000    top    side
 Xtr/c     =  1.0000    bottom side
 Ncrit     =    9.00   ( 0.070 % turb. level )
 Vacc      =  0.0100

 Klag  =  5.6000     Uxwt  =    1.00
 A     =  6.7000     B     =  0.7500       KCt = 0.01485
 CtiniK=  1.8000     CtiniX=  3.3000

..VPAR   c>  
..VPAR   c>  
.OPERi   c>  
 M  =    0.0000
 Re =    600000

.OPERv   c>  
.OPERv   c>  
.OPERv   c>  
 Polar  1 newly created for accumulation
 Airfoil archived with polar: HQ 2.0/8 AIRFOIL                                

Enter  polar save filename  OR  <return> for no file   s>  
 New polar save file available

Enter  polar dump filename  OR  <return> for no file   s>  
 Polar dump file will NOT be written

 Polar accumulation enabled

.OPERva   c>   Calculating unit vorticity distributions ...
 Calculating wake trajectory ...
 Calculating source influence matrix ...

 Solving BL system ...

 Initializing BL ...
    side            1  ...
 MRCHUE: Inverse mode at  61     Hk =   4.081
 MRCHUE: Inverse mode at  62     Hk =   4.605
 MRCHUE: Inverse mode at  63     Hk =   5.123
 MRCHUE: Inverse mode at  64     Hk =   5.637
 MRCHUE: Inverse mode at  65     Hk =   6.146
 MRCHUE: Inverse mode at  66     Hk =   6.650
 MRCHUE: Inverse mode at  67     Hk =   7.151
 MRCHUE: Inverse mode at  68     Hk =   7.649
 MRCHUE: Inverse mode at  69     Hk =   8.145
 MRCHUE: Inverse mode at  70     Hk =   8.638
 MRCHUE: Inverse mode at  71     Hk =   7.220
 MRCHUE: Inverse mode at  72     Hk =   5.418
 MRCHUE: Inverse mode at  73     Hk =   4.178
 MRCHUE: Inverse mode at  74     Hk =   3.233
    side            2  ...
 MRCHUE: Inverse mode at   7     Hk =   4.923
 MRCHUE: Inverse mode at   8     Hk =   7.030
 MRCHUE: Inverse mode at   9     Hk =   9.244
 MRCHUE: Inverse mode at  10     Hk =   4.318
 MRCHUE: Inverse mode at  11     Hk =   2.500

 Side 1  free  transition at x/c =  0.9109   71
 Side 2  free  transition at x/c =  0.0105   10

   1   rms: 0.1723E+00   max: 0.1589E+01   D at   10  2   RLX: 0.511
       a = -4.000      CL = -0.1651
      Cm = -0.0656     CD =  0.01129   =>   CDf =  0.00562    CDp =  0.00567

 Side 1  free  transition at x/c =  0.9287   72
 Side 2  free  transition at x/c =  0.0111   10

   2   rms: 0.1017E+00   max: 0.7484E+00   D at   10  2   RLX: 0.803
       a = -4.000      CL = -0.1414
      Cm = -0.0680     CD =  0.01095   =>   CDf =  0.00562    CDp =  0.00533

 Side 1  free  transition at x/c =  0.9600   75
 Side 2  free  transition at x/c =  0.0114   10

   3   rms: 0.4460E-01   max: 0.2443E+00   D at   11  2
       a = -4.000      CL = -0.1420
      Cm = -0.0676     CD =  0.01095   =>   CDf =  0.00556    CDp =  0.00538

 Side 1  free  transition at x/c =  0.9588   74
 Side 2  free  transition at x/c =  0.0114   10

   4   rms: 0.7401E-02   max: 0.6774E-01   D at   75  1
       a = -4.000      CL = -0.1447
      Cm = -0.0671     CD =  0.01100   =>   CDf =  0.00550    CDp =  0.00550

 Side 1  free  transition at x/c =  0.9557   74
 Side 2  free  transition at x/c =  0.0113   10

   5   rms: 0.1144E-02   max: -.1007E-01   D at   75  1
       a = -4.000      CL = -0.1442
      Cm = -0.0672     CD =  0.01099   =>   CDf =  0.00549    CDp =  0.00550

 Side 1  free  transition at x/c =  0.9562   74
 Side 2  free  transition at x/c =  0.0113   10

   6   rms: 0.1464E-04   max: -.1606E-03   D at   75  1
       a = -4.000      CL = -0.1442
      Cm = -0.0672     CD =  0.01099   =>   CDf =  0.00549    CDp =  0.00550
 plradd ia,ip,cpol            1           0  2.02305397E-04

 Point added to stored polar  1
 Point written to save file  hq208_Re600k.base.pol                           
 Dump file unspecified or not available
 Calculating wake trajectory ...
 Calculating source influence matrix ...

 Solving BL system ...

 Side 1  free  transition at x/c =  0.9562   74
 Side 2  free  transition at x/c =  0.0113   10

   1   rms: 0.1220E+00   max: -.5711E+00   T at   10  2   RLX: 0.876
       a = -3.500      CL = -0.0973
      Cm = -0.0666     CD =  0.00973   =>   CDf =  0.00549    CDp =  0.00424

 Side 1  free  transition at x/c =  0.9406   73
 Side 2  free  transition at x/c =  0.0155   11

   2   rms: 0.1989E-01   max: 0.2324E+00   D at   11  2
       a = -3.500      CL = -0.0890
      Cm = -0.0669     CD =  0.00917   =>   CDf =  0.00577    CDp =  0.00340

 Side 1  free  transition at x/c =  0.9421   73
 Side 2  free  transition at x/c =  0.0160   11

   3   rms: 0.7422E-02   max: 0.8478E-01   D at   11  2
       a = -3.500      CL = -0.0896
      Cm = -0.0668     CD =  0.00922   =>   CDf =  0.00573    CDp =  0.00348

 Side 1  free  transition at x/c =  0.9413   73
 Side 2  free  transition at x/c =  0.0159   11

   4   rms: 0.3309E-03   max: 0.3422E-02   D at   11  2
       a = -3.500      CL = -0.0896
      Cm = -0.0668     CD =  0.00922   =>   CDf =  0.00572    CDp =  0.00349

 Side 1  free  transition at x/c =  0.9413   73
 Side 2  free  transition at x/c =  0.0159   11

   5   rms: 0.3684E-05   max: 0.9756E-05   D at   15  2
       a = -3.500      CL = -0.0896
      Cm = -0.0668     CD =  0.00922   =>   CDf =  0.00572    CDp =  0.00349
 plradd ia,ip,cpol            2           0  2.02305397E-04

 Point added to stored polar  1
 Point written to save file  hq208_Re600k.base.pol                           
 Dump file unspecified or not available
 Calculating wake trajectory ...
 Calculating source influence matrix ...

 Solving BL system ...

 Side 1  free  transition at x/c =  0.9413   73
 Side 2  free  transition at x/c =  0.0159   11

   1   rms: 0.1359E+00   max: -.7793E+00   T at   11  2   RLX: 0.642
       a = -3.000      CL = -0.0558
      Cm = -0.0663     CD =  0.00851   =>   CDf =  0.00572    CDp =  0.00279

 Side 1  free  transition at x/c =  0.9299   72
 Side 2  free  transition at x/c =  0.0212   11

   2   rms: 0.5621E-01   max: -.2643E+00   D at   12  2
       a = -3.000      CL = -0.0357
      Cm = -0.0662     CD =  0.00850   =>   CDf =  0.00591    CDp =  0.00259

 Side 1  free  transition at x/c =  0.9249   73
 Side 2  free  transition at x/c =  0.0226   11

   3   rms: 0.1133E-01   max: -.8605E-01   D at    9  2
       a = -3.000      CL = -0.0355
      Cm = -0.0661     CD =  0.00840   =>   CDf =  0.00593    CDp =  0.00247

 Side 1  free  transition at x/c =  0.9256   73
 Side 2  free  transition at x/c =  0.0242   11

   4   rms: 0.7568E-03   max: -.8437E-02   D at   11  2
       a = -3.000      CL = -0.0355
      Cm = -0.0661     CD =  0.00840   =>   CDf =  0.00592    CDp =  0.00248

 Side 1  free  transition at x/c =  0.9255   73
 Side 2  free  transition at x/c =  0.0242   11

   5   rms: 0.2392E-05   max: -.1511E-04   D at   11  2
       a = -3.000      CL = -0.0355
      Cm = -0.0661     CD =  0.00840   =>   CDf =  0.00593    CDp =  0.00248
 plradd ia,ip,cpol            3           0  2.02305397E-04

 Point added to stored polar  1
 Point written to save file  hq208_Re600k.base.pol                           
 Dump file unspecified or not available
 Calculating wake trajectory ...
 Calculating source influence matrix ...

 Solving BL system ...

 Side 1  free  transition at x/c =  0.9255   73
 Side 2  free  transition at x/c =  0.0242   11

   1   rms: 0.2665E+00   max: -.1749E+01   D at   10  2   RLX: 0.286
       a = -2.500      CL = -0.0206
      Cm = -0.0658     CD =  0.00793   =>   CDf =  0.00593    CDp =  0.00201

 Side 1  free  transition at x/c =  0.9207   73
 Side 2  free  transition at x/c =  0.0694   14

   2   rms: 0.8137E-01   max: -.5224E+00   T at   14  2   RLX: 0.957
       a = -2.500      CL =  0.0170
      Cm = -0.0657     CD =  0.00780   =>   CDf =  0.00578    CDp =  0.00202

 Side 1  free  transition at x/c =  0.9121   72
 Side 2  free  transition at x/c =  0.0769   15

   3   rms: 0.8005E-01   max: -.7311E+00   D at   14  2   RLX: 0.684
       a = -2.500      CL =  0.0174
      Cm = -0.0656     CD =  0.00769   =>   CDf =  0.00585    CDp =  0.00184

 Side 1  free  transition at x/c =  0.9100   72
 Side 2  free  transition at x/c =  0.0875   16

   4   rms: 0.5492E-01   max: -.6137E+00   C at   16  2   RLX: 0.815
       a = -2.500      CL =  0.0172
      Cm = -0.0655     CD =  0.00758   =>   CDf =  0.00583    CDp =  0.00174

 Side 1  free  transition at x/c =  0.9096   72
 Side 2  free  transition at x/c =  0.1373   19

   5   rms: 0.9834E-02   max: -.1561E+00   D at   18  2
       a = -2.500      CL =  0.0171
      Cm = -0.0655     CD =  0.00746   =>   CDf =  0.00560    CDp =  0.00186

 Side 1  free  transition at x/c =  0.9095   72
 Side 2  free  transition at x/c =  0.1311   19

   6   rms: 0.3800E-02   max: 0.8171E-01   C at   19  2
       a = -2.500      CL =  0.0172
      Cm = -0.0655     CD =  0.00750   =>   CDf =  0.00562    CDp =  0.00188

 Side 1  free  transition at x/c =  0.9095   72
 Side 2  free  transition at x/c =  0.1290   19

   7   rms: 0.1473E-03   max: -.2966E-02   C at   19  2
       a = -2.500      CL =  0.0172
      Cm = -0.0655     CD =  0.00750   =>   CDf =  0.00563    CDp =  0.00187

 Side 1  free  transition at x/c =  0.9095   72
 Side 2  free  transition at x/c =  0.1290   19

   8   rms: 0.9978E-06   max: 0.7890E-05   C at   19  2
       a = -2.500      CL =  0.0172
      Cm = -0.0655     CD =  0.00750   =>   CDf =  0.00563    CDp =  0.00187
 plradd ia,ip,cpol            4           0  1.18551287E-03

 Point added to stored polar  1
 Point written to save file  hq208_Re600k.base.pol                           
 Dump file unspecified or not available
 Calculating wake trajectory ...
 Calculating source influence matrix ...

 Solving BL system ...

 Side 1  free  transition at x/c =  0.9095   72
 Side 2  free  transition at x/c =  0.1290   19

   1   rms: 0.4876E+00   max: -.9977E+01   C at   19  2   RLX: 0.050
       a = -2.000      CL =  0.0198
      Cm = -0.0655     CD =  0.00743   =>   CDf =  0.00563    CDp =  0.00180

 Side 1  free  transition at x/c =  0.9087   72
 Side 2  free  transition at x/c =  0.1393   19

   2   rms: 0.5089E+00   max: -.1152E+02   C at   19  2   RLX: 0.043
       a = -2.000      CL =  0.0222
      Cm = -0.0655     CD =  0.00741   =>   CDf =  0.00560    CDp =  0.00181

 Side 1  free  transition at x/c =  0.9081   72
 Side 2  free  transition at x/c =  0.1501   20

   3   rms: 0.5281E+00   max: -.1184E+02   C at   20  2   RLX: 0.042
       a = -2.000      CL =  0.0241
      Cm = -0.0655     CD =  0.00735   =>   CDf =  0.00557    CDp =  0.00179

 Side 1  free  transition at x/c =  0.9076   72
 Side 2  free  transition at x/c =  0.1604   21

   4   rms: 0.4946E+00   max: -.1087E+02   C at   21  2   RLX: 0.046
       a = -2.000      CL =  0.0262
      Cm = -0.0654     CD =  0.00730   =>   CDf =  0.00553    CDp =  0.00177

 Side 1  free  transition at x/c =  0.9070   72
 Side 2  free  transition at x/c =  0.1693   22

   5   rms: 0.4235E+00   max: -.8654E+01   C at   22  2   RLX: 0.058
       a = -2.000      CL =  0.0288
      Cm = -0.0654     CD =  0.00725   =>   CDf =  0.00551    CDp =  0.00173

 Side 1  free  transition at x/c =  0.9063   72
 Side 2  free  transition at x/c =  0.1794   22

   6   rms: 0.4259E+00   max: -.9342E+01   C at   22  2   RLX: 0.054
       a = -2.000      CL =  0.0313
      Cm = -0.0654     CD =  0.00722   =>   CDf =  0.00548    CDp =  0.00174

 Side 1  free  transition at x/c =  0.9058   71
 Side 2  free  transition at x/c =  0.1893   23

   7   rms: 0.4018E+00   max: -.8757E+01   C at   23  2   RLX: 0.057
       a = -2.000      CL =  0.0334
      Cm = -0.0654     CD =  0.00717   =>   CDf =  0.00545    CDp =  0.00172

 Side 1  free  transition at x/c =  0.9050   71
 Side 2  free  transition at x/c =  0.1994   24

   8   rms: 0.3832E+00   max: -.8231E+01   C at   24  2   RLX: 0.061
       a = -2.000      CL =  0.0356
      Cm = -0.0654     CD =  0.00712   =>   CDf =  0.00542    CDp =  0.00170

 Side 1  free  transition at x/c =  0.9041   71
 Side 2  free  transition at x/c =  0.2093   25

   9   rms: 0.3513E+00   max: -.7139E+01   C at   25  2   RLX: 0.070
       a = -2.000      CL =  0.0380
      Cm = -0.0653     CD =  0.00706   =>   CDf =  0.00539    CDp =  0.00167

 Side 1  free  transition at x/c =  0.9032   71
 Side 2  free  transition at x/c =  0.2205   25

  10   rms: 0.4085E+00   max: -.8724E+01   C at   25  2   RLX: 0.057
       a = -2.000      CL =  0.0399
      Cm = -0.0653     CD =  0.00703   =>   CDf =  0.00535    CDp =  0.00168

 Side 1  free  transition at x/c =  0.9025   71
 Side 2  free  transition at x/c =  0.2305   26

  11   rms: 0.3915E+00   max: -.8393E+01   C at   26  2   RLX: 0.060
       a = -2.000      CL =  0.0416
      Cm = -0.0653     CD =  0.00698   =>   CDf =  0.00532    CDp =  0.00166

 Side 1  free  transition at x/c =  0.9019   71
 Side 2  free  transition at x/c =  0.2413   27

  12   rms: 0.3785E+00   max: -.8072E+01   C at   27  2   RLX: 0.062
       a = -2.000      CL =  0.0433
      Cm = -0.0653     CD =  0.00693   =>   CDf =  0.00529    CDp =  0.00164

 Side 1  free  transition at x/c =  0.9013   71
 Side 2  free  transition at x/c =  0.2522   28

  13   rms: 0.3623E+00   max: -.7589E+01   C at   28  2   RLX: 0.066
       a = -2.000      CL =  0.0450
      Cm = -0.0653     CD =  0.00688   =>   CDf =  0.00525    CDp =  0.00162

 Side 1  free  transition at x/c =  0.9006   71
 Side 2  free  transition at x/c =  0.2632   28

  14   rms: 0.3893E+00   max: -.8042E+01   C at   28  2   RLX: 0.062
       a = -2.000      CL =  0.0465
      Cm = -0.0653     CD =  0.00685   =>   CDf =  0.00522    CDp =  0.00163

 Side 1  free  transition at x/c =  0.9001   71
 Side 2  free  transition at x/c =  0.2750   29

  15   rms: 0.3913E+00   max: -.8078E+01   C at   29  2   RLX: 0.062
       a = -2.000      CL =  0.0478
      Cm = -0.0653     CD =  0.00679   =>   CDf =  0.00518    CDp =  0.00161

 Side 1  free  transition at x/c =  0.8996   71
 Side 2  free  transition at x/c =  0.2871   30

  16   rms: 0.3879E+00   max: -.8014E+01   C at   30  2   RLX: 0.062
       a = -2.000      CL =  0.0490
      Cm = -0.0653     CD =  0.00674   =>   CDf =  0.00514    CDp =  0.00160

 Side 1  free  transition at x/c =  0.8991   71
 Side 2  free  transition at x/c =  0.2994   31

  17   rms: 0.3735E+00   max: -.7705E+01   C at   31  2   RLX: 0.065
       a = -2.000      CL =  0.0502
      Cm = -0.0653     CD =  0.00669   =>   CDf =  0.00510    CDp =  0.00158

 Side 1  free  transition at x/c =  0.8987   71
 Side 2  free  transition at x/c =  0.3125   32

  18   rms: 0.3698E+00   max: -.7595E+01   C at   32  2   RLX: 0.066
       a = -2.000      CL =  0.0513
      Cm = -0.0653     CD =  0.00663   =>   CDf =  0.00506    CDp =  0.00157

 Side 1  free  transition at x/c =  0.8982   71
 Side 2  free  transition at x/c =  0.3259   33

  19   rms: 0.3727E+00   max: -.7604E+01   C at   33  2   RLX: 0.066
       a = -2.000      CL =  0.0522
      Cm = -0.0653     CD =  0.00658   =>   CDf =  0.00502    CDp =  0.00156

 Side 1  free  transition at x/c =  0.8978   71
 Side 2  free  transition at x/c =  0.3393   34

  20   rms: 0.3699E+00   max: -.7503E+01   C at   34  2   RLX: 0.067
       a = -2.000      CL =  0.0532
      Cm = -0.0652     CD =  0.00653   =>   CDf =  0.00498    CDp =  0.00155

 Side 1  free  transition at x/c =  0.8975   71
 Side 2  free  transition at x/c =  0.3526   35

  21   rms: 0.3395E+00   max: -.6862E+01   C at   35  2   RLX: 0.073
       a = -2.000      CL =  0.0541
      Cm = -0.0652     CD =  0.00648   =>   CDf =  0.00493    CDp =  0.00154

 Side 1  free  transition at x/c =  0.8971   71
 Side 2  free  transition at x/c =  0.3665   36

  22   rms: 0.2896E+00   max: -.5831E+01   C at   36  2   RLX: 0.086
       a = -2.000      CL =  0.0552
      Cm = -0.0652     CD =  0.00643   =>   CDf =  0.00489    CDp =  0.00154

 Side 1  free  transition at x/c =  0.8967   71
 Side 2  free  transition at x/c =  0.3816   37

  23   rms: 0.2363E+00   max: -.4719E+01   C at   37  2   RLX: 0.106
       a = -2.000      CL =  0.0564
      Cm = -0.0652     CD =  0.00637   =>   CDf =  0.00484    CDp =  0.00153

 Side 1  free  transition at x/c =  0.8963   71
 Side 2  free  transition at x/c =  0.3979   38

  24   rms: 0.1754E+00   max: -.3459E+01   C at   38  2   RLX: 0.145
       a = -2.000      CL =  0.0578
      Cm = -0.0652     CD =  0.00632   =>   CDf =  0.00480    CDp =  0.00152

 Side 1  free  transition at x/c =  0.8958   71
 Side 2  free  transition at x/c =  0.4177   40

  25   rms: 0.1452E+00   max: -.2891E+01   C at   40  2   RLX: 0.173
       a = -2.000      CL =  0.0591
      Cm = -0.0651     CD =  0.00624   =>   CDf =  0.00473    CDp =  0.00151

 Side 1  free  transition at x/c =  0.8952   71
 Side 2  free  transition at x/c =  0.4302   41

  26   rms: 0.1074E+00   max: -.2121E+01   C at   41  2   RLX: 0.236
       a = -2.000      CL =  0.0610
      Cm = -0.0652     CD =  0.00619   =>   CDf =  0.00470    CDp =  0.00149

 Side 1  free  transition at x/c =  0.8947   71
 Side 2  free  transition at x/c =  0.4423   42

  27   rms: 0.8108E-01   max: -.1581E+01   C at   42  2   RLX: 0.316
       a = -2.000      CL =  0.0630
      Cm = -0.0652     CD =  0.00615   =>   CDf =  0.00467    CDp =  0.00148

 Side 1  free  transition at x/c =  0.8941   71
 Side 2  free  transition at x/c =  0.4546   43

  28   rms: 0.5837E-01   max: -.1125E+01   C at   43  2   RLX: 0.444
       a = -2.000      CL =  0.0647
      Cm = -0.0652     CD =  0.00610   =>   CDf =  0.00463    CDp =  0.00147

 Side 1  free  transition at x/c =  0.8936   71
 Side 2  free  transition at x/c =  0.4677   43

  29   rms: 0.3490E-01   max: -.6790E+00   C at   43  2   RLX: 0.736
       a = -2.000      CL =  0.0663
      Cm = -0.0651     CD =  0.00608   =>   CDf =  0.00459    CDp =  0.00149

 Side 1  free  transition at x/c =  0.8931   71
 Side 2  free  transition at x/c =  0.4877   45

  30   rms: 0.4365E-02   max: -.7384E-01   C at   45  2
       a = -2.000      CL =  0.0667
      Cm = -0.0651     CD =  0.00605   =>   CDf =  0.00453    CDp =  0.00152

 Side 1  free  transition at x/c =  0.8929   71
 Side 2  free  transition at x/c =  0.4908   45

  31   rms: 0.4704E-03   max: -.9088E-02   C at   45  2
       a = -2.000      CL =  0.0667
      Cm = -0.0651     CD =  0.00605   =>   CDf =  0.00452    CDp =  0.00153

 Side 1  free  transition at x/c =  0.8929   71
 Side 2  free  transition at x/c =  0.4911   45

  32   rms: 0.1720E-05   max: -.3265E-04   C at   45  2
       a = -2.000      CL =  0.0667
      Cm = -0.0651     CD =  0.00605   =>   CDf =  0.00452    CDp =  0.00153
 plradd ia,ip,cpol            5           0  1.18551287E-03

 Point added to stored polar  1
 Point written to save file  hq208_Re600k.base.pol                           
 Dump file unspecified or not available
 Calculating wake trajectory ...
 Calculating source influence matrix ...

 Solving BL system ...

 Side 1  free  transition at x/c =  0.8929   71
 Side 2  free  transition at x/c =  0.4911   45

   1   rms: 0.5005E+00   max: -.9591E+01   C at   45  2   RLX: 0.052
       a = -1.500      CL =  0.0693
      Cm = -0.0650     CD =  0.00600   =>   CDf =  0.00452    CDp =  0.00148

 Side 1  free  transition at x/c =  0.8922   70
 Side 2  free  transition at x/c =  0.5095   47

   2   rms: 0.4824E+00   max: -.8867E+01   C at   47  2   RLX: 0.056
       a = -1.500      CL =  0.0718
      Cm = -0.0650     CD =  0.00593   =>   CDf =  0.00447    CDp =  0.00145

 Side 1  free  transition at x/c =  0.8911   70
 Side 2  free  transition at x/c =  0.5225   47

   3   rms: 0.3032E+00   max: -.5519E+01   C at   47  2   RLX: 0.091
       a = -1.500      CL =  0.0764
      Cm = -0.0650     CD =  0.00591   =>   CDf =  0.00443    CDp =  0.00148

 Side 1  free  transition at x/c =  0.8895   70
 Side 2  free  transition at x/c =  0.5498   49

   4   rms: 0.1548E+00   max: -.1991E+01   C at   49  2   RLX: 0.251
       a = -1.500      CL =  0.0868
      Cm = -0.0647     CD =  0.00584   =>   CDf =  0.00435    CDp =  0.00149

 Side 1  free  transition at x/c =  0.8853   70
 Side 2  free  transition at x/c =  0.6170   54

   5   rms: 0.9710E-01   max: 0.6612E+00   C at   55  2
       a = -1.500      CL =  0.1196
      Cm = -0.0643     CD =  0.00584   =>   CDf =  0.00432    CDp =  0.00152

 MRCHDU: Convergence failed at  56  side 2    Res =  0.5221E+00
 MRCHDU: Convergence failed at  57  side 2    Res =  0.1117E+01
 MRCHDU: Convergence failed at  58  side 2    Res =  0.1357E+01
 MRCHDU: Convergence failed at  59  side 2    Res =  0.1460E+01
 MRCHDU: Convergence failed at  60  side 2    Res =  0.1603E+01
 MRCHDU: Convergence failed at  61  side 2    Res =  0.1727E+01
 Side 1  free  transition at x/c =  0.8726   70
 Side 2  free  transition at x/c =  0.7352   62

   6   rms: 0.1636E+00   max: 0.2538E+01   C at   62  2   RLX: 0.479
       a = -1.500      CL =  0.1113
      Cm = -0.0606     CD =  0.00549   =>   CDf =  0.00388    CDp =  0.00161

 Side 1  free  transition at x/c =  0.8737   70
 Side 2  free  transition at x/c =  0.6897   59

   7   rms: 0.3906E-01   max: 0.4481E+00   D at   53  2
       a = -1.500      CL =  0.1177
      Cm = -0.0639     CD =  0.00562   =>   CDf =  0.00405    CDp =  0.00156

 Side 1  free  transition at x/c =  0.8745   70
 Side 2  free  transition at x/c =  0.6660   57

   8   rms: 0.8333E-02   max: -.1113E+00   D at   57  2
       a = -1.500      CL =  0.1176
      Cm = -0.0639     CD =  0.00561   =>   CDf =  0.00411    CDp =  0.00149

 Side 1  free  transition at x/c =  0.8744   70
 Side 2  free  transition at x/c =  0.6608   57

   9   rms: 0.9160E-03   max: 0.1217E-01   D at   59  2
       a = -1.500      CL =  0.1177
      Cm = -0.0639     CD =  0.00562   =>   CDf =  0.00412    CDp =  0.00150

 Side 1  free  transition at x/c =  0.8744   70
 Side 2  free  transition at x/c =  0.6610   57

  10   rms: 0.1033E-04   max: -.1674E-03   D at   59  2
       a = -1.500      CL =  0.1177
      Cm = -0.0639     CD =  0.00562   =>   CDf =  0.00412    CDp =  0.00150
 plradd ia,ip,cpol            6           0  3.11252591E-03

 Point added to stored polar  1
 Point written to save file  hq208_Re600k.base.pol                           
 Dump file unspecified or not available
 Calculating wake trajectory ...
 Calculating source influence matrix ...

 Solving BL system ...

 Side 1  free  transition at x/c =  0.8744   70
 Side 2  free  transition at x/c =  0.6610   57

   1   rms: 0.1135E+00   max: -.1101E+01   C at   57  2   RLX: 0.454
       a = -1.000      CL =  0.1413
      Cm = -0.0634     CD =  0.00553   =>   CDf =  0.00412    CDp =  0.00141

 Side 1  free  transition at x/c =  0.8628   69
 Side 2  free  transition at x/c =  0.6735   58

   2   rms: 0.7060E-01   max: -.5486E+00   T at   58  2   RLX: 0.911
       a = -1.000      CL =  0.1680
      Cm = -0.0630     CD =  0.00543   =>   CDf =  0.00428    CDp =  0.00114

 Side 1  free  transition at x/c =  0.8520   69
 Side 2  free  transition at x/c =  0.6928   59

   3   rms: 0.5433E-01   max: -.6520E+00   C at   59  2   RLX: 0.767
       a = -1.000      CL =  0.1701
      Cm = -0.0630     CD =  0.00547   =>   CDf =  0.00437    CDp =  0.00110

 Side 1  free  transition at x/c =  0.8531   69
 Side 2  free  transition at x/c =  0.7031   60

   4   rms: 0.2183E-01   max: -.3035E+00   C at   60  2
       a = -1.000      CL =  0.1705
      Cm = -0.0629     CD =  0.00551   =>   CDf =  0.00423    CDp =  0.00128

 Side 1  free  transition at x/c =  0.8532   69
 Side 2  free  transition at x/c =  0.7103   60

   5   rms: 0.1915E-02   max: -.2599E-01   D at   60  2
       a = -1.000      CL =  0.1705
      Cm = -0.0629     CD =  0.00554   =>   CDf =  0.00414    CDp =  0.00140

 Side 1  free  transition at x/c =  0.8531   69
 Side 2  free  transition at x/c =  0.7097   60

   6   rms: 0.4665E-04   max: -.6724E-03   C at   60  2
       a = -1.000      CL =  0.1705
      Cm = -0.0629     CD =  0.00554   =>   CDf =  0.00414    CDp =  0.00141
 plradd ia,ip,cpol            7           0  3.11252591E-03

 Point added to stored polar  1
 Point written to save file  hq208_Re600k.base.pol                           
 Dump file unspecified or not available
 Calculating wake trajectory ...
 Calculating source influence matrix ...

 Solving BL system ...

 Side 1  free  transition at x/c =  0.8531   69
 Side 2  free  transition at x/c =  0.7097   60

   1   rms: 0.1095E+00   max: -.7007E+00   C at   60  2   RLX: 0.714
       a = -0.500      CL =  0.2085
      Cm = -0.0621     CD =  0.00556   =>   CDf =  0.00422    CDp =  0.00134

 Side 1  free  transition at x/c =  0.8411   69
 Side 2  free  transition at x/c =  0.7517   62

   2   rms: 0.1596E+00   max: -.2623E+01   T at    2  1   RLX: 0.191
       a = -0.500      CL =  0.2115
      Cm = -0.0622     CD =  0.00560   =>   CDf =  0.00416    CDp =  0.00145

 Side 1  free  transition at x/c =  0.8395   69
 Side 2  free  transition at x/c =  0.7566   63

   3   rms: 0.4150E-01   max: -.3839E+00   C at   63  2
       a = -0.500      CL =  0.2221
      Cm = -0.0615     CD =  0.00538   =>   CDf =  0.00413    CDp =  0.00125

 Side 1  free  transition at x/c =  0.8342   68
 Side 2  free  transition at x/c =  0.7665   63

   4   rms: 0.1846E-01   max: -.2693E+00   D at   64  2
       a = -0.500      CL =  0.2232
      Cm = -0.0618     CD =  0.00549   =>   CDf =  0.00414    CDp =  0.00136

 Side 1  free  transition at x/c =  0.8331   68
 Side 2  free  transition at x/c =  0.7755   64

   5   rms: 0.7957E-02   max: 0.1194E+00   C at   64  2
       a = -0.500      CL =  0.2227
      Cm = -0.0617     CD =  0.00546   =>   CDf =  0.00404    CDp =  0.00142

 Side 1  free  transition at x/c =  0.8332   68
 Side 2  free  transition at x/c =  0.7726   64

   6   rms: 0.8257E-03   max: -.1247E-01   D at   66  2
       a = -0.500      CL =  0.2227
      Cm = -0.0617     CD =  0.00546   =>   CDf =  0.00406    CDp =  0.00140

 Side 1  free  transition at x/c =  0.8332   68
 Side 2  free  transition at x/c =  0.7723   64

   7   rms: 0.6680E-05   max: -.1125E-03   D at   66  2
       a = -0.500      CL =  0.2227
      Cm = -0.0617     CD =  0.00546   =>   CDf =  0.00406    CDp =  0.00140
 plradd ia,ip,cpol            8           0  0.15939076    

 Point added to stored polar  1
 Point written to save file  hq208_Re600k.base.pol                           
 Dump file unspecified or not available
 Calculating wake trajectory ...
 Calculating source influence matrix ...

 Solving BL system ...

 Side 1  free  transition at x/c =  0.8332   68
 Side 2  free  transition at x/c =  0.7723   64

   1   rms: 0.1117E+00   max: -.7708E+00   C at   64  2   RLX: 0.649
       a =  0.000      CL =  0.2561
      Cm = -0.0608     CD =  0.00536   =>   CDf =  0.00406    CDp =  0.00130

 Side 1  free  transition at x/c =  0.8180   67
 Side 2  free  transition at x/c =  0.7834   65

   2   rms: 0.8989E-01   max: -.9198E+00   T at   65  2   RLX: 0.544
       a =  0.000      CL =  0.2675
      Cm = -0.0613     CD =  0.00538   =>   CDf =  0.00428    CDp =  0.00111

 Side 1  free  transition at x/c =  0.8145   67
 Side 2  free  transition at x/c =  0.7951   65

   3   rms: 0.4382E-01   max: -.5087E+00   D at   65  2   RLX: 0.983
       a =  0.000      CL =  0.2773
      Cm = -0.0613     CD =  0.00560   =>   CDf =  0.00426    CDp =  0.00134

 Side 1  free  transition at x/c =  0.8121   67
 Side 2  free  transition at x/c =  0.8240   68

   4   rms: 0.1468E-01   max: 0.1605E+00   C at   68  2
       a =  0.000      CL =  0.2759
      Cm = -0.0608     CD =  0.00545   =>   CDf =  0.00404    CDp =  0.00141

 Side 1  free  transition at x/c =  0.8124   67
 Side 2  free  transition at x/c =  0.8149   67

   5   rms: 0.4614E-02   max: -.7947E-01   D at   69  2
       a =  0.000      CL =  0.2753
      Cm = -0.0606     CD =  0.00539   =>   CDf =  0.00402    CDp =  0.00137

 Side 1  free  transition at x/c =  0.8124   67
 Side 2  free  transition at x/c =  0.8128   67

   6   rms: 0.3301E-03   max: -.4944E-02   C at   67  2
       a =  0.000      CL =  0.2753
      Cm = -0.0606     CD =  0.00539   =>   CDf =  0.00403    CDp =  0.00136

 Side 1  free  transition at x/c =  0.8124   67
 Side 2  free  transition at x/c =  0.8129   67

   7   rms: 0.1475E-05   max: -.1244E-04   C at   67  2
       a =  0.000      CL =  0.2753
      Cm = -0.0606     CD =  0.00539   =>   CDf =  0.00403    CDp =  0.00136
 plradd ia,ip,cpol            9           0  0.14613672    

 Point added to stored polar  1
 Point written to save file  hq208_Re600k.base.pol                           
 Dump file unspecified or not available
 Calculating wake trajectory ...
 Calculating source influence matrix ...

 Solving BL system ...

 Side 1  free  transition at x/c =  0.8124   67
 Side 2  free  transition at x/c =  0.8129   67

   1   rms: 0.1010E+00   max: -.6711E+00   C at   67  2   RLX: 0.745
       a =  0.500      CL =  0.3137
      Cm = -0.0596     CD =  0.00534   =>   CDf =  0.00406    CDp =  0.00128

 Side 1  free  transition at x/c =  0.7973   67
 Side 2  free  transition at x/c =  0.8229   66

   2   rms: 0.1960E+00   max: -.3310E+01   T at    2  1   RLX: 0.151
       a =  0.500      CL =  0.3183
      Cm = -0.0609     CD =  0.00571   =>   CDf =  0.00418    CDp =  0.00153

 Side 1  free  transition at x/c =  0.7965   66
 Side 2  free  transition at x/c =  0.8278   67

   3   rms: 0.3585E-01   max: -.2984E+00   C at   67  2
       a =  0.500      CL =  0.3293
      Cm = -0.0601     CD =  0.00529   =>   CDf =  0.00410    CDp =  0.00118

 Side 1  free  transition at x/c =  0.7898   66
 Side 2  free  transition at x/c =  0.8490   68

   4   rms: 0.1442E-01   max: -.2454E+00   C at   68  2
       a =  0.500      CL =  0.3282
      Cm = -0.0597     CD =  0.00530   =>   CDf =  0.00403    CDp =  0.00127

 Side 1  free  transition at x/c =  0.7901   66
 Side 2  free  transition at x/c =  0.8458   68

   5   rms: 0.3889E-03   max: 0.6958E-02   D at   70  2
       a =  0.500      CL =  0.3283
      Cm = -0.0598     CD =  0.00531   =>   CDf =  0.00400    CDp =  0.00132

 Side 1  free  transition at x/c =  0.7901   66
 Side 2  free  transition at x/c =  0.8460   68

   6   rms: 0.2575E-05   max: -.3712E-04   C at   68  2
       a =  0.500      CL =  0.3283
      Cm = -0.0598     CD =  0.00531   =>   CDf =  0.00400    CDp =  0.00132
 plradd ia,ip,cpol           10           0  0.13293605    

 Point added to stored polar  1
 Point written to save file  hq208_Re600k.base.pol                           
 Dump file unspecified or not available
 Calculating wake trajectory ...
 Calculating source influence matrix ...

 Solving BL system ...

 Side 1  free  transition at x/c =  0.7901   66
 Side 2  free  transition at x/c =  0.8460   68

   1   rms: 0.9020E-01   max: -.6099E+00   C at   68  2   RLX: 0.820
       a =  1.000      CL =  0.3719
      Cm = -0.0591     CD =  0.00526   =>   CDf =  0.00400    CDp =  0.00127

 Side 1  free  transition at x/c =  0.7697   64
 Side 2  free  transition at x/c =  0.8706   70

   2   rms: 0.3733E-01   max: -.5718E+00   C at   70  2   RLX: 0.874
       a =  1.000      CL =  0.3789
      Cm = -0.0586     CD =  0.00520   =>   CDf =  0.00404    CDp =  0.00117

 Side 1  free  transition at x/c =  0.7690   64
 Side 2  free  transition at x/c =  0.8812   71

   3   rms: 0.1925E-01   max: -.3587E+00   C at   71  2
       a =  1.000      CL =  0.3798
      Cm = -0.0585     CD =  0.00519   =>   CDf =  0.00397    CDp =  0.00122

 Side 1  free  transition at x/c =  0.7678   64
 Side 2  free  transition at x/c =  0.8902   71

   4   rms: 0.2158E-02   max: -.3791E-01   C at   71  2
       a =  1.000      CL =  0.3798
      Cm = -0.0585     CD =  0.00521   =>   CDf =  0.00392    CDp =  0.00128

 Side 1  free  transition at x/c =  0.7678   64
 Side 2  free  transition at x/c =  0.8906   71

   5   rms: 0.3317E-04   max: 0.5914E-03   C at   71  2
       a =  1.000      CL =  0.3798
      Cm = -0.0585     CD =  0.00521   =>   CDf =  0.00392    CDp =  0.00129
 plradd ia,ip,cpol           11           0  0.11978497    

 Point added to stored polar  1
 Point written to save file  hq208_Re600k.base.pol                           
 Dump file unspecified or not available
 Calculating wake trajectory ...
 Calculating source influence matrix ...

 Solving BL system ...

 Side 1  free  transition at x/c =  0.7678   64
 Side 2  free  transition at x/c =  0.8906   71

   1   rms: 0.1092E+00   max: -.1404E+01   C at   71  2   RLX: 0.356
       a =  1.500      CL =  0.3980
      Cm = -0.0581     CD =  0.00515   =>   CDf =  0.00392    CDp =  0.00123

 Side 1  free  transition at x/c =  0.7572   64
 Side 2  free  transition at x/c =  0.9124   73

   2   rms: 0.1228E+00   max: -.2101E+01   C at   73  2   RLX: 0.238
       a =  1.500      CL =  0.4057
      Cm = -0.0577     CD =  0.00516   =>   CDf =  0.00391    CDp =  0.00125

 Side 1  free  transition at x/c =  0.7546   63
 Side 2  free  transition at x/c =  0.9200   74

   3   rms: 0.1014E+00   max: -.1778E+01   C at   74  2   RLX: 0.281
       a =  1.500      CL =  0.4137
      Cm = -0.0579     CD =  0.00513   =>   CDf =  0.00390    CDp =  0.00122

 Side 1  free  transition at x/c =  0.7509   63
 Side 2  free  transition at x/c =  0.9319   74

   4   rms: 0.8395E-01   max: -.1458E+01   C at   74  2   RLX: 0.343
       a =  1.500      CL =  0.4213
      Cm = -0.0581     CD =  0.00513   =>   CDf =  0.00387    CDp =  0.00126

 Side 1  free  transition at x/c =  0.7478   63
 Side 2  free  transition at x/c =  0.9542   76

   5   rms: 0.8038E-01   max: -.1257E+01   C at   76  2   RLX: 0.398
       a =  1.500      CL =  0.4327
      Cm = -0.0594     CD =  0.00509   =>   CDf =  0.00381    CDp =  0.00128

 Side 1  free  transition at x/c =  0.7454   64
 Side 2  free  transition at x/c =  0.9648   76

   6   rms: 0.5929E-01   max: -.8762E+00   C at   76  2   RLX: 0.571
       a =  1.500      CL =  0.4427
      Cm = -0.0606     CD =  0.00511   =>   CDf =  0.00383    CDp =  0.00128

 Side 1  free  transition at x/c =  0.7435   64
 Side 2  free  transition at x/c =  0.9795   77

   7   rms: 0.3641E-01   max: -.6024E+00   C at   77  2   RLX: 0.830
       a =  1.500      CL =  0.4486
      Cm = -0.0612     CD =  0.00511   =>   CDf =  0.00384    CDp =  0.00127

 Side 1  free  transition at x/c =  0.7424   63
 Side 2  free  transition at x/c =  0.9978   79

   8   rms: 0.1304E-01   max: 0.3049E+00   C at   79  2
       a =  1.500      CL =  0.4494
      Cm = -0.0613     CD =  0.00511   =>   CDf =  0.00384    CDp =  0.00127

 Side 1  free  transition at x/c =  0.7420   63
 Side 2 forced transition at x/c =  1.0000   79

   9   rms: 0.2469E-02   max: -.2716E-01   C at   79  2
       a =  1.500      CL =  0.4477
      Cm = -0.0609     CD =  0.00511   =>   CDf =  0.00384    CDp =  0.00126

 Side 1  free  transition at x/c =  0.7421   63
 Side 2 forced transition at x/c =  1.0000   79

  10   rms: 0.1834E-04   max: 0.2872E-03   C at   79  2
       a =  1.500      CL =  0.4477
      Cm = -0.0609     CD =  0.00511   =>   CDf =  0.00384    CDp =  0.00126
 plradd ia,ip,cpol           12           0  0.10670805    

 Point added to stored polar  1
 Point written to save file  hq208_Re600k.base.pol                           
 Dump file unspecified or not available
 Calculating wake trajectory ...
 Calculating source influence matrix ...

 Solving BL system ...

 Side 1  free  transition at x/c =  0.7421   63
 Side 2 forced transition at x/c =  1.0000   79

   1   rms: 0.9121E-01   max: -.2271E+00   n at   78  2
       a =  2.000      CL =  0.5032
      Cm = -0.0610     CD =  0.00519   =>   CDf =  0.00385    CDp =  0.00134

 Side 1  free  transition at x/c =  0.7023   60
 Side 2 forced transition at x/c =  1.0000   79

   2   rms: 0.1911E-01   max: -.2929E+00   D at   61  1
       a =  2.000      CL =  0.5014
      Cm = -0.0605     CD =  0.00533   =>   CDf =  0.00406    CDp =  0.00127

 Side 1  free  transition at x/c =  0.7124   61
 Side 2 forced transition at x/c =  1.0000   79

   3   rms: 0.8283E-02   max: -.1330E+00   C at   61  1
       a =  2.000      CL =  0.5021
      Cm = -0.0607     CD =  0.00526   =>   CDf =  0.00398    CDp =  0.00128

 Side 1  free  transition at x/c =  0.7095   61
 Side 2 forced transition at x/c =  1.0000   79

   4   rms: 0.8383E-03   max: -.1245E-01   C at   61  1
       a =  2.000      CL =  0.5021
      Cm = -0.0606     CD =  0.00527   =>   CDf =  0.00396    CDp =  0.00131

 Side 1  free  transition at x/c =  0.7099   61
 Side 2 forced transition at x/c =  1.0000   79

   5   rms: 0.4702E-05   max: -.5399E-04   D at   63  1
       a =  2.000      CL =  0.5021
      Cm = -0.0606     CD =  0.00527   =>   CDf =  0.00395    CDp =  0.00132
 plradd ia,ip,cpol           13           0  2.07553450E-02

 Point added to stored polar  1
 Point written to save file  hq208_Re600k.base.pol                           
 Dump file unspecified or not available
 Calculating wake trajectory ...
 Calculating source influence matrix ...

 Solving BL system ...

 Side 1  free  transition at x/c =  0.7099   61
 Side 2 forced transition at x/c =  1.0000   79

   1   rms: 0.9256E-01   max: -.1539E+00   C at   79  2
       a =  2.500      CL =  0.5561
      Cm = -0.0603     CD =  0.00545   =>   CDf =  0.00387    CDp =  0.00158

 Side 1  free  transition at x/c =  0.6624   59
 Side 2 forced transition at x/c =  1.0000   78

   2   rms: 0.2854E-01   max: -.3001E+00   T at    2  1
       a =  2.500      CL =  0.5555
      Cm = -0.0601     CD =  0.00548   =>   CDf =  0.00415    CDp =  0.00132

 Side 1  free  transition at x/c =  0.6727   59
 Side 2 forced transition at x/c =  1.0000   78

   3   rms: 0.7902E-02   max: 0.1123E+00   C at   59  1
       a =  2.500      CL =  0.5556
      Cm = -0.0602     CD =  0.00550   =>   CDf =  0.00404    CDp =  0.00146

 Side 1  free  transition at x/c =  0.6692   59
 Side 2 forced transition at x/c =  1.0000   78

   4   rms: 0.2358E-03   max: -.3842E-02   D at   61  1
       a =  2.500      CL =  0.5556
      Cm = -0.0602     CD =  0.00550   =>   CDf =  0.00406    CDp =  0.00144

 Side 1  free  transition at x/c =  0.6692   59
 Side 2 forced transition at x/c =  1.0000   78

   5   rms: 0.1772E-05   max: 0.1887E-04   D at    6  1
       a =  2.500      CL =  0.5556
      Cm = -0.0602     CD =  0.00550   =>   CDf =  0.00406    CDp =  0.00144
 plradd ia,ip,cpol           14           0  1.20677240E-02

 Point added to stored polar  1
 Point written to save file  hq208_Re600k.base.pol                           
 Dump file unspecified or not available
 Calculating wake trajectory ...
 Calculating source influence matrix ...

 Solving BL system ...

 Side 1  free  transition at x/c =  0.6692   59
 Side 2 forced transition at x/c =  1.0000   78

   1   rms: 0.9851E-01   max: 0.8363E+00   C at   59  1
       a =  3.000      CL =  0.6089
      Cm = -0.0597     CD =  0.00576   =>   CDf =  0.00406    CDp =  0.00169

 Side 1  free  transition at x/c =  0.5684   52
 Side 2 forced transition at x/c =  1.0000   78

   2   rms: 0.3667E-01   max: -.4940E+00   C at   52  1
       a =  3.000      CL =  0.6065
      Cm = -0.0591     CD =  0.00589   =>   CDf =  0.00450    CDp =  0.00139

 Side 1  free  transition at x/c =  0.5945   54
 Side 2 forced transition at x/c =  1.0000   78

   3   rms: 0.1164E-01   max: 0.2001E+00   C at   54  1
       a =  3.000      CL =  0.6063
      Cm = -0.0591     CD =  0.00595   =>   CDf =  0.00433    CDp =  0.00162

 Side 1  free  transition at x/c =  0.5896   53
 Side 2 forced transition at x/c =  1.0000   78

   4   rms: 0.1701E-02   max: 0.2766E-01   C at   53  1
       a =  3.000      CL =  0.6065
      Cm = -0.0592     CD =  0.00594   =>   CDf =  0.00435    CDp =  0.00159

 Side 1  free  transition at x/c =  0.5889   53
 Side 2 forced transition at x/c =  1.0000   78

   5   rms: 0.1402E-04   max: -.2249E-03   D at   56  1
       a =  3.000      CL =  0.6065
      Cm = -0.0592     CD =  0.00594   =>   CDf =  0.00436    CDp =  0.00158
 plradd ia,ip,cpol           15           0  1.20677240E-02

 Point added to stored polar  1
 Point written to save file  hq208_Re600k.base.pol                           
 Dump file unspecified or not available
 Calculating wake trajectory ...
 Calculating source influence matrix ...

 Solving BL system ...

 Side 1  free  transition at x/c =  0.5889   53
 Side 2 forced transition at x/c =  1.0000   78

   1   rms: 0.1831E+00   max: 0.2896E+01   C at   53  1   RLX: 0.511
       a =  3.500      CL =  0.6314
      Cm = -0.0585     CD =  0.00627   =>   CDf =  0.00436    CDp =  0.00191

 Side 1  free  transition at x/c =  0.4970   46
 Side 2 forced transition at x/c =  1.0000   78

   2   rms: 0.6068E-01   max: 0.7227E+00   C at   46  1
       a =  3.500      CL =  0.6548
      Cm = -0.0579     CD =  0.00674   =>   CDf =  0.00478    CDp =  0.00196

 Side 1  free  transition at x/c =  0.4190   41
 Side 2 forced transition at x/c =  1.0000   78

   3   rms: 0.2420E-01   max: -.4171E+00   C at   41  1
       a =  3.500      CL =  0.6528
      Cm = -0.0576     CD =  0.00693   =>   CDf =  0.00511    CDp =  0.00183

 Side 1  free  transition at x/c =  0.4307   42
 Side 2 forced transition at x/c =  1.0000   78

   4   rms: 0.1387E-02   max: -.1979E-01   C at   42  1
       a =  3.500      CL =  0.6527
      Cm = -0.0576     CD =  0.00696   =>   CDf =  0.00504    CDp =  0.00192

 Side 1  free  transition at x/c =  0.4313   42
 Side 2 forced transition at x/c =  1.0000   78

   5   rms: 0.1929E-04   max: -.3639E-03   C at   42  1
       a =  3.500      CL =  0.6527
      Cm = -0.0576     CD =  0.00696   =>   CDf =  0.00504    CDp =  0.00192
 plradd ia,ip,cpol           16           0  6.45021489E-03

 Point added to stored polar  1
 Point written to save file  hq208_Re600k.base.pol                           
 Dump file unspecified or not available
 Calculating wake trajectory ...
 Calculating source influence matrix ...

 Solving BL system ...

 Side 1  free  transition at x/c =  0.4313   42
 Side 2 forced transition at x/c =  1.0000   78

   1   rms: 0.2747E+00   max: 0.5012E+01   C at   42  1   RLX: 0.299
       a =  4.000      CL =  0.6659
      Cm = -0.0572     CD =  0.00737   =>   CDf =  0.00504    CDp =  0.00234

 Side 1  free  transition at x/c =  0.3824   38
 Side 2 forced transition at x/c =  1.0000   78

   2   rms: 0.1489E+00   max: 0.2720E+01   C at   38  1   RLX: 0.551
       a =  4.000      CL =  0.6845
      Cm = -0.0568     CD =  0.00773   =>   CDf =  0.00504    CDp =  0.00269

 Side 1  free  transition at x/c =  0.3250   35
 Side 2 forced transition at x/c =  1.0000   77

   3   rms: 0.5080E-01   max: 0.7927E+00   C at   35  1
       a =  4.000      CL =  0.7001
      Cm = -0.0566     CD =  0.00806   =>   CDf =  0.00548    CDp =  0.00258

 Side 1  free  transition at x/c =  0.2958   33
 Side 2 forced transition at x/c =  1.0000   77

   4   rms: 0.9402E-02   max: -.1554E+00   C at   33  1
       a =  4.000      CL =  0.7003
      Cm = -0.0566     CD =  0.00803   =>   CDf =  0.00560    CDp =  0.00242

 Side 1  free  transition at x/c =  0.2992   33
 Side 2 forced transition at x/c =  1.0000   77

   5   rms: 0.7215E-03   max: -.1280E-01   D at   34  1
       a =  4.000      CL =  0.7003
      Cm = -0.0566     CD =  0.00803   =>   CDf =  0.00557    CDp =  0.00245

 Side 1  free  transition at x/c =  0.2990   33
 Side 2 forced transition at x/c =  1.0000   77

   6   rms: 0.6751E-05   max: 0.1192E-03   C at   33  1
       a =  4.000      CL =  0.7003
      Cm = -0.0566     CD =  0.00803   =>   CDf =  0.00558    CDp =  0.00245
 plradd ia,ip,cpol           17           0  6.45021489E-03

 Point added to stored polar  1
 Point written to save file  hq208_Re600k.base.pol                           
 Dump file unspecified or not available
 Calculating wake trajectory ...
 Calculating source influence matrix ...

 Solving BL system ...

 Side 1  free  transition at x/c =  0.2990   33
 Side 2 forced transition at x/c =  1.0000   77

   1   rms: 0.1852E+00   max: 0.3354E+01   C at   33  1   RLX: 0.447
       a =  4.500      CL =  0.7222
      Cm = -0.0562     CD =  0.00846   =>   CDf =  0.00558    CDp =  0.00288

 Side 1  free  transition at x/c =  0.2629   30
 Side 2 forced transition at x/c =  1.0000   77

   2   rms: 0.6066E-01   max: 0.7041E+00   C at   30  1
       a =  4.500      CL =  0.7511
      Cm = -0.0560     CD =  0.00875   =>   CDf =  0.00574    CDp =  0.00301

 Side 1  free  transition at x/c =  0.2244   27
 Side 2 forced transition at x/c =  1.0000   77

   3   rms: 0.1308E-01   max: -.2161E+00   C at   27  1
       a =  4.500      CL =  0.7502
      Cm = -0.0559     CD =  0.00885   =>   CDf =  0.00590    CDp =  0.00295

 Side 1  free  transition at x/c =  0.2296   28
 Side 2 forced transition at x/c =  1.0000   77

   4   rms: 0.1308E-02   max: -.1865E-01   D at   29  1
       a =  4.500      CL =  0.7504
      Cm = -0.0559     CD =  0.00883   =>   CDf =  0.00586    CDp =  0.00297

 Side 1  free  transition at x/c =  0.2294   28
 Side 2 forced transition at x/c =  1.0000   77

   5   rms: 0.2022E-04   max: 0.3800E-03   C at   28  1
       a =  4.500      CL =  0.7504
      Cm = -0.0559     CD =  0.00883   =>   CDf =  0.00586    CDp =  0.00297
 plradd ia,ip,cpol           18           0  3.09526338E-04

 Point added to stored polar  1
 Point written to save file  hq208_Re600k.base.pol                           
 Dump file unspecified or not available
 Calculating wake trajectory ...
 Calculating source influence matrix ...

 Solving BL system ...

 Side 1  free  transition at x/c =  0.2294   28
 Side 2 forced transition at x/c =  1.0000   77

   1   rms: 0.1942E+00   max: 0.2955E+01   C at   28  1   RLX: 0.349
       a =  5.000      CL =  0.7670
      Cm = -0.0556     CD =  0.00925   =>   CDf =  0.00586    CDp =  0.00339

 Side 1  free  transition at x/c =  0.1919   25
 Side 2 forced transition at x/c =  1.0000   77

   2   rms: 0.1217E+00   max: 0.1869E+01   C at   25  1   RLX: 0.575
       a =  5.000      CL =  0.7848
      Cm = -0.0553     CD =  0.00962   =>   CDf =  0.00603    CDp =  0.00358

 Side 1  free  transition at x/c =  0.1524   22
 Side 2 forced transition at x/c =  1.0000   77

   3   rms: 0.5817E-01   max: 0.1070E+01   C at   22  1
       a =  5.000      CL =  0.7984
      Cm = -0.0551     CD =  0.00992   =>   CDf =  0.00622    CDp =  0.00371

 Side 1  free  transition at x/c =  0.1102   19
 Side 2 forced transition at x/c =  1.0000   77

   4   rms: 0.1251E-01   max: -.2149E+00   C at   19  1
       a =  5.000      CL =  0.7976
      Cm = -0.0550     CD =  0.01002   =>   CDf =  0.00645    CDp =  0.00357

 Side 1  free  transition at x/c =  0.1143   19
 Side 2 forced transition at x/c =  1.0000   77

   5   rms: 0.3661E-03   max: 0.5339E-02   D at   19  1
       a =  5.000      CL =  0.7976
      Cm = -0.0550     CD =  0.01003   =>   CDf =  0.00642    CDp =  0.00360

 Side 1  free  transition at x/c =  0.1144   19
 Side 2 forced transition at x/c =  1.0000   77

   6   rms: 0.1132E-05   max: -.2137E-04   C at   19  1
       a =  5.000      CL =  0.7976
      Cm = -0.0550     CD =  0.01003   =>   CDf =  0.00642    CDp =  0.00360
 plradd ia,ip,cpol           19           0 -5.75672311E-05

 Point added to stored polar  1
 Point written to save file  hq208_Re600k.base.pol                           
 Dump file unspecified or not available
 Calculating wake trajectory ...
 Calculating source influence matrix ...

 Solving BL system ...

 Side 1  free  transition at x/c =  0.1144   19
 Side 2 forced transition at x/c =  1.0000   77

   1   rms: 0.3681E+00   max: 0.8233E+01   C at   19  1   RLX: 0.182
       a =  5.500      CL =  0.8054
      Cm = -0.0548     CD =  0.01035   =>   CDf =  0.00642    CDp =  0.00393

 Side 1  free  transition at x/c =  0.0887   17
 Side 2 forced transition at x/c =  1.0000   77

   2   rms: 0.1993E+00   max: 0.4314E+01   C at   17  1   RLX: 0.348
       a =  5.500      CL =  0.8186
      Cm = -0.0545     CD =  0.01072   =>   CDf =  0.00657    CDp =  0.00415

 Side 1  free  transition at x/c =  0.0668   15
 Side 2 forced transition at x/c =  1.0000   77

   3   rms: 0.2442E+00   max: 0.3364E+01   T at    2  2   RLX: 0.173
       a =  5.500      CL =  0.8231
      Cm = -0.0544     CD =  0.01079   =>   CDf =  0.00639    CDp =  0.00440

 Side 1  free  transition at x/c =  0.0619   16
 Side 2 forced transition at x/c =  1.0000   76

   4   rms: 0.1054E+00   max: 0.1362E+01   D at    2  1   RLX: 0.676
       a =  5.500      CL =  0.8376
      Cm = -0.0541     CD =  0.01112   =>   CDf =  0.00668    CDp =  0.00444

 Side 1  free  transition at x/c =  0.0499   15
 Side 2 forced transition at x/c =  1.0000   76

   5   rms: 0.2195E-01   max: 0.3506E+00   C at   15  1
       a =  5.500      CL =  0.8449
      Cm = -0.0540     CD =  0.01123   =>   CDf =  0.00673    CDp =  0.00450

 Side 1  free  transition at x/c =  0.0438   15
 Side 2 forced transition at x/c =  1.0000   76

   6   rms: 0.1551E-02   max: 0.1999E-01   D at    9  1
       a =  5.500      CL =  0.8448
      Cm = -0.0540     CD =  0.01124   =>   CDf =  0.00678    CDp =  0.00446

 Side 1  free  transition at x/c =  0.0432   14
 Side 2 forced transition at x/c =  1.0000   76

   7   rms: 0.1537E-03   max: -.3247E-02   C at   14  1
       a =  5.500      CL =  0.8448
      Cm = -0.0540     CD =  0.01124   =>   CDf =  0.00679    CDp =  0.00445

 Side 1  free  transition at x/c =  0.0432   14
 Side 2 forced transition at x/c =  1.0000   76

   8   rms: 0.4616E-06   max: -.2281E-05   D at    7  1
       a =  5.500      CL =  0.8448
      Cm = -0.0540     CD =  0.01124   =>   CDf =  0.00679    CDp =  0.00445
 plradd ia,ip,cpol           20           0 -5.75672311E-05

 Point added to stored polar  1
 Point written to save file  hq208_Re600k.base.pol                           
 Dump file unspecified or not available
 Calculating wake trajectory ...
 Calculating source influence matrix ...

 Solving BL system ...

 Side 1  free  transition at x/c =  0.0432   14
 Side 2 forced transition at x/c =  1.0000   76

   1   rms: 0.9825E-01   max: 0.9848E+00   C at   14  1
       a =  6.000      CL =  0.8962
      Cm = -0.0534     CD =  0.01188   =>   CDf =  0.00679    CDp =  0.00509

 Side 1  free  transition at x/c =  0.0174   12
 Side 2 forced transition at x/c =  1.0000   76

   2   rms: 0.1151E-01   max: -.1445E+00   D at   12  1
       a =  6.000      CL =  0.8941
      Cm = -0.0531     CD =  0.01219   =>   CDf =  0.00684    CDp =  0.00534

 Side 1  free  transition at x/c =  0.0159   12
 Side 2 forced transition at x/c =  1.0000   76

   3   rms: 0.4842E-03   max: -.7038E-02   D at   12  1
       a =  6.000      CL =  0.8940
      Cm = -0.0531     CD =  0.01220   =>   CDf =  0.00688    CDp =  0.00533

 Side 1  free  transition at x/c =  0.0158   12
 Side 2 forced transition at x/c =  1.0000   76

   4   rms: 0.1522E-05   max: 0.7693E-05   D at   10  1
       a =  6.000      CL =  0.8940
      Cm = -0.0531     CD =  0.01220   =>   CDf =  0.00688    CDp =  0.00533
 plradd ia,ip,cpol           21           0 -5.75672311E-05

 Point added to stored polar  1
 Point written to save file  hq208_Re600k.base.pol                           
 Dump file unspecified or not available
 Calculating wake trajectory ...
 Calculating source influence matrix ...

 Solving BL system ...

 Side 1  free  transition at x/c =  0.0158   12
 Side 2 forced transition at x/c =  1.0000   76

   1   rms: 0.1827E+00   max: 0.2674E+01   C at   12  1   RLX: 0.343
       a =  6.500      CL =  0.9091
      Cm = -0.0526     CD =  0.01280   =>   CDf =  0.00688    CDp =  0.00593

 Side 1  free  transition at x/c =  0.0087   11
 Side 2 forced transition at x/c =  1.0000   76

   2   rms: 0.8043E-01   max: 0.8568E+00   C at   11  1
       a =  6.500      CL =  0.9416
      Cm = -0.0518     CD =  0.01346   =>   CDf =  0.00692    CDp =  0.00654

 Side 1  free  transition at x/c =  0.0060   10
 Side 2 forced transition at x/c =  1.0000   76

   3   rms: 0.1367E-01   max: -.1954E+00   D at   11  1
       a =  6.500      CL =  0.9421
      Cm = -0.0518     CD =  0.01336   =>   CDf =  0.00678    CDp =  0.00657

 Side 1  free  transition at x/c =  0.0059   10
 Side 2 forced transition at x/c =  1.0000   76

   4   rms: 0.8717E-03   max: -.7155E-02   D at   11  1
       a =  6.500      CL =  0.9419
      Cm = -0.0518     CD =  0.01339   =>   CDf =  0.00683    CDp =  0.00656

 Side 1  free  transition at x/c =  0.0059   10
 Side 2 forced transition at x/c =  1.0000   76

   5   rms: 0.4732E-05   max: -.2784E-04   D at   11  1
       a =  6.500      CL =  0.9419
      Cm = -0.0518     CD =  0.01339   =>   CDf =  0.00683    CDp =  0.00656
 plradd ia,ip,cpol           22           0 -5.75672311E-05

 Point added to stored polar  1
 Point written to save file  hq208_Re600k.base.pol                           
 Dump file unspecified or not available
 Calculating wake trajectory ...
 Calculating source influence matrix ...

 Solving BL system ...

 Side 1  free  transition at x/c =  0.0059   10
 Side 2 forced transition at x/c =  1.0000   76

   1   rms: 0.9770E-01   max: 0.3959E+00   T at   10  1
       a =  7.000      CL =  0.9898
      Cm = -0.0504     CD =  0.01465   =>   CDf =  0.00683    CDp =  0.00782

 Side 1  free  transition at x/c =  0.0047   10
 Side 2 forced transition at x/c =  1.0000   76

   2   rms: 0.7028E-02   max: -.5074E-01   D at   11  1
       a =  7.000      CL =  0.9879
      Cm = -0.0501     CD =  0.01488   =>   CDf =  0.00657    CDp =  0.00831

 Side 1  free  transition at x/c =  0.0046   10
 Side 2 forced transition at x/c =  1.0000   76

   3   rms: 0.5046E-03   max: 0.8494E-02   D at   10  1
       a =  7.000      CL =  0.9879
      Cm = -0.0501     CD =  0.01489   =>   CDf =  0.00659    CDp =  0.00829

 Side 1  free  transition at x/c =  0.0046   10
 Side 2 forced transition at x/c =  1.0000   76

   4   rms: 0.4667E-05   max: 0.5672E-04   D at   10  1
       a =  7.000      CL =  0.9879
      Cm = -0.0501     CD =  0.01489   =>   CDf =  0.00659    CDp =  0.00829
 plradd ia,ip,cpol           23           0 -5.75672311E-05

 Point added to stored polar  1
 Point written to save file  hq208_Re600k.base.pol                           
 Dump file unspecified or not available
 Calculating wake trajectory ...
 Calculating source influence matrix ...

 Solving BL system ...

 Side 1  free  transition at x/c =  0.0046   10
 Side 2 forced transition at x/c =  1.0000   76

   1   rms: 0.1028E+00   max: 0.3032E+00   D at   11  1
       a =  7.500      CL =  1.0325
      Cm = -0.0483     CD =  0.01666   =>   CDf =  0.00611    CDp =  0.01056

 Side 1  free  transition at x/c =  0.0043   11
 Side 2 forced transition at x/c =  1.0000   75

   2   rms: 0.1183E-01   max: -.1612E+00   T at    2  1
       a =  7.500      CL =  1.0299
      Cm = -0.0479     CD =  0.01691   =>   CDf =  0.00627    CDp =  0.01064

 Side 1  free  transition at x/c =  0.0043   11
 Side 2 forced transition at x/c =  1.0000   75

   3   rms: 0.1785E-02   max: -.1553E-01   D at    4  1
       a =  7.500      CL =  1.0299
      Cm = -0.0479     CD =  0.01691   =>   CDf =  0.00627    CDp =  0.01064

 Side 1  free  transition at x/c =  0.0043   11
 Side 2 forced transition at x/c =  1.0000   75

   4   rms: 0.9303E-05   max: 0.1030E-03   D at   11  1
       a =  7.500      CL =  1.0299
      Cm = -0.0479     CD =  0.01691   =>   CDf =  0.00627    CDp =  0.01064
 plradd ia,ip,cpol           24           0 -5.75672311E-05

 Point added to stored polar  1
 Point written to save file  hq208_Re600k.base.pol                           
 Dump file unspecified or not available
 Calculating wake trajectory ...
 Calculating source influence matrix ...

 Solving BL system ...

 Side 1  free  transition at x/c =  0.0043   11
 Side 2 forced transition at x/c =  1.0000   75

   1   rms: 0.1113E+00   max: 0.3504E+00   D at   12  1
       a =  8.000      CL =  1.0696
      Cm = -0.0453     CD =  0.01943   =>   CDf =  0.00627    CDp =  0.01316

 Side 1  free  transition at x/c =  0.0043   11
 Side 2 forced transition at x/c =  1.0000   75

   2   rms: 0.1313E-01   max: 0.1380E+00   D at   11  1
       a =  8.000      CL =  1.0673
      Cm = -0.0449     CD =  0.01975   =>   CDf =  0.00595    CDp =  0.01380

 Side 1  free  transition at x/c =  0.0043   11
 Side 2 forced transition at x/c =  1.0000   75

   3   rms: 0.2109E-02   max: 0.1383E-01   D at   11  1
       a =  8.000      CL =  1.0673
      Cm = -0.0449     CD =  0.01974   =>   CDf =  0.00592    CDp =  0.01382

 Side 1  free  transition at x/c =  0.0043   11
 Side 2 forced transition at x/c =  1.0000   75

   4   rms: 0.1796E-04   max: 0.1487E-03   D at   11  1
       a =  8.000      CL =  1.0673
      Cm = -0.0449     CD =  0.01974   =>   CDf =  0.00591    CDp =  0.01383
 plradd ia,ip,cpol           25           0 -5.75672311E-05

 Point added to stored polar  1
 Point written to save file  hq208_Re600k.base.pol                           
 Dump file unspecified or not available
 Calculating wake trajectory ...
 Calculating source influence matrix ...

 Solving BL system ...

 Side 1  free  transition at x/c =  0.0043   11
 Side 2 forced transition at x/c =  1.0000   75

   1   rms: 0.1194E+00   max: 0.4131E+00   D at   12  1
       a =  8.500      CL =  1.1036
      Cm = -0.0417     CD =  0.02320   =>   CDf =  0.00591    CDp =  0.01729

 Side 1  free  transition at x/c =  0.0047   11
 Side 2 forced transition at x/c =  1.0000   75

   2   rms: 0.4847E-01   max: 0.2762E+00   D at   11  1
       a =  8.500      CL =  1.0987
      Cm = -0.0409     CD =  0.02487   =>   CDf =  0.00546    CDp =  0.01942

 Side 1  free  transition at x/c =  0.0049   11
 Side 2 forced transition at x/c =  1.0000   75

   3   rms: 0.5649E-02   max: 0.2311E-01   D at   12  1
       a =  8.500      CL =  1.0988
      Cm = -0.0409     CD =  0.02481   =>   CDf =  0.00531    CDp =  0.01950

 Side 1  free  transition at x/c =  0.0049   11
 Side 2 forced transition at x/c =  1.0000   75

   4   rms: 0.1075E-03   max: -.4088E-03   D at   87  1
       a =  8.500      CL =  1.0987
      Cm = -0.0409     CD =  0.02480   =>   CDf =  0.00529    CDp =  0.01952

 Side 1  free  transition at x/c =  0.0049   11
 Side 2 forced transition at x/c =  1.0000   75

   5   rms: 0.2722E-05   max: 0.9860E-05   D at   13  1
       a =  8.500      CL =  1.0987
      Cm = -0.0409     CD =  0.02481   =>   CDf =  0.00529    CDp =  0.01952
 plradd ia,ip,cpol           26           0 -5.75672311E-05

 Point added to stored polar  1
 Point written to save file  hq208_Re600k.base.pol                           
 Dump file unspecified or not available
 Calculating wake trajectory ...
 Calculating source influence matrix ...

 Solving BL system ...

 Side 1  free  transition at x/c =  0.0049   11
 Side 2 forced transition at x/c =  1.0000   75

   1   rms: 0.2070E+00   max: 0.7326E+00   D at   13  1
       a =  9.000      CL =  1.1260
      Cm = -0.0362     CD =  0.03296   =>   CDf =  0.00529    CDp =  0.02767

 Side 1  free  transition at x/c =  0.0076   12
 Side 2 forced transition at x/c =  1.0000   75

   2   rms: 0.6868E+00   max: -.5397E+01   T at   12  1   RLX: 0.093
       a =  9.000      CL =  1.1269
      Cm = -0.0352     CD =  0.03253   =>   CDf =  0.00467    CDp =  0.02786

 Side 1  free  transition at x/c =  0.0100   12
 Side 2 forced transition at x/c =  1.0000   75

   3   rms: 0.6232E-01   max: 0.3120E+00   D at   14  1
       a =  9.000      CL =  1.0959
      Cm = -0.0325     CD =  0.04048   =>   CDf =  0.00362    CDp =  0.03686

 Side 1  free  transition at x/c =  0.0099   12
 Side 2 forced transition at x/c =  1.0000   75

   4   rms: 0.5420E-01   max: -.1924E+00   T at   12  1
       a =  9.000      CL =  1.0947
      Cm = -0.0321     CD =  0.04151   =>   CDf =  0.00397    CDp =  0.03754

 Side 1  free  transition at x/c =  0.0106   12
 Side 2 forced transition at x/c =  1.0000   75

   5   rms: 0.3300E-01   max: 0.9669E-01   T at   12  1
       a =  9.000      CL =  1.0959
      Cm = -0.0322     CD =  0.04067   =>   CDf =  0.00356    CDp =  0.03711

 Side 1  free  transition at x/c =  0.0103   12
 Side 2 forced transition at x/c =  1.0000   75

   6   rms: 0.1103E-01   max: 0.4092E-01   T at   12  1
       a =  9.000      CL =  1.0962
      Cm = -0.0323     CD =  0.04049   =>   CDf =  0.00369    CDp =  0.03680

 Side 1  free  transition at x/c =  0.0102   12
 Side 2 forced transition at x/c =  1.0000   75

   7   rms: 0.1618E-02   max: 0.6021E-02   T at   12  1
       a =  9.000      CL =  1.0963
      Cm = -0.0323     CD =  0.04049   =>   CDf =  0.00374    CDp =  0.03675

 Side 1  free  transition at x/c =  0.0102   12
 Side 2 forced transition at x/c =  1.0000   75

   8   rms: 0.1039E-04   max: -.5694E-04   D at   89  2
       a =  9.000      CL =  1.0963
      Cm = -0.0323     CD =  0.04050   =>   CDf =  0.00375    CDp =  0.03675
 plradd ia,ip,cpol           27           0 -5.75672311E-05

 Point added to stored polar  1
 Point written to save file  hq208_Re600k.base.pol                           
 Dump file unspecified or not available
 Calculating wake trajectory ...
 Calculating source influence matrix ...

 Solving BL system ...

 Side 1  free  transition at x/c =  0.0102   12
 Side 2 forced transition at x/c =  1.0000   75

   1   rms: 0.4095E+00   max: -.2318E+01   T at   12  1   RLX: 0.216
       a =  9.500      CL =  1.0805
      Cm = -0.0297     CD =  0.04601   =>   CDf =  0.00375    CDp =  0.04226

 Side 1  free  transition at x/c =  0.0148   13
 Side 2 forced transition at x/c =  1.0000   75

   2   rms: 0.3551E+00   max: 0.4101E+01   T at   13  1   RLX: 0.339
       a =  9.500      CL =  1.1166
      Cm = -0.0340     CD =  0.02775   =>   CDf =  0.00509    CDp =  0.02266

 MRCHDU: Convergence failed at  13  side 1    Res =  0.3660E+02
 MRCHDU: Convergence failed at  14  side 1    Res =  0.7543E+02
 MRCHDU: Convergence failed at  15  side 1    Res =  0.6727E+02
 MRCHDU: Convergence failed at  16  side 1    Res =  0.8441E+02
 MRCHDU: Convergence failed at  17  side 1    Res =  0.6123E+03
 MRCHDU: Convergence failed at  18  side 1    Res =  0.1004E+03
 MRCHDU: Convergence failed at  19  side 1    Res =  0.9875E+02
 MRCHDU: Convergence failed at  20  side 1    Res =  0.1058E+03
 MRCHDU: Convergence failed at  21  side 1    Res =  0.1015E+03
 MRCHDU: Convergence failed at  22  side 1    Res =  0.5938E+02
 MRCHDU: Convergence failed at  23  side 1    Res =  0.6535E+02
 MRCHDU: Convergence failed at  24  side 1    Res =  0.5961E+02
 MRCHDU: Convergence failed at  25  side 1    Res =  0.6575E+02
 MRCHDU: Convergence failed at  26  side 1    Res =  0.7163E+02
 MRCHDU: Convergence failed at  27  side 1    Res =  0.1094E+03
 MRCHDU: Convergence failed at  28  side 1    Res =  0.1012E+03
 MRCHDU: Convergence failed at  29  side 1    Res =  0.6653E+02
 MRCHDU: Convergence failed at  30  side 1    Res =  0.6892E+02
 MRCHDU: Convergence failed at  31  side 1    Res =  0.7251E+02
 MRCHDU: Convergence failed at  32  side 1    Res =  0.7594E+02
 MRCHDU: Convergence failed at  33  side 1    Res =  0.8002E+02
 MRCHDU: Convergence failed at  34  side 1    Res =  0.1039E+03
 MRCHDU: Convergence failed at  35  side 1    Res =  0.7121E+02
 MRCHDU: Convergence failed at  36  side 1    Res =  0.7395E+02
 MRCHDU: Convergence failed at  37  side 1    Res =  0.7685E+02
 MRCHDU: Convergence failed at  38  side 1    Res =  0.7989E+02
 MRCHDU: Convergence failed at  39  side 1    Res =  0.8295E+02
 MRCHDU: Convergence failed at  40  side 1    Res =  0.8620E+02
 MRCHDU: Convergence failed at  41  side 1    Res =  0.8958E+02
 MRCHDU: Convergence failed at  42  side 1    Res =  0.9321E+02
 MRCHDU: Convergence failed at  43  side 1    Res =  0.9792E+02
 MRCHDU: Convergence failed at  44  side 1    Res =  0.2157E+03
 MRCHDU: Convergence failed at  45  side 1    Res =  0.6751E+05
 MRCHDU: Convergence failed at  46  side 1    Res =  0.3911E+04
 MRCHDU: Convergence failed at  47  side 1    Res =  0.4537E+03
 MRCHDU: Convergence failed at  48  side 1    Res =  0.5001E+03
 MRCHDU: Convergence failed at  49  side 1    Res =  0.5567E+03
 MRCHDU: Convergence failed at  50  side 1    Res =  0.6268E+03
 MRCHDU: Convergence failed at  51  side 1    Res =  0.7175E+03
 MRCHDU: Convergence failed at  52  side 1    Res =  0.8363E+03
 MRCHDU: Convergence failed at  53  side 1    Res =  0.1002E+04
 MRCHDU: Convergence failed at  54  side 1    Res =  0.1247E+04
 MRCHDU: Convergence failed at  55  side 1    Res =  0.1649E+04
 MRCHDU: Convergence failed at  56  side 1    Res =  0.2414E+04
 MRCHDU: Convergence failed at  57  side 1    Res =  0.4455E+04
 MRCHDU: Convergence failed at  58  side 1    Res =  0.2780E+05
 MRCHDU: Convergence failed at  59  side 1    Res =  0.1831E+03
 MRCHDU: Convergence failed at  60  side 1    Res =  0.1786E+03
 MRCHDU: Convergence failed at  61  side 1    Res =  0.1750E+03
 MRCHDU: Convergence failed at  62  side 1    Res =  0.1010E+05
 MRCHDU: Convergence failed at  63  side 1    Res =  0.1674E+03
 MRCHDU: Convergence failed at  64  side 1    Res =  0.1139E+04
 MRCHDU: Convergence failed at  65  side 1    Res =  0.1907E+04
 MRCHDU: Convergence failed at  66  side 1    Res =  0.8905E+04
 MRCHDU: Convergence failed at  67  side 1    Res =  0.1569E+03
 MRCHDU: Convergence failed at  68  side 1    Res =  0.5570E+04
 MRCHDU: Convergence failed at  69  side 1    Res =  0.9412E+04
 MRCHDU: Convergence failed at  70  side 1    Res =  0.2637E+04
 MRCHDU: Convergence failed at  71  side 1    Res =  0.1570E+04
 MRCHDU: Convergence failed at  72  side 1    Res =  0.1140E+04
 MRCHDU: Convergence failed at  73  side 1    Res =  0.9100E+03
 MRCHDU: Convergence failed at  74  side 1    Res =  0.7619E+03
 MRCHDU: Convergence failed at  75  side 1    Res =  0.6582E+03
 MRCHDU: Convergence failed at  76  side 1    Res =  0.5867E+03
 MRCHDU: Convergence failed at  77  side 1    Res =  0.5331E+03
 MRCHDU: Convergence failed at  78  side 1    Res =  0.4890E+03
 MRCHDU: Convergence failed at  79  side 1    Res =  0.4533E+03
 MRCHDU: Convergence failed at  80  side 1    Res =  0.4238E+03
 MRCHDU: Convergence failed at  81  side 1    Res =  0.3959E+03
 MRCHDU: Convergence failed at  82  side 1    Res =  0.3721E+03
 MRCHDU: Convergence failed at  83  side 1    Res =  0.3541E+03
 MRCHDU: Convergence failed at  84  side 1    Res =  0.3349E+03
 MRCHDU: Convergence failed at  85  side 1    Res =  0.3022E+03
 MRCHDU: Convergence failed at  86  side 1    Res =  0.2601E+03
 MRCHDU: Convergence failed at  87  side 1    Res =  0.2161E+03
 Side 1  free  transition at x/c =  0.0103   12
 Side 2 forced transition at x/c =  1.0000   75

   3   rms: 0.3443E+01   max: 0.2752E+02   D at   77  2   RLX: 0.054
       a =  9.500      CL =  5.2820
      Cm = -1.2890     CD =  0.00437   =>   CDf =  0.00088    CDp =  0.00350

 MRCHDU: Convergence failed at  78  side 2    Res =  0.1309E+01
 MRCHDU: Convergence failed at  79  side 2    Res =  0.3746E+01
 Side 1  free  transition at x/c =  0.0099   12
 Side 2 forced transition at x/c =  1.0000   75

   4   rms: 0.2633E+01   max: 0.4060E+02   C at   75  2   RLX: 0.037
       a =  9.500      CL =  4.3141
      Cm = -0.9815     CD =  0.08986   =>   CDf =  0.00141    CDp =  0.08845

 Side 1  free  transition at x/c =  0.0098   12
 Side 2 forced transition at x/c =  1.0000   75

   5   rms: 0.1733E+01   max: 0.2333E+02   C at   75  2   RLX: 0.064
       a =  9.500      CL =  4.1232
      Cm = -0.9295     CD =  0.10544   =>   CDf =  0.00157    CDp =  0.10387

 Side 1  free  transition at x/c =  0.0099   12
 Side 2 forced transition at x/c =  1.0000   75

   6   rms: 0.1676E+01   max: 0.1310E+02   C at   75  2   RLX: 0.102
       a =  9.500      CL =  3.6997
      Cm = -0.8224     CD =  0.11815   =>   CDf =  0.00173    CDp =  0.11642

 Side 1  free  transition at x/c =  0.0087   12
 Side 2 forced transition at x/c =  1.0000   75

   7   rms: 0.1628E+01   max: 0.1362E+02   C at   75  2   RLX: 0.101
       a =  9.500      CL =  3.3355
      Cm = -0.7282     CD =  0.14166   =>   CDf =  0.00190    CDp =  0.13976

 Side 1  free  transition at x/c =  0.0061   11
 Side 2 forced transition at x/c =  1.0000   75
 idif Ue xi dudx           1  0.26536864      9.72437859E-03   27.289007    
 Uenew xinew           2  4.69748117E-03  1.72138214E-04

   8   rms: 0.1738E+01   max: 0.1993E+02   C at   75  2   RLX: 0.058
       a =  9.500      CL =  3.1790
      Cm = -0.6863     CD =  0.19819   =>   CDf =  0.00237    CDp =  0.19582

 Side 1  free  transition at x/c =  0.0061   10
 Side 2 forced transition at x/c =  1.0000   76

   9   rms: 0.2212E+01   max: -.2513E+02   T at    2  2   RLX: 0.020
       a =  9.500      CL =  3.1763
      Cm = -0.6841     CD =  0.27054   =>   CDf =  0.00225    CDp =  0.26829

 Side 1  free  transition at x/c =  0.0060   10
 Side 2 forced transition at x/c =  1.0000   76

  10   rms: 0.1652E+01   max: 0.1913E+02   C at   76  2   RLX: 0.046
       a =  9.500      CL =  3.0925
      Cm = -0.6590     CD =  0.22814   =>   CDf =  0.00230    CDp =  0.22584

 Side 1  free  transition at x/c =  0.0058   10
 Side 2 forced transition at x/c =  1.0000   76

  11   rms: 0.1545E+01   max: 0.1675E+02   C at   76  2   RLX: 0.047
       a =  9.500      CL =  3.0052
      Cm = -0.6338     CD =  0.23213   =>   CDf =  0.00241    CDp =  0.22972

 Side 1  free  transition at x/c =  0.0055   10
 Side 2 forced transition at x/c =  1.0000   76

  12   rms: 0.1493E+01   max: 0.1688E+02   C at   76  2   RLX: 0.046
       a =  9.500      CL =  2.9257
      Cm = -0.6115     CD =  0.22914   =>   CDf =  0.00251    CDp =  0.22663

 MRCHDU: Convergence failed at  98  side 2    Res =  0.1936E+00
 Side 1  free  transition at x/c =  0.0052   10
 Side 2 forced transition at x/c =  1.0000   76

  13   rms: 0.1762E+01   max: 0.8393E+01   C at   76  2   RLX: 0.123
       a =  9.500      CL =  2.4257
      Cm = -0.4977     CD =  0.43885   =>   CDf =  0.00259    CDp =  0.43626

 Side 1  free  transition at x/c =  0.0043   10
 Side 2 forced transition at x/c =  1.0000   76

  14   rms: 0.1421E+01   max: 0.8941E+01   C at   76  2   RLX: 0.142
       a =  9.500      CL =  2.0236
      Cm = -0.4043     CD =  0.91941   =>   CDf =  0.00256    CDp =  0.91685

 MRCHDU: Convergence failed at  85  side 1    Res =  0.7274E-02
 MRCHDU: Convergence failed at  86  side 1    Res =  0.3680E+00
 Side 1  free  transition at x/c =  0.0049   10
 Side 2 forced transition at x/c =  1.0000   76

  15   rms: 0.7368E+01   max: 0.4418E+02   C at   76  2   RLX: 0.034
       a =  9.500      CL =  2.1584
      Cm = -0.4298     CD =  1.65872   =>   CDf =  0.00255    CDp =  1.65617

 MRCHDU: Convergence failed at  83  side 1    Res =  0.9450E-02
 MRCHDU: Convergence failed at  84  side 1    Res =  0.1425E-01
 MRCHDU: Convergence failed at  85  side 1    Res =  0.1499E-01
 Side 1  free  transition at x/c =  0.0044   10
 Side 2 forced transition at x/c =  1.0000   76

  16   rms: 0.2009E+01   max: 0.2630E+02   C at   76  2   RLX: 0.057
       a =  9.500      CL =  2.0949
      Cm = -0.4136     CD =  0.88438   =>   CDf =  0.00261    CDp =  0.88178

 MRCHDU: Convergence failed at  82  side 1    Res =  0.1969E-01
 MRCHDU: Convergence failed at  83  side 1    Res =  0.3834E-01
 MRCHDU: Convergence failed at  84  side 1    Res =  0.1791E-01
 MRCHDU: Convergence failed at  85  side 1    Res =  0.2904E-01
 Side 1  free  transition at x/c =  0.0045   10
 Side 2 forced transition at x/c =  1.0000   76

  17   rms: 0.7079E+01   max: 0.5907E+02   C at   76  2   RLX: 0.025
       a =  9.500      CL =  2.1174
      Cm = -0.4138     CD =  0.89506   =>   CDf =  0.00263    CDp =  0.89243

 MRCHDU: Convergence failed at  81  side 1    Res =  0.1994E-01
 MRCHDU: Convergence failed at  82  side 1    Res =  0.5931E-01
 MRCHDU: Convergence failed at  83  side 1    Res =  0.4438E-01
 MRCHDU: Convergence failed at  84  side 1    Res =  0.2924E-01
 MRCHDU: Convergence failed at  97  side 2    Res =  0.1660E+01
 MRCHDU: Convergence failed at  98  side 2    Res =  0.1853E+01
 Side 1  free  transition at x/c =  0.0043   10
 Side 2 forced transition at x/c =  1.0000   76

  18   rms: 0.2721E+01   max: 0.4077E+02   C at   76  2   RLX: 0.037
       a =  9.500      CL =  2.1622
      Cm = -0.4199     CD =  0.52586   =>   CDf =  0.00265    CDp =  0.52321

 MRCHDU: Convergence failed at  81  side 1    Res =  0.3983E-01
 MRCHDU: Convergence failed at  82  side 1    Res =  0.6307E-01
 MRCHDU: Convergence failed at  83  side 1    Res =  0.4647E-01
 MRCHDU: Convergence failed at  84  side 1    Res =  0.3811E-01
 Side 1  free  transition at x/c =  0.0043   10
 Side 2 forced transition at x/c =  1.0000   76

  19   rms: 0.2840E+01   max: 0.3953E+02   C at   76  2   RLX: 0.038
       a =  9.500      CL =  2.1952
      Cm = -0.4227     CD =  0.56052   =>   CDf =  0.00271    CDp =  0.55781

 MRCHDU: Convergence failed at  81  side 1    Res =  0.1716E-01
 MRCHDU: Convergence failed at  93  side 2    Res =  0.1153E+01
 MRCHDU: Convergence failed at  94  side 2    Res =  0.1532E+02
 MRCHDU: Convergence failed at  95  side 2    Res =  0.9085E+01
 MRCHDU: Convergence failed at  96  side 2    Res =  0.9893E+01
 MRCHDU: Convergence failed at  97  side 2    Res =  0.3017E+02
 MRCHDU: Convergence failed at  98  side 2    Res =  0.4390E+01
 Side 1  free  transition at x/c =  0.0044   10
 Side 2 forced transition at x/c =  1.0000   76

  20   rms: 0.2683E+01   max: 0.1474E+02   C at   83  1   RLX: 0.041
       a =  9.500      CL =  2.0300
      Cm = -0.3861     CD =  0.25235   =>   CDf =  0.00275    CDp =  0.24960

 MRCHDU: Convergence failed at  10  side 1    Res =  0.1849E+01
 MRCHDU: Convergence failed at  83  side 1    Res =  0.1035E+00
 MRCHDU: Convergence failed at  84  side 1    Res =  0.4374E-01
 MRCHDU: Convergence failed at  96  side 2    Res =  0.1482E+02
 MRCHDU: Convergence failed at  97  side 2    Res =  0.5596E+01
 MRCHDU: Convergence failed at  98  side 2    Res =  0.3638E+01
 Side 1  free  transition at x/c =  0.0041   10
 Side 2 forced transition at x/c =  1.0000   76

  21   rms: 0.1021E+02   max: -.6187E+02   T at   91  2   RLX: 0.008
       a =  9.500      CL =  2.8571
      Cm = -0.5948     CD =  0.28287   =>   CDf =  0.00275    CDp =  0.28012

 MRCHDU: Convergence failed at  95  side 2    Res =  0.9031E+00
 MRCHDU: Convergence failed at  96  side 2    Res =  0.1041E+01
 MRCHDU: Convergence failed at  97  side 2    Res =  0.1405E+01
 Side 1  free  transition at x/c =  0.0043   10
 Side 2 forced transition at x/c =  1.0000   76

  22   rms: 0.2377E+02   max: 0.1245E+03   C at   84  1   RLX: 0.006
       a =  9.500      CL =  2.2511
      Cm = -0.4465     CD =  0.20264   =>   CDf =  0.00278    CDp =  0.19986

 MRCHDU: Convergence failed at  79  side 1    Res =  0.7404E-01
 MRCHDU: Convergence failed at  98  side 2    Res =  0.2486E+01
 Side 1  free  transition at x/c =  0.0044   10
 Side 2 forced transition at x/c =  1.0000   76

  23   rms: 0.5545E+01   max: 0.4519E+02   D at   98  2   RLX: 0.021
       a =  9.500      CL =  2.1318
      Cm = -0.4269     CD =  0.17627   =>   CDf =  0.00270    CDp =  0.17357

 MRCHDU: Convergence failed at  79  side 1    Res =  0.1520E-01
 MRCHDU: Convergence failed at  82  side 1    Res =  0.3818E-01
 MRCHDU: Convergence failed at  83  side 1    Res =  0.7491E-01
 MRCHDU: Convergence failed at  84  side 1    Res =  0.5070E+00
 MRCHDU: Convergence failed at  98  side 2    Res =  0.1705E+01
 Side 1  free  transition at x/c =  0.0048   10
 Side 2 forced transition at x/c =  1.0000   76

  24   rms: 0.1421E+02   max: 0.8353E+02   C at   84  1   RLX: 0.018
       a =  9.500      CL =  2.1407
      Cm = -0.4256     CD =  0.56453   =>   CDf =  0.00257    CDp =  0.56196

 Side 1  free  transition at x/c =  0.0045   10
 Side 2 forced transition at x/c =  1.0000   76

  25   rms: 0.1750E+01   max: 0.2831E+02   C at   76  2   RLX: 0.053
       a =  9.500      CL =  2.0716
      Cm = -0.4050     CD =  0.17115   =>   CDf =  0.00260    CDp =  0.16854

 MRCHDU: Convergence failed at  92  side 2    Res =  0.5977E+01
 MRCHDU: Convergence failed at  93  side 2    Res =  0.7226E+01
 MRCHDU: Convergence failed at  94  side 2    Res =  0.6727E+01
 MRCHDU: Convergence failed at  95  side 2    Res =  0.2838E+01
 MRCHDU: Convergence failed at  96  side 2    Res =  0.1564E+01
 MRCHDU: Convergence failed at  97  side 2    Res =  0.1597E+01
 MRCHDU: Convergence failed at  98  side 2    Res =  0.2151E+01
 Side 1  free  transition at x/c =  0.0045   10
 Side 2 forced transition at x/c =  1.0000   76

  26   rms: 0.2469E+03   max: 0.1376E+04   C at   84  1   RLX: 0.001
       a =  9.500      CL =  2.0653
      Cm = -0.4025     CD =  0.19290   =>   CDf =  0.00267    CDp =  0.19023

 MRCHDU: Convergence failed at  78  side 1    Res =  0.1849E-01
 Side 1  free  transition at x/c =  0.0045   10
 Side 2 forced transition at x/c =  1.0000   76

  27   rms: 0.2130E+01   max: 0.4049E+02   C at   76  2   RLX: 0.037
       a =  9.500      CL =  2.0383
      Cm = -0.3923     CD =  0.21075   =>   CDf =  0.00267    CDp =  0.20808

 Side 1  free  transition at x/c =  0.0045   10
 Side 2 forced transition at x/c =  1.0000   76

  28   rms: 0.3401E+01   max: 0.5036E+02   C at   76  2   RLX: 0.030
       a =  9.500      CL =  2.0521
      Cm = -0.3903     CD =  0.30169   =>   CDf =  0.00273    CDp =  0.29896

 Side 1  free  transition at x/c =  0.0044   10
[...]
 MRCHDU: Convergence failed at  49  side 1    Res =  0.1139E+00
 MRCHDU: Convergence failed at  50  side 1    Res =  0.1125E+00
 MRCHDU: Convergence failed at  51  side 1    Res =  0.1111E+00
 MRCHDU: Convergence failed at  52  side 1    Res =  0.1097E+00
 Side 1  free  transition at x/c =  0.0076   11
 Side 2 forced transition at x/c =  1.0000   76

  88   rms: 0.3608E+03   max: -.1360E+04   C at   35  1   RLX: 0.000
       a = 10.750      CL =  1.5581
      Cm = -0.3390     CD =  0.03641   =>   CDf =  0.00184    CDp =  0.03458

 MRCHDU: Convergence failed at  22  side 1    Res =  0.1733E+00
 MRCHDU: Convergence failed at  23  side 1    Res =  0.1657E+00
 MRCHDU: Convergence failed at  24  side 1    Res =  0.1593E+00
 MRCHDU: Convergence failed at  25  side 1    Res =  0.1537E+00
 MRCHDU: Convergence failed at  26  side 1    Res =  0.1486E+00
 MRCHDU: Convergence failed at  27  side 1    Res =  0.1437E+00
 MRCHDU: Convergence failed at  28  side 1    Res =  0.1391E+00
 MRCHDU: Convergence failed at  29  side 1    Res =  0.1350E+00
 MRCHDU: Convergence failed at  30  side 1    Res =  0.1312E+00
 MRCHDU: Convergence failed at  31  side 1    Res =  0.1273E+00
 MRCHDU: Convergence failed at  32  side 1    Res =  0.1237E+00
 MRCHDU: Convergence failed at  33  side 1    Res =  0.1201E+00
 MRCHDU: Convergence failed at  34  side 1    Res =  0.2278E-01
 MRCHDU: Convergence failed at  35  side 1    Res =  0.3786E-01
 MRCHDU: Convergence failed at  36  side 1    Res =  0.1275E+00
 MRCHDU: Convergence failed at  37  side 1    Res =  0.1253E+00
 MRCHDU: Convergence failed at  38  side 1    Res =  0.1231E+00
 MRCHDU: Convergence failed at  39  side 1    Res =  0.1210E+00
 MRCHDU: Convergence failed at  40  side 1    Res =  0.1189E+00
 MRCHDU: Convergence failed at  41  side 1    Res =  0.1169E+00
 MRCHDU: Convergence failed at  42  side 1    Res =  0.8842E-01
 MRCHDU: Convergence failed at  43  side 1    Res =  0.8464E-01
 MRCHDU: Convergence failed at  44  side 1    Res =  0.8958E-01
 MRCHDU: Convergence failed at  45  side 1    Res =  0.9736E-01
 MRCHDU: Convergence failed at  46  side 1    Res =  0.1170E+00
 MRCHDU: Convergence failed at  47  side 1    Res =  0.1154E+00
 MRCHDU: Convergence failed at  48  side 1    Res =  0.1138E+00
 MRCHDU: Convergence failed at  49  side 1    Res =  0.1123E+00
 MRCHDU: Convergence failed at  50  side 1    Res =  0.1109E+00
 MRCHDU: Convergence failed at  51  side 1    Res =  0.1095E+00
 MRCHDU: Convergence failed at  52  side 1    Res =  0.1082E+00
 Side 1  free  transition at x/c =  0.0075   11
 Side 2 forced transition at x/c =  1.0000   76

  89   rms: 0.4927E+03   max: 0.1869E+04   C at   35  1   RLX: 0.001
       a = 10.750      CL =  1.5562
      Cm = -0.3388     CD =  0.03712   =>   CDf =  0.00184    CDp =  0.03529

 MRCHDU: Convergence failed at  22  side 1    Res =  0.8753E-01
 MRCHDU: Convergence failed at  23  side 1    Res =  0.1902E+00
 MRCHDU: Convergence failed at  24  side 1    Res =  0.1841E+00
 MRCHDU: Convergence failed at  25  side 1    Res =  0.1787E+00
 MRCHDU: Convergence failed at  26  side 1    Res =  0.1737E+00
 MRCHDU: Convergence failed at  27  side 1    Res =  0.1690E+00
 MRCHDU: Convergence failed at  28  side 1    Res =  0.1645E+00
 MRCHDU: Convergence failed at  29  side 1    Res =  0.1604E+00
 MRCHDU: Convergence failed at  30  side 1    Res =  0.1566E+00
 MRCHDU: Convergence failed at  31  side 1    Res =  0.1528E+00
 MRCHDU: Convergence failed at  32  side 1    Res =  0.1491E+00
 MRCHDU: Convergence failed at  33  side 1    Res =  0.1455E+00
 MRCHDU: Convergence failed at  34  side 1    Res =  0.4816E-01
 MRCHDU: Convergence failed at  35  side 1    Res =  0.3828E-01
 MRCHDU: Convergence failed at  36  side 1    Res =  0.1311E+00
 MRCHDU: Convergence failed at  37  side 1    Res =  0.1288E+00
 MRCHDU: Convergence failed at  38  side 1    Res =  0.1266E+00
 MRCHDU: Convergence failed at  39  side 1    Res =  0.1244E+00
 MRCHDU: Convergence failed at  40  side 1    Res =  0.1222E+00
 MRCHDU: Convergence failed at  41  side 1    Res =  0.1201E+00
 MRCHDU: Convergence failed at  42  side 1    Res =  0.9066E-01
 MRCHDU: Convergence failed at  43  side 1    Res =  0.8666E-01
 MRCHDU: Convergence failed at  44  side 1    Res =  0.9167E-01
 MRCHDU: Convergence failed at  45  side 1    Res =  0.9969E-01
 MRCHDU: Convergence failed at  46  side 1    Res =  0.1199E+00
 MRCHDU: Convergence failed at  47  side 1    Res =  0.1182E+00
 MRCHDU: Convergence failed at  48  side 1    Res =  0.1165E+00
 MRCHDU: Convergence failed at  49  side 1    Res =  0.1150E+00
 MRCHDU: Convergence failed at  50  side 1    Res =  0.1135E+00
 MRCHDU: Convergence failed at  51  side 1    Res =  0.1121E+00
 MRCHDU: Convergence failed at  52  side 1    Res =  0.1107E+00
 Side 1  free  transition at x/c =  0.0077   11
 Side 2 forced transition at x/c =  1.0000   76

  90   rms: 0.1377E+03   max: 0.5170E+03   C at   33  1   RLX: 0.001
       a = 10.750      CL =  1.5645
      Cm = -0.3399     CD =  0.03359   =>   CDf =  0.00183    CDp =  0.03176

 MRCHDU: Convergence failed at  22  side 1    Res =  0.4646E-01
 MRCHDU: Convergence failed at  23  side 1    Res =  0.1880E+00
 MRCHDU: Convergence failed at  24  side 1    Res =  0.1818E+00
 MRCHDU: Convergence failed at  25  side 1    Res =  0.1764E+00
 MRCHDU: Convergence failed at  26  side 1    Res =  0.1715E+00
 MRCHDU: Convergence failed at  27  side 1    Res =  0.1667E+00
 MRCHDU: Convergence failed at  28  side 1    Res =  0.1622E+00
 MRCHDU: Convergence failed at  29  side 1    Res =  0.1582E+00
 MRCHDU: Convergence failed at  30  side 1    Res =  0.1544E+00
 MRCHDU: Convergence failed at  31  side 1    Res =  0.1506E+00
 MRCHDU: Convergence failed at  32  side 1    Res =  0.1469E+00
 MRCHDU: Convergence failed at  33  side 1    Res =  0.1434E+00
 MRCHDU: Convergence failed at  34  side 1    Res =  0.4865E-01
 MRCHDU: Convergence failed at  35  side 1    Res =  0.3831E-01
 MRCHDU: Convergence failed at  36  side 1    Res =  0.1317E+00
 MRCHDU: Convergence failed at  37  side 1    Res =  0.1294E+00
 MRCHDU: Convergence failed at  38  side 1    Res =  0.1272E+00
 MRCHDU: Convergence failed at  39  side 1    Res =  0.1250E+00
 MRCHDU: Convergence failed at  40  side 1    Res =  0.1228E+00
 MRCHDU: Convergence failed at  41  side 1    Res =  0.1208E+00
 MRCHDU: Convergence failed at  42  side 1    Res =  0.9105E-01
 MRCHDU: Convergence failed at  43  side 1    Res =  0.8698E-01
 MRCHDU: Convergence failed at  44  side 1    Res =  0.9202E-01
 MRCHDU: Convergence failed at  45  side 1    Res =  0.1001E+00
 MRCHDU: Convergence failed at  46  side 1    Res =  0.9868E-01
 MRCHDU: Convergence failed at  47  side 1    Res =  0.1187E+00
 MRCHDU: Convergence failed at  48  side 1    Res =  0.1171E+00
 MRCHDU: Convergence failed at  49  side 1    Res =  0.1155E+00
 MRCHDU: Convergence failed at  50  side 1    Res =  0.1141E+00
 MRCHDU: Convergence failed at  51  side 1    Res =  0.1127E+00
 MRCHDU: Convergence failed at  52  side 1    Res =  0.1113E+00
 Side 1  free  transition at x/c =  0.0080   11
 Side 2 forced transition at x/c =  1.0000   76

  91   rms: 0.2285E+02   max: -.9855E+02   C at   36  1   RLX: 0.005
       a = 10.750      CL =  1.5574
      Cm = -0.3380     CD =  0.03422   =>   CDf =  0.00186    CDp =  0.03237

 MRCHDU: Convergence failed at  22  side 1    Res =  0.7699E-01
 MRCHDU: Convergence failed at  23  side 1    Res =  0.1896E+00
 MRCHDU: Convergence failed at  24  side 1    Res =  0.1831E+00
 MRCHDU: Convergence failed at  25  side 1    Res =  0.1775E+00
 MRCHDU: Convergence failed at  26  side 1    Res =  0.1724E+00
 MRCHDU: Convergence failed at  27  side 1    Res =  0.1674E+00
 MRCHDU: Convergence failed at  28  side 1    Res =  0.1628E+00
 MRCHDU: Convergence failed at  29  side 1    Res =  0.1586E+00
 MRCHDU: Convergence failed at  30  side 1    Res =  0.1548E+00
 MRCHDU: Convergence failed at  31  side 1    Res =  0.1509E+00
 MRCHDU: Convergence failed at  32  side 1    Res =  0.1471E+00
 MRCHDU: Convergence failed at  33  side 1    Res =  0.1435E+00
 MRCHDU: Convergence failed at  34  side 1    Res =  0.4846E-01
 MRCHDU: Convergence failed at  35  side 1    Res =  0.3842E-01
 MRCHDU: Convergence failed at  36  side 1    Res =  0.1319E+00
 MRCHDU: Convergence failed at  37  side 1    Res =  0.1295E+00
 MRCHDU: Convergence failed at  38  side 1    Res =  0.1273E+00
 MRCHDU: Convergence failed at  39  side 1    Res =  0.1250E+00
 MRCHDU: Convergence failed at  40  side 1    Res =  0.1228E+00
 MRCHDU: Convergence failed at  41  side 1    Res =  0.1208E+00
 MRCHDU: Convergence failed at  42  side 1    Res =  0.9093E-01
 MRCHDU: Convergence failed at  43  side 1    Res =  0.8690E-01
 MRCHDU: Convergence failed at  44  side 1    Res =  0.9196E-01
 MRCHDU: Convergence failed at  45  side 1    Res =  0.9162E-01
 MRCHDU: Convergence failed at  46  side 1    Res =  0.9965E-01
 MRCHDU: Convergence failed at  47  side 1    Res =  0.1197E+00
 MRCHDU: Convergence failed at  48  side 1    Res =  0.1180E+00
 MRCHDU: Convergence failed at  49  side 1    Res =  0.1165E+00
 MRCHDU: Convergence failed at  50  side 1    Res =  0.1150E+00
 MRCHDU: Convergence failed at  51  side 1    Res =  0.1135E+00
 MRCHDU: Convergence failed at  52  side 1    Res =  0.1121E+00
 Side 1  free  transition at x/c =  0.0078   11
 Side 2 forced transition at x/c =  1.0000   76

  92   rms: 0.5478E+02   max: -.2047E+03   C at   36  1   RLX: 0.002
       a = 10.750      CL =  1.5535
      Cm = -0.3369     CD =  0.03399   =>   CDf =  0.00186    CDp =  0.03213

 MRCHDU: Convergence failed at  22  side 1    Res =  0.1097E+00
 MRCHDU: Convergence failed at  23  side 1    Res =  0.1022E+00
 MRCHDU: Convergence failed at  24  side 1    Res =  0.9578E-01
 MRCHDU: Convergence failed at  25  side 1    Res =  0.1778E+00
 MRCHDU: Convergence failed at  26  side 1    Res =  0.1727E+00
 MRCHDU: Convergence failed at  27  side 1    Res =  0.1677E+00
 MRCHDU: Convergence failed at  28  side 1    Res =  0.1631E+00
 MRCHDU: Convergence failed at  29  side 1    Res =  0.1590E+00
 MRCHDU: Convergence failed at  30  side 1    Res =  0.1551E+00
 MRCHDU: Convergence failed at  31  side 1    Res =  0.1513E+00
 MRCHDU: Convergence failed at  32  side 1    Res =  0.1474E+00
 MRCHDU: Convergence failed at  33  side 1    Res =  0.1439E+00
 MRCHDU: Convergence failed at  34  side 1    Res =  0.4798E-01
 MRCHDU: Convergence failed at  35  side 1    Res =  0.3825E-01
 MRCHDU: Convergence failed at  36  side 1    Res =  0.1315E+00
 MRCHDU: Convergence failed at  37  side 1    Res =  0.1292E+00
 MRCHDU: Convergence failed at  38  side 1    Res =  0.1270E+00
 MRCHDU: Convergence failed at  39  side 1    Res =  0.1248E+00
 MRCHDU: Convergence failed at  40  side 1    Res =  0.1226E+00
 MRCHDU: Convergence failed at  41  side 1    Res =  0.1205E+00
 MRCHDU: Convergence failed at  42  side 1    Res =  0.9047E-01
 MRCHDU: Convergence failed at  43  side 1    Res =  0.8647E-01
 MRCHDU: Convergence failed at  44  side 1    Res =  0.9151E-01
 MRCHDU: Convergence failed at  45  side 1    Res =  0.9116E-01
 MRCHDU: Convergence failed at  46  side 1    Res =  0.9912E-01
 MRCHDU: Convergence failed at  47  side 1    Res =  0.1191E+00
 MRCHDU: Convergence failed at  48  side 1    Res =  0.1175E+00
 MRCHDU: Convergence failed at  49  side 1    Res =  0.1159E+00
 MRCHDU: Convergence failed at  50  side 1    Res =  0.1144E+00
 MRCHDU: Convergence failed at  51  side 1    Res =  0.1130E+00
 MRCHDU: Convergence failed at  52  side 1    Res =  0.1116E+00
 Side 1  free  transition at x/c =  0.0076   11
 Side 2 forced transition at x/c =  1.0000   76

  93   rms: 0.2716E+03   max: -.1042E+04   C at   35  1   RLX: 0.000
       a = 10.750      CL =  1.5521
      Cm = -0.3364     CD =  0.03416   =>   CDf =  0.00186    CDp =  0.03231

 MRCHDU: Convergence failed at  22  side 1    Res =  0.1376E+00
 MRCHDU: Convergence failed at  23  side 1    Res =  0.1301E+00
 MRCHDU: Convergence failed at  24  side 1    Res =  0.1237E+00
 MRCHDU: Convergence failed at  25  side 1    Res =  0.1182E+00
 MRCHDU: Convergence failed at  26  side 1    Res =  0.1132E+00
 MRCHDU: Convergence failed at  27  side 1    Res =  0.1084E+00
 MRCHDU: Convergence failed at  28  side 1    Res =  0.1038E+00
 MRCHDU: Convergence failed at  29  side 1    Res =  0.9976E-01
 MRCHDU: Convergence failed at  30  side 1    Res =  0.1548E+00
 MRCHDU: Convergence failed at  31  side 1    Res =  0.1509E+00
 MRCHDU: Convergence failed at  32  side 1    Res =  0.1472E+00
 MRCHDU: Convergence failed at  33  side 1    Res =  0.1436E+00
 MRCHDU: Convergence failed at  34  side 1    Res =  0.4748E-01
 MRCHDU: Convergence failed at  35  side 1    Res =  0.3811E-01
 MRCHDU: Convergence failed at  36  side 1    Res =  0.1305E+00
 MRCHDU: Convergence failed at  37  side 1    Res =  0.1282E+00
 MRCHDU: Convergence failed at  38  side 1    Res =  0.1260E+00
 MRCHDU: Convergence failed at  39  side 1    Res =  0.1238E+00
 MRCHDU: Convergence failed at  40  side 1    Res =  0.1217E+00
 MRCHDU: Convergence failed at  41  side 1    Res =  0.1197E+00
 MRCHDU: Convergence failed at  42  side 1    Res =  0.8978E-01
 MRCHDU: Convergence failed at  43  side 1    Res =  0.8585E-01
 MRCHDU: Convergence failed at  44  side 1    Res =  0.9085E-01
 MRCHDU: Convergence failed at  45  side 1    Res =  0.9052E-01
 MRCHDU: Convergence failed at  46  side 1    Res =  0.9840E-01
 MRCHDU: Convergence failed at  47  side 1    Res =  0.1182E+00
 MRCHDU: Convergence failed at  48  side 1    Res =  0.1166E+00
 MRCHDU: Convergence failed at  49  side 1    Res =  0.1151E+00
 MRCHDU: Convergence failed at  50  side 1    Res =  0.1136E+00
 MRCHDU: Convergence failed at  51  side 1    Res =  0.1122E+00
 MRCHDU: Convergence failed at  52  side 1    Res =  0.1109E+00
 Side 1  free  transition at x/c =  0.0075   11
 Side 2 forced transition at x/c =  1.0000   76

  94   rms: 0.4077E+03   max: 0.1533E+04   C at   35  1   RLX: 0.001
       a = 10.750      CL =  1.5505
      Cm = -0.3363     CD =  0.03446   =>   CDf =  0.00186    CDp =  0.03260

 MRCHDU: Convergence failed at  22  side 1    Res =  0.5120E-01
 MRCHDU: Convergence failed at  23  side 1    Res =  0.1872E+00
 MRCHDU: Convergence failed at  24  side 1    Res =  0.1812E+00
 MRCHDU: Convergence failed at  25  side 1    Res =  0.1759E+00
 MRCHDU: Convergence failed at  26  side 1    Res =  0.1710E+00
 MRCHDU: Convergence failed at  27  side 1    Res =  0.1663E+00
 MRCHDU: Convergence failed at  28  side 1    Res =  0.1619E+00
 MRCHDU: Convergence failed at  29  side 1    Res =  0.1573E+00
 MRCHDU: Convergence failed at  30  side 1    Res =  0.1536E+00
 MRCHDU: Convergence failed at  31  side 1    Res =  0.1499E+00
 MRCHDU: Convergence failed at  32  side 1    Res =  0.1462E+00
 MRCHDU: Convergence failed at  33  side 1    Res =  0.1428E+00
 MRCHDU: Convergence failed at  34  side 1    Res =  0.4831E-01
 MRCHDU: Convergence failed at  35  side 1    Res =  0.3797E-01
 MRCHDU: Convergence failed at  36  side 1    Res =  0.1321E+00
 MRCHDU: Convergence failed at  37  side 1    Res =  0.1298E+00
 MRCHDU: Convergence failed at  38  side 1    Res =  0.1275E+00
 MRCHDU: Convergence failed at  39  side 1    Res =  0.1253E+00
 MRCHDU: Convergence failed at  40  side 1    Res =  0.1231E+00
 MRCHDU: Convergence failed at  41  side 1    Res =  0.1211E+00
 MRCHDU: Convergence failed at  42  side 1    Res =  0.9065E-01
 MRCHDU: Convergence failed at  43  side 1    Res =  0.8656E-01
 MRCHDU: Convergence failed at  44  side 1    Res =  0.9159E-01
 MRCHDU: Convergence failed at  45  side 1    Res =  0.9123E-01
 MRCHDU: Convergence failed at  46  side 1    Res =  0.9922E-01
 MRCHDU: Convergence failed at  47  side 1    Res =  0.1192E+00
 MRCHDU: Convergence failed at  48  side 1    Res =  0.1176E+00
 MRCHDU: Convergence failed at  49  side 1    Res =  0.1160E+00
 MRCHDU: Convergence failed at  50  side 1    Res =  0.1145E+00
 MRCHDU: Convergence failed at  51  side 1    Res =  0.1131E+00
 MRCHDU: Convergence failed at  52  side 1    Res =  0.1117E+00
 Side 1  free  transition at x/c =  0.0078   11
 Side 2 forced transition at x/c =  1.0000   76

  95   rms: 0.8207E+02   max: -.6025E+03   C at   35  1   RLX: 0.001
       a = 10.750      CL =  1.5473
      Cm = -0.3354     CD =  0.03427   =>   CDf =  0.00186    CDp =  0.03242

 MRCHDU: Convergence failed at  22  side 1    Res =  0.6201E-01
 MRCHDU: Convergence failed at  23  side 1    Res =  0.1876E+00
 MRCHDU: Convergence failed at  24  side 1    Res =  0.1813E+00
 MRCHDU: Convergence failed at  25  side 1    Res =  0.1758E+00
 MRCHDU: Convergence failed at  26  side 1    Res =  0.1707E+00
 MRCHDU: Convergence failed at  27  side 1    Res =  0.1659E+00
 MRCHDU: Convergence failed at  28  side 1    Res =  0.1631E+00
 MRCHDU: Convergence failed at  29  side 1    Res =  0.1590E+00
 MRCHDU: Convergence failed at  30  side 1    Res =  0.1551E+00
 MRCHDU: Convergence failed at  31  side 1    Res =  0.1511E+00
 MRCHDU: Convergence failed at  32  side 1    Res =  0.1472E+00
 MRCHDU: Convergence failed at  33  side 1    Res =  0.1436E+00
 MRCHDU: Convergence failed at  34  side 1    Res =  0.4854E-01
 MRCHDU: Convergence failed at  35  side 1    Res =  0.3864E-01
 MRCHDU: Convergence failed at  36  side 1    Res =  0.1308E+00
 MRCHDU: Convergence failed at  37  side 1    Res =  0.1285E+00
 MRCHDU: Convergence failed at  38  side 1    Res =  0.1263E+00
 MRCHDU: Convergence failed at  39  side 1    Res =  0.1242E+00
 MRCHDU: Convergence failed at  40  side 1    Res =  0.1221E+00
 MRCHDU: Convergence failed at  41  side 1    Res =  0.1200E+00
 MRCHDU: Convergence failed at  42  side 1    Res =  0.9008E-01
 MRCHDU: Convergence failed at  43  side 1    Res =  0.8621E-01
 MRCHDU: Convergence failed at  44  side 1    Res =  0.9123E-01
 MRCHDU: Convergence failed at  45  side 1    Res =  0.9090E-01
 MRCHDU: Convergence failed at  46  side 1    Res =  0.9874E-01
 MRCHDU: Convergence failed at  47  side 1    Res =  0.1186E+00
 MRCHDU: Convergence failed at  48  side 1    Res =  0.1169E+00
 MRCHDU: Convergence failed at  49  side 1    Res =  0.1154E+00
 MRCHDU: Convergence failed at  50  side 1    Res =  0.1139E+00
 MRCHDU: Convergence failed at  51  side 1    Res =  0.1125E+00
 MRCHDU: Convergence failed at  52  side 1    Res =  0.1112E+00
 Side 1  free  transition at x/c =  0.0077   11
 Side 2 forced transition at x/c =  1.0000   76

  96   rms: 0.7733E+02   max: -.3000E+03   C at   35  1   RLX: 0.002
       a = 10.750      CL =  1.5453
      Cm = -0.3348     CD =  0.03418   =>   CDf =  0.00186    CDp =  0.03232

 MRCHDU: Convergence failed at  22  side 1    Res =  0.9139E-01
 MRCHDU: Convergence failed at  23  side 1    Res =  0.1891E+00
 MRCHDU: Convergence failed at  24  side 1    Res =  0.1827E+00
 MRCHDU: Convergence failed at  25  side 1    Res =  0.1771E+00
 MRCHDU: Convergence failed at  26  side 1    Res =  0.1719E+00
 MRCHDU: Convergence failed at  27  side 1    Res =  0.1671E+00
 MRCHDU: Convergence failed at  28  side 1    Res =  0.1625E+00
 MRCHDU: Convergence failed at  29  side 1    Res =  0.1583E+00
 MRCHDU: Convergence failed at  30  side 1    Res =  0.1545E+00
 MRCHDU: Convergence failed at  31  side 1    Res =  0.1506E+00
 MRCHDU: Convergence failed at  32  side 1    Res =  0.1468E+00
 MRCHDU: Convergence failed at  33  side 1    Res =  0.1433E+00
 MRCHDU: Convergence failed at  34  side 1    Res =  0.4823E-01
 MRCHDU: Convergence failed at  35  side 1    Res =  0.3869E-01
 MRCHDU: Convergence failed at  36  side 1    Res =  0.1306E+00
 MRCHDU: Convergence failed at  37  side 1    Res =  0.1283E+00
 MRCHDU: Convergence failed at  38  side 1    Res =  0.1261E+00
 MRCHDU: Convergence failed at  39  side 1    Res =  0.1239E+00
 MRCHDU: Convergence failed at  40  side 1    Res =  0.1217E+00
 MRCHDU: Convergence failed at  41  side 1    Res =  0.1197E+00

[TIMEOUT]
