
 ===================================================
  XFOIL Version 6.99
  Copyright (C) 2000   Mark Drela, Harold Youngren

  This software comes with ABSOLUTELY NO WARRANTY,
    subject to the GNU General Public License.

  Caveat computor
 ===================================================

 File  xfoil.def  not found

   QUIT    Exit program

  .OPER    Direct operating point(s)
  .MDES    Complex mapping design routine
  .QDES    Surface speed design routine
  .GDES    Geometry design routine

   SAVE f  Write airfoil to labeled coordinate file
   PSAV f  Write airfoil to plain coordinate file
   ISAV f  Write airfoil to ISES coordinate file
   MSAV f  Write airfoil to MSES coordinate file
   REVE    Reverse written-airfoil node ordering

   LOAD f  Read buffer airfoil from coordinate file
   NACA i  Set NACA 4,5-digit airfoil and buffer airfoil
   INTE    Set buffer airfoil by interpolating two airfoils
   NORM    Buffer airfoil normalization toggle
   XYCM rr Change CM reference location, currently  0.25000 0.00000

   BEND    Display structural properties of current airfoil

   PCOP    Set current-airfoil panel nodes directly from buffer airfoil points
   PANE    Set current-airfoil panel nodes ( 160 ) based on curvature
  .PPAR    Show/change paneling

  .PLOP    Plotting options

   WDEF f  Write  current-settings file
   RDEF f  Reread current-settings file
   NAME s  Specify new airfoil name
   NINC    Increment name version number

   Z       Zoom    | (available in all menus)
   U       Unzoom  | 

 XFOIL   c>  
 Labeled airfoil file.  Name:  HQ 2.5/10 AIRFOIL                               

 Number of input coordinate points:  77
 Counterclockwise ordering
 Max thickness =     0.099651  at x =   0.350
 Max camber    =     0.024692  at x =   0.500

  LE  x,y  =  -0.00005   0.00056  |   Chord =   1.00005
  TE  x,y  =   1.00000   0.00000  |

 Current airfoil nodes set from buffer airfoil nodes (  77 )

 WARNING: Poor input coordinate distribution
          Excessive panel angle   57.3  at i =  39
          Repaneling with PANE and/or PPAR suggested
           (doing GDES,CADD before repaneling _may_
            improve excessively coarse LE spacing

 XFOIL   c>  
 XFOIL   c>  
 Sharp trailing edge

 Paneling parameters used...
   Number of panel nodes       160
   Panel bunching parameter    1.000
   TE/LE panel density ratio   0.150
   Refined-area/LE panel density ratio    0.200
   Top    side refined area x/c limits  1.000 1.000
   Bottom side refined area x/c limits  1.000 1.000

 XFOIL   c>  
.OPERi   c>  
 Xtr/c     =  1.0000    top    side
 Xtr/c     =  1.0000    bottom side
 Ncrit     =    9.00   ( 0.070 % turb. level )
 Vacc      =  0.0100

 Klag  =  5.6000     Uxwt  =    1.00
 A     =  6.7000     B     =  0.7500       KCt = 0.01485
 CtiniK=  1.8000     CtiniX=  3.3000

..VPAR   c>  
..VPAR   c>  
.OPERi   c>  
 M  =    0.0000
 Re =    400000

.OPERv   c>  
.OPERv   c>  
.OPERv   c>  
 Polar  1 newly created for accumulation
 Airfoil archived with polar: HQ 2.5/10 AIRFOIL                               

Enter  polar save filename  OR  <return> for no file   s>  
 New polar save file available

Enter  polar dump filename  OR  <return> for no file   s>  
 Polar dump file will NOT be written

 Polar accumulation enabled

.OPERva   c>   Calculating unit vorticity distributions ...
 Calculating wake trajectory ...
 Calculating source influence matrix ...

 Solving BL system ...

 Initializing BL ...
    side            1  ...
 MRCHUE: Inverse mode at  56     Hk =   3.958
 MRCHUE: Inverse mode at  57     Hk =   4.424
 MRCHUE: Inverse mode at  58     Hk =   4.883
 MRCHUE: Inverse mode at  59     Hk =   5.335
 MRCHUE: Inverse mode at  60     Hk =   5.782
 MRCHUE: Inverse mode at  61     Hk =   6.224
 MRCHUE: Inverse mode at  62     Hk =   6.662
 MRCHUE: Inverse mode at  63     Hk =   7.098
 MRCHUE: Inverse mode at  64     Hk =   7.532
 MRCHUE: Inverse mode at  65     Hk =   7.964
 MRCHUE: Inverse mode at  66     Hk =   8.393
 MRCHUE: Inverse mode at  67     Hk =   8.818
 MRCHUE: Inverse mode at  68     Hk =   8.437
 MRCHUE: Inverse mode at  69     Hk =   6.600
 MRCHUE: Inverse mode at  70     Hk =   5.362
 MRCHUE: Inverse mode at  71     Hk =   4.426
 MRCHUE: Inverse mode at  72     Hk =   3.675
 MRCHUE: Inverse mode at  73     Hk =   3.047
    side            2  ...
 MRCHUE: Inverse mode at  10     Hk =   4.087
 MRCHUE: Inverse mode at  11     Hk =   5.437
 MRCHUE: Inverse mode at  12     Hk =   6.985
 MRCHUE: Inverse mode at  13     Hk =   8.829
 MRCHUE: Inverse mode at  14     Hk =   8.204
 MRCHUE: Inverse mode at  15     Hk =   2.500

 Side 1  free  transition at x/c =  0.8860   68
 Side 2  free  transition at x/c =  0.0281   14

   1   rms: 0.1581E+00   max: -.1098E+01   T at   68  1   RLX: 0.455
       a = -4.000      CL = -0.0948
      Cm = -0.0805     CD =  0.01220   =>   CDf =  0.00625    CDp =  0.00595

 MRCHDU: Convergence failed at  72  side 1    Res =  0.1830E+01
 MRCHDU: Convergence failed at  73  side 1    Res =  0.3780E+02
 Side 1  free  transition at x/c =  0.9092   70
 Side 2  free  transition at x/c =  0.0349   15

   2   rms: 0.8952E-01   max: 0.1257E+01   D at   15  2   RLX: 0.868
       a = -4.000      CL = -0.0761
      Cm = -0.0831     CD =  0.01043   =>   CDf =  0.00630    CDp =  0.00413

 MRCHDU: Convergence failed at  17  side 2    Res =  0.6061E+01
 MRCHDU: Convergence failed at  18  side 2    Res =  0.9021E+02
 MRCHDU: Convergence failed at  19  side 2    Res =  0.4480E+01
 MRCHDU: Convergence failed at  20  side 2    Res =  0.3489E+01
 MRCHDU: Convergence failed at  21  side 2    Res =  0.3695E+01
 MRCHDU: Convergence failed at  22  side 2    Res =  0.4328E+01
 MRCHDU: Convergence failed at  23  side 2    Res =  0.5141E+01
 MRCHDU: Convergence failed at  24  side 2    Res =  0.6393E+01
 MRCHDU: Convergence failed at  25  side 2    Res =  0.7483E+01
 MRCHDU: Convergence failed at  26  side 2    Res =  0.9442E+01
 MRCHDU: Convergence failed at  27  side 2    Res =  0.1235E+02
 MRCHDU: Convergence failed at  28  side 2    Res =  0.1665E+02
 MRCHDU: Convergence failed at  29  side 2    Res =  0.2224E+02
 MRCHDU: Convergence failed at  30  side 2    Res =  0.3534E+02
 MRCHDU: Convergence failed at  31  side 2    Res =  0.5157E+02
 MRCHDU: Convergence failed at  32  side 2    Res =  0.9170E+02
 MRCHDU: Convergence failed at  33  side 2    Res =  0.1288E+04
 MRCHDU: Convergence failed at  34  side 2    Res =  0.1863E+03
 MRCHDU: Convergence failed at  35  side 2    Res =  0.9659E+02
 MRCHDU: Convergence failed at  36  side 2    Res =  0.5459E+02
 MRCHDU: Convergence failed at  37  side 2    Res =  0.4243E+02
 MRCHDU: Convergence failed at  38  side 2    Res =  0.2807E+02
 MRCHDU: Convergence failed at  39  side 2    Res =  0.2402E+02
 MRCHDU: Convergence failed at  40  side 2    Res =  0.1984E+02
 MRCHDU: Convergence failed at  41  side 2    Res =  0.1784E+02
 MRCHDU: Convergence failed at  42  side 2    Res =  0.1577E+02
 MRCHDU: Convergence failed at  43  side 2    Res =  0.1440E+02
 MRCHDU: Convergence failed at  44  side 2    Res =  0.1321E+02
 MRCHDU: Convergence failed at  45  side 2    Res =  0.1236E+02
 MRCHDU: Convergence failed at  46  side 2    Res =  0.1173E+02
 MRCHDU: Convergence failed at  47  side 2    Res =  0.1117E+02
 MRCHDU: Convergence failed at  48  side 2    Res =  0.8250E+01
 MRCHDU: Convergence failed at  49  side 2    Res =  0.8623E+01
 MRCHDU: Convergence failed at  50  side 2    Res =  0.9142E+01
 MRCHDU: Convergence failed at  51  side 2    Res =  0.9677E+01
 MRCHDU: Convergence failed at  52  side 2    Res =  0.1027E+02
 MRCHDU: Convergence failed at  53  side 2    Res =  0.1086E+02
 MRCHDU: Convergence failed at  54  side 2    Res =  0.1159E+02
 MRCHDU: Convergence failed at  55  side 2    Res =  0.1231E+02
 MRCHDU: Convergence failed at  56  side 2    Res =  0.1325E+02
 MRCHDU: Convergence failed at  57  side 2    Res =  0.1408E+02
 MRCHDU: Convergence failed at  58  side 2    Res =  0.1523E+02
 MRCHDU: Convergence failed at  59  side 2    Res =  0.1643E+02
 MRCHDU: Convergence failed at  60  side 2    Res =  0.1783E+02
 MRCHDU: Convergence failed at  61  side 2    Res =  0.1740E+02
 MRCHDU: Convergence failed at  62  side 2    Res =  0.1835E+02
 MRCHDU: Convergence failed at  63  side 2    Res =  0.2282E+02
 MRCHDU: Convergence failed at  64  side 2    Res =  0.2527E+02
 MRCHDU: Convergence failed at  65  side 2    Res =  0.2747E+02
 MRCHDU: Convergence failed at  66  side 2    Res =  0.3042E+02
 MRCHDU: Convergence failed at  67  side 2    Res =  0.3406E+02
 MRCHDU: Convergence failed at  68  side 2    Res =  0.2645E+02
 MRCHDU: Convergence failed at  69  side 2    Res =  0.2809E+02
 MRCHDU: Convergence failed at  70  side 2    Res =  0.2965E+02
 MRCHDU: Convergence failed at  71  side 2    Res =  0.4220E+02
 MRCHDU: Convergence failed at  72  side 2    Res =  0.3281E+02
 MRCHDU: Convergence failed at  73  side 2    Res =  0.3432E+02
 MRCHDU: Convergence failed at  74  side 2    Res =  0.5336E+02
 MRCHDU: Convergence failed at  75  side 2    Res =  0.4893E+02
 MRCHDU: Convergence failed at  76  side 2    Res =  0.4917E+02
 MRCHDU: Convergence failed at  77  side 2    Res =  0.4681E+02
 MRCHDU: Convergence failed at  78  side 2    Res =  0.3923E+02
 MRCHDU: Convergence failed at  79  side 2    Res =  0.3661E+02
 MRCHDU: Convergence failed at  80  side 2    Res =  0.3985E+02
 MRCHDU: Convergence failed at  81  side 2    Res =  0.4150E+02
 MRCHDU: Convergence failed at  82  side 2    Res =  0.4269E+02
 MRCHDU: Convergence failed at  83  side 2    Res =  0.4542E+02
 MRCHDU: Convergence failed at  84  side 2    Res =  0.5616E+02
 MRCHDU: Convergence failed at  85  side 2    Res =  0.1654E+03
 Side 1  free  transition at x/c =  0.9157   70
 Side 2  free  transition at x/c =  0.0625   17

   3   rms: 0.5917E+00   max: 0.5825E+00   D at   88  2   RLX: 0.711
       a = -4.000      CL = -0.2762
      Cm = -0.0119     CD =  0.00594   =>   CDf =  0.00209    CDp =  0.00385

 Side 1  free  transition at x/c =  0.9301   71
 Side 2  free  transition at x/c =  0.0576   17

   4   rms: 0.1794E+00   max: 0.2695E+00   T at   86  2
       a = -4.000      CL = -0.0733
      Cm = -0.0828     CD =  0.01000   =>   CDf =  0.00735    CDp =  0.00264

 MRCHDU: Convergence failed at  17  side 2    Res =  0.8082E+01
 MRCHDU: Convergence failed at  18  side 2    Res =  0.3492E+01
 MRCHDU: Convergence failed at  19  side 2    Res =  0.8607E+01
 MRCHDU: Convergence failed at  20  side 2    Res =  0.2916E+02
 MRCHDU: Convergence failed at  21  side 2    Res =  0.9013E+01
 MRCHDU: Convergence failed at  22  side 2    Res =  0.9083E+01
 MRCHDU: Convergence failed at  23  side 2    Res =  0.1324E+02
 MRCHDU: Convergence failed at  24  side 2    Res =  0.1611E+02
 MRCHDU: Convergence failed at  25  side 2    Res =  0.3251E+02
 MRCHDU: Convergence failed at  26  side 2    Res =  0.7686E+02
 MRCHDU: Convergence failed at  27  side 2    Res =  0.1115E+04
 MRCHDU: Convergence failed at  28  side 2    Res =  0.9190E+02
 MRCHDU: Convergence failed at  29  side 2    Res =  0.4693E+02
 MRCHDU: Convergence failed at  30  side 2    Res =  0.3343E+02
 MRCHDU: Convergence failed at  31  side 2    Res =  0.2120E+02
 MRCHDU: Convergence failed at  32  side 2    Res =  0.1224E+02
 MRCHDU: Convergence failed at  33  side 2    Res =  0.1129E+02
 MRCHDU: Convergence failed at  34  side 2    Res =  0.1059E+02
 MRCHDU: Convergence failed at  35  side 2    Res =  0.9991E+01
 MRCHDU: Convergence failed at  36  side 2    Res =  0.9451E+01
 MRCHDU: Convergence failed at  37  side 2    Res =  0.9003E+01
 MRCHDU: Convergence failed at  38  side 2    Res =  0.7683E+01
 MRCHDU: Convergence failed at  39  side 2    Res =  0.7454E+01
 MRCHDU: Convergence failed at  40  side 2    Res =  0.5622E+01
 MRCHDU: Convergence failed at  41  side 2    Res =  0.5511E+01
 MRCHDU: Convergence failed at  42  side 2    Res =  0.5395E+01
 MRCHDU: Convergence failed at  43  side 2    Res =  0.3816E+02
 MRCHDU: Convergence failed at  44  side 2    Res =  0.4638E+02
 MRCHDU: Convergence failed at  45  side 2    Res =  0.5514E+02
 MRCHDU: Convergence failed at  46  side 2    Res =  0.7481E+02
 MRCHDU: Convergence failed at  47  side 2    Res =  0.9827E+02
 MRCHDU: Convergence failed at  48  side 2    Res =  0.2250E+03
 MRCHDU: Convergence failed at  49  side 2    Res =  0.1101E+02
 MRCHDU: Convergence failed at  50  side 2    Res =  0.1088E+02
 MRCHDU: Convergence failed at  51  side 2    Res =  0.1138E+02
 MRCHDU: Convergence failed at  52  side 2    Res =  0.1144E+02
 MRCHDU: Convergence failed at  53  side 2    Res =  0.1133E+02
 MRCHDU: Convergence failed at  54  side 2    Res =  0.1193E+02
 MRCHDU: Convergence failed at  55  side 2    Res =  0.1350E+02
 MRCHDU: Convergence failed at  56  side 2    Res =  0.1432E+02
 MRCHDU: Convergence failed at  57  side 2    Res =  0.1819E+02
 MRCHDU: Convergence failed at  58  side 2    Res =  0.1915E+02
 MRCHDU: Convergence failed at  59  side 2    Res =  0.2125E+02
 MRCHDU: Convergence failed at  60  side 2    Res =  0.2238E+02
 MRCHDU: Convergence failed at  61  side 2    Res =  0.2360E+02
 MRCHDU: Convergence failed at  62  side 2    Res =  0.2491E+02
 MRCHDU: Convergence failed at  63  side 2    Res =  0.2630E+02
 MRCHDU: Convergence failed at  64  side 2    Res =  0.2781E+02
 MRCHDU: Convergence failed at  65  side 2    Res =  0.2941E+02
 MRCHDU: Convergence failed at  66  side 2    Res =  0.3145E+02
 MRCHDU: Convergence failed at  67  side 2    Res =  0.3463E+02
 MRCHDU: Convergence failed at  68  side 2    Res =  0.3186E+02
 MRCHDU: Convergence failed at  69  side 2    Res =  0.3377E+02
 MRCHDU: Convergence failed at  70  side 2    Res =  0.3557E+02
 MRCHDU: Convergence failed at  71  side 2    Res =  0.3740E+02
 MRCHDU: Convergence failed at  72  side 2    Res =  0.3932E+02
 MRCHDU: Convergence failed at  73  side 2    Res =  0.4110E+02
 MRCHDU: Convergence failed at  74  side 2    Res =  0.1644E+02
 MRCHDU: Convergence failed at  75  side 2    Res =  0.1576E+02
 MRCHDU: Convergence failed at  76  side 2    Res =  0.1551E+02
 MRCHDU: Convergence failed at  77  side 2    Res =  0.1507E+02
 MRCHDU: Convergence failed at  78  side 2    Res =  0.1855E+02
 MRCHDU: Convergence failed at  79  side 2    Res =  0.2012E+02
 MRCHDU: Convergence failed at  80  side 2    Res =  0.2026E+02
 MRCHDU: Convergence failed at  81  side 2    Res =  0.2074E+02
 MRCHDU: Convergence failed at  82  side 2    Res =  0.2249E+02
 MRCHDU: Convergence failed at  83  side 2    Res =  0.3026E+02
 MRCHDU: Convergence failed at  84  side 2    Res =  0.2153E+02
 MRCHDU: Convergence failed at  85  side 2    Res =  0.1788E+02
 Side 1  free  transition at x/c =  0.9222   71
 Side 2  free  transition at x/c =  0.0520   16

   5   rms: 0.6605E+00   max: 0.1907E+01   D at   87  2   RLX: 0.684
       a = -4.000      CL = -0.2568
      Cm = -0.0033     CD =  0.00662   =>   CDf =  0.00224    CDp =  0.00438

 MRCHDU: Convergence failed at  16  side 2    Res =  0.7085E+01
 MRCHDU: Convergence failed at  86  side 2    Res =  0.5461E+01
 MRCHDU: Convergence failed at  87  side 2    Res =  0.3819E+01
 MRCHDU: Convergence failed at  88  side 2    Res =  0.8143E+01
 MRCHDU: Convergence failed at  89  side 2    Res =  0.5741E+01
 Side 1  free  transition at x/c =  0.9408   73
 Side 2  free  transition at x/c =  0.0604   16

   6   rms: 0.3490E+00   max: -.1839E+01   D at   44  2   RLX: 0.272
       a = -4.000      CL = -0.0764
      Cm = -0.0761     CD =  0.02018   =>   CDf =  0.00437    CDp =  0.01582

 Side 1  free  transition at x/c =  0.9392   73
 Side 2  free  transition at x/c =  0.0628   16

   7   rms: 0.4109E+00   max: -.1877E+01   D at   44  2   RLX: 0.266
       a = -4.000      CL = -0.0497
      Cm = -0.0871     CD =  0.01810   =>   CDf =  0.00461    CDp =  0.01350

 Side 1  free  transition at x/c =  0.9358   73
 Side 2  free  transition at x/c =  0.0615   16

   8   rms: 0.4927E+00   max: -.2956E+01   D at   38  2   RLX: 0.169
       a = -4.000      CL = -0.0569
      Cm = -0.0874     CD =  0.01705   =>   CDf =  0.00473    CDp =  0.01231

 MRCHDU: Convergence failed at  35  side 2    Res =  0.5889E+00
 Side 1  free  transition at x/c =  0.9325   73
 Side 2  free  transition at x/c =  0.0593   16

   9   rms: 0.5502E+00   max: -.2390E+01   D at   78  2   RLX: 0.209
       a = -4.000      CL = -0.0339
      Cm = -0.0981     CD =  0.01439   =>   CDf =  0.00503    CDp =  0.00936

 Side 1  free  transition at x/c =  0.9333   73
 Side 2  free  transition at x/c =  0.0619   16

  10   rms: 0.1115E+01   max: -.4681E+01   D at   78  2   RLX: 0.107
       a = -4.000      CL =  0.0094
      Cm = -0.1109     CD =  0.01163   =>   CDf =  0.00521    CDp =  0.00642

 MRCHDU: Convergence failed at  78  side 2    Res =  0.1127E+00
 MRCHDU: Convergence failed at  79  side 2    Res =  0.4928E+00
 MRCHDU: Convergence failed at  80  side 2    Res =  0.1197E+00
 MRCHDU: Convergence failed at  81  side 2    Res =  0.1083E+00
 MRCHDU: Convergence failed at  82  side 2    Res =  0.9685E-01
 MRCHDU: Convergence failed at  83  side 2    Res =  0.1944E+01
 MRCHDU: Convergence failed at  84  side 2    Res =  0.1299E+01
 Side 1  free  transition at x/c =  0.9378   73
 Side 2  free  transition at x/c =  0.0670   16

  11   rms: 0.7661E+00   max: -.3754E+01   D at   82  2   RLX: 0.133
       a = -4.000      CL =  0.0433
      Cm = -0.1276     CD =  0.00911   =>   CDf =  0.00547    CDp =  0.00363

 MRCHDU: Convergence failed at  46  side 2    Res =  0.4859E+00
 MRCHDU: Convergence failed at  82  side 2    Res =  0.2762E+00
 MRCHDU: Convergence failed at  83  side 2    Res =  0.2224E+00
 MRCHDU: Convergence failed at  84  side 2    Res =  0.2096E+00
 Side 1  free  transition at x/c =  0.9395   73
 Side 2  free  transition at x/c =  0.0699   17

  12   rms: 0.5417E+00   max: 0.2306E+01   T at   17  2   RLX: 0.303
       a = -4.000      CL = -0.0439
      Cm = -0.1092     CD =  0.01571   =>   CDf =  0.00584    CDp =  0.00986

 Side 1  free  transition at x/c =  0.9133   71
 Side 2  free  transition at x/c =  0.0543   16
 idif Ue xi dudx           1  0.26374170      4.44161892E-03   59.379635    
 Uenew xinew           2  4.13744412E-02  6.96778297E-04

  13   rms: 0.3675E+00   max: -.1918E+01   D at   17  2   RLX: 0.261
       a = -4.000      CL = -0.0847
      Cm = -0.0941     CD =  0.01654   =>   CDf =  0.00576    CDp =  0.01077

 Side 1  free  transition at x/c =  0.9060   70
 Side 2  free  transition at x/c =  0.0528   16

  14   rms: 0.2803E+00   max: -.1142E+01   D at   81  2   RLX: 0.438
       a = -4.000      CL = -0.1087
      Cm = -0.0847     CD =  0.01247   =>   CDf =  0.00594    CDp =  0.00653

 Side 1  free  transition at x/c =  0.9057   70
 Side 2  free  transition at x/c =  0.0483   16

  15   rms: 0.1506E+00   max: -.9274E+00   D at   17  2   RLX: 0.539
       a = -4.000      CL = -0.1002
      Cm = -0.0818     CD =  0.01156   =>   CDf =  0.00601    CDp =  0.00555

 Side 1  free  transition at x/c =  0.9095   70
 Side 2  free  transition at x/c =  0.0496   16

  16   rms: 0.6596E-01   max: -.3938E+00   D at   17  2
       a = -4.000      CL = -0.0774
      Cm = -0.0819     CD =  0.01068   =>   CDf =  0.00614    CDp =  0.00454

 Side 1  free  transition at x/c =  0.9179   71
 Side 2  free  transition at x/c =  0.0508   16

  17   rms: 0.1028E-01   max: -.8724E-01   C at   71  1
       a = -4.000      CL = -0.0751
      Cm = -0.0822     CD =  0.01067   =>   CDf =  0.00627    CDp =  0.00440

 Side 1  free  transition at x/c =  0.9197   71
 Side 2  free  transition at x/c =  0.0507   16

  18   rms: 0.1144E-02   max: -.1167E-01   D at   73  1
       a = -4.000      CL = -0.0756
      Cm = -0.0821     CD =  0.01068   =>   CDf =  0.00626    CDp =  0.00442

 Side 1  free  transition at x/c =  0.9194   71
 Side 2  free  transition at x/c =  0.0506   16

  19   rms: 0.1396E-04   max: -.2001E-03   D at   71  1
       a = -4.000      CL = -0.0756
      Cm = -0.0821     CD =  0.01068   =>   CDf =  0.00627    CDp =  0.00442
 plradd ia,ip,cpol            1           0  7.66043027E-04

 Point added to stored polar  1
 Point written to save file  hq2510_Re400k.base.pol                          
 Dump file unspecified or not available
 Calculating wake trajectory ...
 Calculating source influence matrix ...

 Solving BL system ...

 Side 1  free  transition at x/c =  0.9194   71
 Side 2  free  transition at x/c =  0.0506   16

   1   rms: 0.1094E+00   max: -.1047E+01   T at   16  2   RLX: 0.477
       a = -3.500      CL = -0.0479
      Cm = -0.0822     CD =  0.01060   =>   CDf =  0.00641    CDp =  0.00420

 Side 1  free  transition at x/c =  0.9150   71
 Side 2  free  transition at x/c =  0.0603   16

   2   rms: 0.5426E-01   max: 0.4560E+00   D at   16  2
       a = -3.500      CL = -0.0250
      Cm = -0.0812     CD =  0.01014   =>   CDf =  0.00633    CDp =  0.00381

 Side 1  free  transition at x/c =  0.9022   70
 Side 2  free  transition at x/c =  0.0687   17

   3   rms: 0.2322E-01   max: -.1647E+00   D at   71  1
       a = -3.500      CL = -0.0208
      Cm = -0.0818     CD =  0.01005   =>   CDf =  0.00640    CDp =  0.00365

 Side 1  free  transition at x/c =  0.9086   71
 Side 2  free  transition at x/c =  0.0715   17

   4   rms: 0.1021E-01   max: 0.1221E+00   D at   71  1
       a = -3.500      CL = -0.0216
      Cm = -0.0817     CD =  0.01010   =>   CDf =  0.00634    CDp =  0.00375

 Side 1  free  transition at x/c =  0.9063   71
 Side 2  free  transition at x/c =  0.0706   17

   5   rms: 0.1579E-02   max: -.1374E-01   D at   74  1
       a = -3.500      CL = -0.0220
      Cm = -0.0816     CD =  0.01011   =>   CDf =  0.00636    CDp =  0.00375

 Side 1  free  transition at x/c =  0.9059   71
 Side 2  free  transition at x/c =  0.0704   17

   6   rms: 0.3491E-04   max: -.3630E-03   D at   74  1
       a = -3.500      CL = -0.0220
      Cm = -0.0816     CD =  0.01011   =>   CDf =  0.00636    CDp =  0.00375
 plradd ia,ip,cpol            2           0  7.66043027E-04

 Point added to stored polar  1
 Point written to save file  hq2510_Re400k.base.pol                          
 Dump file unspecified or not available
 Calculating wake trajectory ...
 Calculating source influence matrix ...

 Solving BL system ...

 Side 1  free  transition at x/c =  0.9059   71
 Side 2  free  transition at x/c =  0.0704   17

   1   rms: 0.1521E+00   max: 0.1014E+01   D at   17  2   RLX: 0.499
       a = -3.000      CL =  0.0044
      Cm = -0.0815     CD =  0.00955   =>   CDf =  0.00637    CDp =  0.00318

 Side 1  free  transition at x/c =  0.9007   70
 Side 2  free  transition at x/c =  0.0836   18

   2   rms: 0.1649E+00   max: -.9492E+00   T at   18  2   RLX: 0.527
       a = -3.000      CL =  0.0159
      Cm = -0.0810     CD =  0.00927   =>   CDf =  0.00637    CDp =  0.00290

 Side 1  free  transition at x/c =  0.8939   70
 Side 2  free  transition at x/c =  0.1039   19

   3   rms: 0.6053E-01   max: -.8576E+00   C at   19  2   RLX: 0.583
       a = -3.000      CL =  0.0233
      Cm = -0.0810     CD =  0.00942   =>   CDf =  0.00631    CDp =  0.00311

 Side 1  free  transition at x/c =  0.8926   70
 Side 2  free  transition at x/c =  0.1116   20

   4   rms: 0.5825E-01   max: -.5807E+00   C at   20  2   RLX: 0.861
       a = -3.000      CL =  0.0290
      Cm = -0.0810     CD =  0.00919   =>   CDf =  0.00630    CDp =  0.00289

 Side 1  free  transition at x/c =  0.8919   70
 Side 2  free  transition at x/c =  0.1353   21

   5   rms: 0.1969E-01   max: -.3577E+00   C at   21  2
       a = -3.000      CL =  0.0302
      Cm = -0.0810     CD =  0.00924   =>   CDf =  0.00620    CDp =  0.00304

 Side 1  free  transition at x/c =  0.8918   70
 Side 2  free  transition at x/c =  0.1571   23

   6   rms: 0.7663E-02   max: 0.1444E+00   C at   23  2
       a = -3.000      CL =  0.0299
      Cm = -0.0810     CD =  0.00915   =>   CDf =  0.00608    CDp =  0.00308

 Side 1  free  transition at x/c =  0.8918   70
 Side 2  free  transition at x/c =  0.1512   23

   7   rms: 0.4514E-03   max: -.8342E-02   C at   23  2
       a = -3.000      CL =  0.0299
      Cm = -0.0810     CD =  0.00916   =>   CDf =  0.00610    CDp =  0.00306

 Side 1  free  transition at x/c =  0.8918   70
 Side 2  free  transition at x/c =  0.1514   23

   8   rms: 0.3260E-05   max: -.4774E-04   C at   23  2
       a = -3.000      CL =  0.0299
      Cm = -0.0810     CD =  0.00916   =>   CDf =  0.00609    CDp =  0.00306
 plradd ia,ip,cpol            3           0  7.66043027E-04

 Point added to stored polar  1
 Point written to save file  hq2510_Re400k.base.pol                          
 Dump file unspecified or not available
 Calculating wake trajectory ...
 Calculating source influence matrix ...

 Solving BL system ...

 Side 1  free  transition at x/c =  0.8918   70
 Side 2  free  transition at x/c =  0.1514   23

   1   rms: 0.6177E+00   max: -.1220E+02   C at   23  2   RLX: 0.041
       a = -2.500      CL =  0.0318
      Cm = -0.0810     CD =  0.00906   =>   CDf =  0.00610    CDp =  0.00297

 Side 1  free  transition at x/c =  0.8913   70
 Side 2  free  transition at x/c =  0.1634   23

   2   rms: 0.5494E+00   max: -.1168E+02   C at   23  2   RLX: 0.043
       a = -2.500      CL =  0.0343
      Cm = -0.0810     CD =  0.00903   =>   CDf =  0.00606    CDp =  0.00297

 Side 1  free  transition at x/c =  0.8909   70
 Side 2  free  transition at x/c =  0.1789   25

   3   rms: 0.5817E+00   max: -.1140E+02   C at   25  2   RLX: 0.044
       a = -2.500      CL =  0.0363
      Cm = -0.0810     CD =  0.00891   =>   CDf =  0.00600    CDp =  0.00291

 Side 1  free  transition at x/c =  0.8904   70
 Side 2  free  transition at x/c =  0.1912   25

   4   rms: 0.5943E+00   max: -.1237E+02   C at   25  2   RLX: 0.040
       a = -2.500      CL =  0.0384
      Cm = -0.0810     CD =  0.00888   =>   CDf =  0.00596    CDp =  0.00292

 Side 1  free  transition at x/c =  0.8900   70
 Side 2  free  transition at x/c =  0.2034   26

   5   rms: 0.5843E+00   max: -.1208E+02   C at   26  2   RLX: 0.041
       a = -2.500      CL =  0.0402
      Cm = -0.0810     CD =  0.00881   =>   CDf =  0.00591    CDp =  0.00290

 Side 1  free  transition at x/c =  0.8897   69
 Side 2  free  transition at x/c =  0.2159   27

   6   rms: 0.5534E+00   max: -.1135E+02   C at   27  2   RLX: 0.044
       a = -2.500      CL =  0.0419
      Cm = -0.0810     CD =  0.00874   =>   CDf =  0.00587    CDp =  0.00287

 Side 1  free  transition at x/c =  0.8890   69
 Side 2  free  transition at x/c =  0.2284   28

   7   rms: 0.5293E+00   max: -.1078E+02   C at   28  2   RLX: 0.046
       a = -2.500      CL =  0.0435
      Cm = -0.0809     CD =  0.00867   =>   CDf =  0.00582    CDp =  0.00285

 Side 1  free  transition at x/c =  0.8883   69
 Side 2  free  transition at x/c =  0.2420   29

   8   rms: 0.5105E+00   max: -.1029E+02   C at   29  2   RLX: 0.049
       a = -2.500      CL =  0.0452
      Cm = -0.0809     CD =  0.00860   =>   CDf =  0.00577    CDp =  0.00283

 Side 1  free  transition at x/c =  0.8876   69
 Side 2  free  transition at x/c =  0.2571   30

   9   rms: 0.5193E+00   max: -.1035E+02   C at   30  2   RLX: 0.048
       a = -2.500      CL =  0.0467
      Cm = -0.0809     CD =  0.00853   =>   CDf =  0.00572    CDp =  0.00281

 Side 1  free  transition at x/c =  0.8870   69
 Side 2  free  transition at x/c =  0.2728   31

  10   rms: 0.5316E+00   max: -.1046E+02   C at   31  2   RLX: 0.048
       a = -2.500      CL =  0.0481
      Cm = -0.0809     CD =  0.00846   =>   CDf =  0.00566    CDp =  0.00279

 Side 1  free  transition at x/c =  0.8864   69
 Side 2  free  transition at x/c =  0.2892   32

  11   rms: 0.5327E+00   max: -.1030E+02   C at   32  2   RLX: 0.049
       a = -2.500      CL =  0.0494
      Cm = -0.0808     CD =  0.00838   =>   CDf =  0.00561    CDp =  0.00278

 Side 1  free  transition at x/c =  0.8859   69
 Side 2  free  transition at x/c =  0.3073   34

  12   rms: 0.5760E+00   max: -.1127E+02   C at   34  2   RLX: 0.044
       a = -2.500      CL =  0.0503
      Cm = -0.0808     CD =  0.00828   =>   CDf =  0.00554    CDp =  0.00275

 Side 1  free  transition at x/c =  0.8854   69
 Side 2  free  transition at x/c =  0.3219   35

  13   rms: 0.5805E+00   max: -.1126E+02   C at   35  2   RLX: 0.044
       a = -2.500      CL =  0.0515
      Cm = -0.0808     CD =  0.00822   =>   CDf =  0.00548    CDp =  0.00274

 Side 1  free  transition at x/c =  0.8850   69
 Side 2  free  transition at x/c =  0.3373   36

  14   rms: 0.5707E+00   max: -.1095E+02   C at   36  2   RLX: 0.046
       a = -2.500      CL =  0.0526
      Cm = -0.0808     CD =  0.00815   =>   CDf =  0.00543    CDp =  0.00273

 Side 1  free  transition at x/c =  0.8845   69
 Side 2  free  transition at x/c =  0.3537   37

  15   rms: 0.5202E+00   max: -.9845E+01   C at   37  2   RLX: 0.051
       a = -2.500      CL =  0.0537
      Cm = -0.0808     CD =  0.00809   =>   CDf =  0.00537    CDp =  0.00272

 Side 1  free  transition at x/c =  0.8841   69
 Side 2  free  transition at x/c =  0.3715   38

  16   rms: 0.4072E+00   max: -.7585E+01   C at   38  2   RLX: 0.066
       a = -2.500      CL =  0.0551
      Cm = -0.0807     CD =  0.00803   =>   CDf =  0.00531    CDp =  0.00271

 Side 1  free  transition at x/c =  0.8835   69
 Side 2  free  transition at x/c =  0.3950   40

  17   rms: 0.3193E+00   max: -.5966E+01   C at   40  2   RLX: 0.084
       a = -2.500      CL =  0.0565
      Cm = -0.0806     CD =  0.00793   =>   CDf =  0.00523    CDp =  0.00270

 Side 1  free  transition at x/c =  0.8829   69
 Side 2  free  transition at x/c =  0.4158   42

  18   rms: 0.2610E+00   max: -.4829E+01   C at   42  2   RLX: 0.104
       a = -2.500      CL =  0.0584
      Cm = -0.0806     CD =  0.00785   =>   CDf =  0.00517    CDp =  0.00267

 Side 1  free  transition at x/c =  0.8822   69
 Side 2  free  transition at x/c =  0.4293   43

  19   rms: 0.1955E+00   max: -.3536E+01   C at   43  2   RLX: 0.141
       a = -2.500      CL =  0.0613
      Cm = -0.0806     CD =  0.00779   =>   CDf =  0.00514    CDp =  0.00265

 Side 1  free  transition at x/c =  0.8814   69
 Side 2  free  transition at x/c =  0.4431   44

  20   rms: 0.1552E+00   max: -.2779E+01   C at   44  2   RLX: 0.180
       a = -2.500      CL =  0.0644
      Cm = -0.0807     CD =  0.00774   =>   CDf =  0.00510    CDp =  0.00264

 Side 1  free  transition at x/c =  0.8805   69
 Side 2  free  transition at x/c =  0.4571   45

  21   rms: 0.1266E+00   max: -.2254E+01   C at   45  2   RLX: 0.222
       a = -2.500      CL =  0.0674
      Cm = -0.0806     CD =  0.00769   =>   CDf =  0.00520    CDp =  0.00249

 Side 1  free  transition at x/c =  0.8797   70
 Side 2  free  transition at x/c =  0.4711   45

  22   rms: 0.1405E+00   max: -.1756E+01   C at   45  2   RLX: 0.285
       a = -2.500      CL =  0.0703
      Cm = -0.0806     CD =  0.00764   =>   CDf =  0.00503    CDp =  0.00261

 Side 1  free  transition at x/c =  0.8789   70
 Side 2  free  transition at x/c =  0.4852   46

  23   rms: 0.7160E-01   max: -.1256E+01   C at   46  2   RLX: 0.398
       a = -2.500      CL =  0.0732
      Cm = -0.0805     CD =  0.00759   =>   CDf =  0.00499    CDp =  0.00260

 Side 1  free  transition at x/c =  0.8782   70
 Side 2  free  transition at x/c =  0.4993   47

  24   rms: 0.4737E-01   max: -.8213E+00   C at   47  2   RLX: 0.609
       a = -2.500      CL =  0.0756
      Cm = -0.0804     CD =  0.00755   =>   CDf =  0.00496    CDp =  0.00259

 Side 1  free  transition at x/c =  0.8776   70
 Side 2  free  transition at x/c =  0.5134   48

  25   rms: 0.2746E-01   max: -.4741E+00   C at   48  2
       a = -2.500      CL =  0.0769
      Cm = -0.0802     CD =  0.00752   =>   CDf =  0.00493    CDp =  0.00259

 Side 1  free  transition at x/c =  0.8772   70
 Side 2  free  transition at x/c =  0.5270   49

  26   rms: 0.1020E-01   max: -.1758E+00   C at   49  2
       a = -2.500      CL =  0.0771
      Cm = -0.0802     CD =  0.00754   =>   CDf =  0.00489    CDp =  0.00265

 Side 1  free  transition at x/c =  0.8773   70
 Side 2  free  transition at x/c =  0.5311   49

  27   rms: 0.1520E-03   max: -.2038E-02   D at   52  2
       a = -2.500      CL =  0.0771
      Cm = -0.0802     CD =  0.00754   =>   CDf =  0.00485    CDp =  0.00269

 Side 1  free  transition at x/c =  0.8773   70
 Side 2  free  transition at x/c =  0.5311   49

  28   rms: 0.1264E-05   max: -.1167E-04   C at   49  2
       a = -2.500      CL =  0.0771
      Cm = -0.0802     CD =  0.00754   =>   CDf =  0.00485    CDp =  0.00269
 plradd ia,ip,cpol            4           0  2.09535426E-03

 Point added to stored polar  1
 Point written to save file  hq2510_Re400k.base.pol                          
 Dump file unspecified or not available
 Calculating wake trajectory ...
 Calculating source influence matrix ...

 Solving BL system ...

 Side 1  free  transition at x/c =  0.8773   70
 Side 2  free  transition at x/c =  0.5311   49

   1   rms: 0.2109E+00   max: -.3283E+01   C at   49  2   RLX: 0.152
       a = -2.000      CL =  0.0850
      Cm = -0.0801     CD =  0.00748   =>   CDf =  0.00486    CDp =  0.00262

 Side 1  free  transition at x/c =  0.8756   69
 Side 2  free  transition at x/c =  0.5501   50

   2   rms: 0.9740E-01   max: -.7405E+00   C at   50  2   RLX: 0.675
       a = -2.000      CL =  0.1148
      Cm = -0.0796     CD =  0.00747   =>   CDf =  0.00484    CDp =  0.00263

 MRCHDU: Convergence failed at  56  side 2    Res =  0.4134E+01
 Side 1  free  transition at x/c =  0.8628   69
 Side 2  free  transition at x/c =  0.6337   56

   3   rms: 0.3694E-01   max: 0.3652E+00   D at   51  2
       a = -2.000      CL =  0.1295
      Cm = -0.0791     CD =  0.00733   =>   CDf =  0.00470    CDp =  0.00262

 Side 1  free  transition at x/c =  0.8628   69
 Side 2  free  transition at x/c =  0.6363   56

   4   rms: 0.1107E-01   max: -.1003E+00   C at   57  2
       a = -2.000      CL =  0.1296
      Cm = -0.0791     CD =  0.00733   =>   CDf =  0.00473    CDp =  0.00260

 Side 1  free  transition at x/c =  0.8626   69
 Side 2  free  transition at x/c =  0.6241   55

   5   rms: 0.4078E-02   max: -.4433E-01   C at   55  2
       a = -2.000      CL =  0.1300
      Cm = -0.0792     CD =  0.00737   =>   CDf =  0.00478    CDp =  0.00260

 Side 1  free  transition at x/c =  0.8626   69
 Side 2  free  transition at x/c =  0.6259   56

   6   rms: 0.1073E-02   max: -.1550E-01   D at   55  2
       a = -2.000      CL =  0.1300
      Cm = -0.0792     CD =  0.00737   =>   CDf =  0.00476    CDp =  0.00261

 Side 1  free  transition at x/c =  0.8626   69
 Side 2  free  transition at x/c =  0.6257   56

   7   rms: 0.2836E-04   max: 0.4296E-03   C at   56  2
       a = -2.000      CL =  0.1300
      Cm = -0.0792     CD =  0.00737   =>   CDf =  0.00475    CDp =  0.00261
 plradd ia,ip,cpol            5           0  2.09535426E-03

 Point added to stored polar  1
 Point written to save file  hq2510_Re400k.base.pol                          
 Dump file unspecified or not available
 Calculating wake trajectory ...
 Calculating source influence matrix ...

 Solving BL system ...

 Side 1  free  transition at x/c =  0.8626   69
 Side 2  free  transition at x/c =  0.6257   56

   1   rms: 0.1133E+00   max: -.9064E+00   C at   56  2   RLX: 0.552
       a = -1.500      CL =  0.1598
      Cm = -0.0787     CD =  0.00730   =>   CDf =  0.00476    CDp =  0.00255

 Side 1  free  transition at x/c =  0.8564   68
 Side 2  free  transition at x/c =  0.6443   57

   2   rms: 0.4696E-01   max: -.3083E+00   T at   57  2
       a = -1.500      CL =  0.1836
      Cm = -0.0785     CD =  0.00739   =>   CDf =  0.00494    CDp =  0.00245

 Side 1  free  transition at x/c =  0.8449   68
 Side 2  free  transition at x/c =  0.6795   58

   3   rms: 0.2050E-01   max: -.2150E+00   D at    2  1
       a = -1.500      CL =  0.1834
      Cm = -0.0783     CD =  0.00731   =>   CDf =  0.00484    CDp =  0.00247

 Side 1  free  transition at x/c =  0.8476   68
 Side 2  free  transition at x/c =  0.6754   58

   4   rms: 0.1329E-02   max: 0.1263E-01   D at   61  2
       a = -1.500      CL =  0.1834
      Cm = -0.0783     CD =  0.00732   =>   CDf =  0.00478    CDp =  0.00254

 Side 1  free  transition at x/c =  0.8473   68
 Side 2  free  transition at x/c =  0.6759   58

   5   rms: 0.9085E-05   max: -.8657E-04   C at   58  2
       a = -1.500      CL =  0.1834
      Cm = -0.0783     CD =  0.00732   =>   CDf =  0.00478    CDp =  0.00254
 plradd ia,ip,cpol            6           0  1.91241372E-02

 Point added to stored polar  1
 Point written to save file  hq2510_Re400k.base.pol                          
 Dump file unspecified or not available
 Calculating wake trajectory ...
 Calculating source influence matrix ...

 Solving BL system ...

 Side 1  free  transition at x/c =  0.8473   68
 Side 2  free  transition at x/c =  0.6759   58

   1   rms: 0.9749E-01   max: 0.3976E+00   D at   59  2
       a = -1.000      CL =  0.2357
      Cm = -0.0774     CD =  0.00735   =>   CDf =  0.00478    CDp =  0.00257

 Side 1  free  transition at x/c =  0.8280   67
 Side 2  free  transition at x/c =  0.7191   61

   2   rms: 0.2315E-01   max: -.1897E+00   D at   68  1
       a = -1.000      CL =  0.2370
      Cm = -0.0774     CD =  0.00733   =>   CDf =  0.00490    CDp =  0.00243

 Side 1  free  transition at x/c =  0.8331   67
 Side 2  free  transition at x/c =  0.7284   62

   3   rms: 0.1110E-01   max: 0.1322E+00   C at   62  2
       a = -1.000      CL =  0.2364
      Cm = -0.0773     CD =  0.00732   =>   CDf =  0.00472    CDp =  0.00259

 Side 1  free  transition at x/c =  0.8323   67
 Side 2  free  transition at x/c =  0.7250   62

   4   rms: 0.1457E-02   max: -.1972E-01   D at   65  2
       a = -1.000      CL =  0.2364
      Cm = -0.0772     CD =  0.00732   =>   CDf =  0.00475    CDp =  0.00257

 Side 1  free  transition at x/c =  0.8323   67
 Side 2  free  transition at x/c =  0.7246   62

   5   rms: 0.2302E-04   max: -.3736E-03   D at   65  2
       a = -1.000      CL =  0.2364
      Cm = -0.0772     CD =  0.00732   =>   CDf =  0.00476    CDp =  0.00256
 plradd ia,ip,cpol            7           0  0.19870679    

 Point added to stored polar  1
 Point written to save file  hq2510_Re400k.base.pol                          
 Dump file unspecified or not available
 Calculating wake trajectory ...
 Calculating source influence matrix ...

 Solving BL system ...

 Side 1  free  transition at x/c =  0.8323   67
 Side 2  free  transition at x/c =  0.7246   62

   1   rms: 0.1224E+00   max: 0.7966E+00   D at   63  2   RLX: 0.773
       a = -0.500      CL =  0.2743
      Cm = -0.0757     CD =  0.00725   =>   CDf =  0.00483    CDp =  0.00242

 Side 1  free  transition at x/c =  0.8154   67
 Side 2  free  transition at x/c =  0.7407   62

   2   rms: 0.1317E+00   max: -.1330E+01   T at    2  1   RLX: 0.376
       a = -0.500      CL =  0.2815
      Cm = -0.0767     CD =  0.00784   =>   CDf =  0.00499    CDp =  0.00285

 Side 1  free  transition at x/c =  0.8155   67
 Side 2  free  transition at x/c =  0.7482   62

   3   rms: 0.6015E-01   max: -.4848E+00   D at   63  2
       a = -0.500      CL =  0.2903
      Cm = -0.0765     CD =  0.00742   =>   CDf =  0.00495    CDp =  0.00247

 MRCHDU: Convergence failed at  65  side 2    Res =  0.1522E+01
 MRCHDU: Convergence failed at  66  side 2    Res =  0.3496E+01
 MRCHDU: Convergence failed at  67  side 2    Res =  0.3466E+02
 MRCHDU: Convergence failed at  68  side 2    Res =  0.1165E+02
 MRCHDU: Convergence failed at  69  side 2    Res =  0.7563E+01
 MRCHDU: Convergence failed at  70  side 2    Res =  0.6388E+01
 MRCHDU: Convergence failed at  71  side 2    Res =  0.6163E+01
 MRCHDU: Convergence failed at  72  side 2    Res =  0.6577E+01
 MRCHDU: Convergence failed at  73  side 2    Res =  0.7709E+01
 MRCHDU: Convergence failed at  74  side 2    Res =  0.1097E+02
 MRCHDU: Convergence failed at  75  side 2    Res =  0.2137E+02
 MRCHDU: Convergence failed at  76  side 2    Res =  0.6023E+02
 MRCHDU: Convergence failed at  77  side 2    Res =  0.7850E+02
 MRCHDU: Convergence failed at  78  side 2    Res =  0.1851E+02
 MRCHDU: Convergence failed at  79  side 2    Res =  0.8755E+01
 MRCHDU: Convergence failed at  80  side 2    Res =  0.6582E+01
 MRCHDU: Convergence failed at  81  side 2    Res =  0.6013E+01
 Side 1  free  transition at x/c =  0.8151   67
 Side 2  free  transition at x/c =  0.7755   64

   4   rms: 0.1142E+00   max: -.5232E+00   D at   75  2   RLX: 0.956
       a = -0.500      CL =  0.2992
      Cm = -0.0776     CD =  0.00673   =>   CDf =  0.00405    CDp =  0.00268

 Side 1  free  transition at x/c =  0.8158   67
 Side 2  free  transition at x/c =  0.7585   63

   5   rms: 0.2267E-01   max: -.2059E+00   D at   64  2
       a = -0.500      CL =  0.2888
      Cm = -0.0760     CD =  0.00732   =>   CDf =  0.00484    CDp =  0.00249

 Side 1  free  transition at x/c =  0.8149   67
 Side 2  free  transition at x/c =  0.7663   64

   6   rms: 0.3230E-02   max: -.5155E-01   D at   63  2
       a = -0.500      CL =  0.2887
      Cm = -0.0760     CD =  0.00732   =>   CDf =  0.00476    CDp =  0.00256

 Side 1  free  transition at x/c =  0.8149   67
 Side 2  free  transition at x/c =  0.7651   64

   7   rms: 0.3970E-03   max: 0.4278E-02   D at   64  2
       a = -0.500      CL =  0.2886
      Cm = -0.0760     CD =  0.00732   =>   CDf =  0.00476    CDp =  0.00256

 Side 1  free  transition at x/c =  0.8149   67
 Side 2  free  transition at x/c =  0.7650   64

   8   rms: 0.2651E-05   max: -.4130E-04   D at   66  2
       a = -0.500      CL =  0.2886
      Cm = -0.0760     CD =  0.00732   =>   CDf =  0.00476    CDp =  0.00256
 plradd ia,ip,cpol            8           0  0.18510824    

 Point added to stored polar  1
 Point written to save file  hq2510_Re400k.base.pol                          
 Dump file unspecified or not available
 Calculating wake trajectory ...
 Calculating source influence matrix ...

 Solving BL system ...

 Side 1  free  transition at x/c =  0.8149   67
 Side 2  free  transition at x/c =  0.7650   64

   1   rms: 0.9209E-01   max: -.4518E+00   T at   64  2
       a =  0.000      CL =  0.3399
      Cm = -0.0745     CD =  0.00715   =>   CDf =  0.00476    CDp =  0.00239

 Side 1  free  transition at x/c =  0.7929   65
 Side 2  free  transition at x/c =  0.7786   65

   2   rms: 0.8695E-01   max: -.6356E+00   T at   65  2   RLX: 0.787
       a =  0.000      CL =  0.3418
      Cm = -0.0752     CD =  0.00718   =>   CDf =  0.00497    CDp =  0.00221

 Side 1  free  transition at x/c =  0.7968   66
 Side 2  free  transition at x/c =  0.7894   65

   3   rms: 0.3597E-01   max: -.3908E+00   D at   65  2
       a =  0.000      CL =  0.3424
      Cm = -0.0752     CD =  0.00730   =>   CDf =  0.00488    CDp =  0.00242

 Side 1  free  transition at x/c =  0.7956   66
 Side 2  free  transition at x/c =  0.7945   66

   4   rms: 0.9461E-02   max: 0.1149E+00   D at   66  2
       a =  0.000      CL =  0.3419
      Cm = -0.0750     CD =  0.00727   =>   CDf =  0.00478    CDp =  0.00249

 Side 1  free  transition at x/c =  0.7956   66
 Side 2  free  transition at x/c =  0.7914   65

   5   rms: 0.1288E-02   max: 0.1906E-01   D at   66  2
       a =  0.000      CL =  0.3417
      Cm = -0.0749     CD =  0.00727   =>   CDf =  0.00480    CDp =  0.00247

 Side 1  free  transition at x/c =  0.7956   66
 Side 2  free  transition at x/c =  0.7907   65

   6   rms: 0.3034E-04   max: -.4421E-03   D at   66  2
       a =  0.000      CL =  0.3417
      Cm = -0.0749     CD =  0.00727   =>   CDf =  0.00480    CDp =  0.00247
 plradd ia,ip,cpol            9           0  0.14458771    

 Point added to stored polar  1
 Point written to save file  hq2510_Re400k.base.pol                          
 Dump file unspecified or not available
 Calculating wake trajectory ...
 Calculating source influence matrix ...

 Solving BL system ...

 Side 1  free  transition at x/c =  0.7956   66
 Side 2  free  transition at x/c =  0.7907   65

   1   rms: 0.8758E-01   max: -.3347E+00   T at   65  2
       a =  0.500      CL =  0.3971
      Cm = -0.0746     CD =  0.00730   =>   CDf =  0.00481    CDp =  0.00249

 Side 1  free  transition at x/c =  0.7817   66
 Side 2  free  transition at x/c =  0.8140   66

   2   rms: 0.2221E-01   max: 0.1991E+00   D at   66  2
       a =  0.500      CL =  0.3956
      Cm = -0.0743     CD =  0.00720   =>   CDf =  0.00476    CDp =  0.00244

 Side 1  free  transition at x/c =  0.7778   65
 Side 2  free  transition at x/c =  0.8117   66

   3   rms: 0.4051E-02   max: 0.4173E-01   C at   66  2
       a =  0.500      CL =  0.3955
      Cm = -0.0742     CD =  0.00721   =>   CDf =  0.00483    CDp =  0.00239

 Side 1  free  transition at x/c =  0.7778   65
 Side 2  free  transition at x/c =  0.8106   66

   4   rms: 0.1244E-03   max: -.2003E-02   D at   69  2
       a =  0.500      CL =  0.3955
      Cm = -0.0742     CD =  0.00722   =>   CDf =  0.00483    CDp =  0.00239

 Side 1  free  transition at x/c =  0.7778   65
 Side 2  free  transition at x/c =  0.8106   66

   5   rms: 0.6238E-06   max: -.3621E-05   D at    4  1
       a =  0.500      CL =  0.3955
      Cm = -0.0742     CD =  0.00722   =>   CDf =  0.00483    CDp =  0.00239
 plradd ia,ip,cpol           10           0  0.13126731    

 Point added to stored polar  1
 Point written to save file  hq2510_Re400k.base.pol                          
 Dump file unspecified or not available
 Calculating wake trajectory ...
 Calculating source influence matrix ...

 Solving BL system ...

 Side 1  free  transition at x/c =  0.7778   65
 Side 2  free  transition at x/c =  0.8106   66

   1   rms: 0.8270E-01   max: -.3148E+00   T at   66  2
       a =  1.000      CL =  0.4480
      Cm = -0.0735     CD =  0.00713   =>   CDf =  0.00483    CDp =  0.00230

 Side 1  free  transition at x/c =  0.7538   64
 Side 2  free  transition at x/c =  0.8292   67

   2   rms: 0.2660E-01   max: -.2509E+00   D at   64  1
       a =  1.000      CL =  0.4492
      Cm = -0.0736     CD =  0.00714   =>   CDf =  0.00493    CDp =  0.00221

 Side 1  free  transition at x/c =  0.7605   64
 Side 2  free  transition at x/c =  0.8335   68

   3   rms: 0.4242E-02   max: 0.4382E-01   C at   64  1
       a =  1.000      CL =  0.4490
      Cm = -0.0736     CD =  0.00718   =>   CDf =  0.00481    CDp =  0.00237

 Side 1  free  transition at x/c =  0.7586   64
 Side 2  free  transition at x/c =  0.8334   67

   4   rms: 0.2160E-03   max: -.2369E-02   D at   64  1
       a =  1.000      CL =  0.4490
      Cm = -0.0736     CD =  0.00718   =>   CDf =  0.00482    CDp =  0.00235

 Side 1  free  transition at x/c =  0.7586   64
 Side 2  free  transition at x/c =  0.8334   67

   5   rms: 0.2233E-05   max: -.1945E-04   D at    6  2
       a =  1.000      CL =  0.4490
      Cm = -0.0736     CD =  0.00718   =>   CDf =  0.00482    CDp =  0.00235
 plradd ia,ip,cpol           11           0  0.11806891    

 Point added to stored polar  1
 Point written to save file  hq2510_Re400k.base.pol                          
 Dump file unspecified or not available
 Calculating wake trajectory ...
 Calculating source influence matrix ...

 Solving BL system ...

 Side 1  free  transition at x/c =  0.7586   64
 Side 2  free  transition at x/c =  0.8334   67

   1   rms: 0.8331E-01   max: -.2870E+00   T at   67  2
       a =  1.500      CL =  0.5036
      Cm = -0.0732     CD =  0.00720   =>   CDf =  0.00477    CDp =  0.00243

 Side 1  free  transition at x/c =  0.7351   63
 Side 2  free  transition at x/c =  0.8631   69

   2   rms: 0.2223E-01   max: -.3059E+00   D at   64  1
       a =  1.500      CL =  0.5018
      Cm = -0.0726     CD =  0.00713   =>   CDf =  0.00486    CDp =  0.00227

 Side 1  free  transition at x/c =  0.7383   64
 Side 2  free  transition at x/c =  0.8612   69

   3   rms: 0.4556E-02   max: 0.5881E-01   C at   69  2
       a =  1.500      CL =  0.5015
      Cm = -0.0726     CD =  0.00712   =>   CDf =  0.00482    CDp =  0.00230

 Side 1  free  transition at x/c =  0.7380   64
 Side 2  free  transition at x/c =  0.8600   68

   4   rms: 0.5800E-03   max: 0.6698E-02   D at   69  2
       a =  1.500      CL =  0.5014
      Cm = -0.0725     CD =  0.00712   =>   CDf =  0.00481    CDp =  0.00231

 Side 1  free  transition at x/c =  0.7380   64
 Side 2  free  transition at x/c =  0.8597   68

   5   rms: 0.8950E-05   max: -.1048E-03   D at   69  2
       a =  1.500      CL =  0.5014
      Cm = -0.0725     CD =  0.00712   =>   CDf =  0.00481    CDp =  0.00231
 plradd ia,ip,cpol           12           0  7.93510079E-02

 Point added to stored polar  1
 Point written to save file  hq2510_Re400k.base.pol                          
 Dump file unspecified or not available
 Calculating wake trajectory ...
 Calculating source influence matrix ...

 Solving BL system ...

 Side 1  free  transition at x/c =  0.7380   64
 Side 2  free  transition at x/c =  0.8597   68

   1   rms: 0.8810E-01   max: -.2548E+00   C at   68  2
       a =  2.000      CL =  0.5552
      Cm = -0.0718     CD =  0.00720   =>   CDf =  0.00481    CDp =  0.00239

 Side 1  free  transition at x/c =  0.7182   62
 Side 2  free  transition at x/c =  0.8913   71

   2   rms: 0.3320E-01   max: -.3801E+00   C at   71  2
       a =  2.000      CL =  0.5519
      Cm = -0.0711     CD =  0.00691   =>   CDf =  0.00474    CDp =  0.00217

 Side 1  free  transition at x/c =  0.7156   62
 Side 2  free  transition at x/c =  0.9005   71

   3   rms: 0.3026E-02   max: -.2762E-01   D at   71  2
       a =  2.000      CL =  0.5518
      Cm = -0.0711     CD =  0.00700   =>   CDf =  0.00468    CDp =  0.00232

 Side 1  free  transition at x/c =  0.7148   62
 Side 2  free  transition at x/c =  0.8993   71

   4   rms: 0.1538E-03   max: -.2458E-02   C at   71  2
       a =  2.000      CL =  0.5518
      Cm = -0.0711     CD =  0.00700   =>   CDf =  0.00469    CDp =  0.00231

 Side 1  free  transition at x/c =  0.7148   62
 Side 2  free  transition at x/c =  0.8994   71

   5   rms: 0.1310E-05   max: 0.1443E-04   C at   71  2
       a =  2.000      CL =  0.5518
      Cm = -0.0711     CD =  0.00700   =>   CDf =  0.00469    CDp =  0.00231
 plradd ia,ip,cpol           13           0  7.93510079E-02

 Point added to stored polar  1
 Point written to save file  hq2510_Re400k.base.pol                          
 Dump file unspecified or not available
 Calculating wake trajectory ...
 Calculating source influence matrix ...

 Solving BL system ...

 Side 1  free  transition at x/c =  0.7148   62
 Side 2  free  transition at x/c =  0.8994   71

   1   rms: 0.1051E+00   max: -.1231E+01   C at   71  2   RLX: 0.406
       a =  2.500      CL =  0.5723
      Cm = -0.0704     CD =  0.00695   =>   CDf =  0.00459    CDp =  0.00237

 Side 1  free  transition at x/c =  0.7055   62
 Side 2  free  transition at x/c =  0.9183   72

   2   rms: 0.1025E+00   max: -.1510E+01   C at   72  2   RLX: 0.331
       a =  2.500      CL =  0.5836
      Cm = -0.0706     CD =  0.00695   =>   CDf =  0.00468    CDp =  0.00226

 Side 1  free  transition at x/c =  0.6991   62
 Side 2  free  transition at x/c =  0.9295   72

   3   rms: 0.5569E-01   max: -.8068E+00   C at   72  2   RLX: 0.620
       a =  2.500      CL =  0.5972
      Cm = -0.0705     CD =  0.00697   =>   CDf =  0.00468    CDp =  0.00230

 Side 1  free  transition at x/c =  0.6933   61
 Side 2 forced transition at x/c =  1.0000   78

   4   rms: 0.2694E-01   max: 0.1875E+00   C at   78  2
       a =  2.500      CL =  0.6219
      Cm = -0.0740     CD =  0.00691   =>   CDf =  0.00462    CDp =  0.00229

 Side 1  free  transition at x/c =  0.6857   61
 Side 2 forced transition at x/c =  1.0000   78

   5   rms: 0.4223E-02   max: -.5035E-01   C at   61  1
       a =  2.500      CL =  0.6220
      Cm = -0.0740     CD =  0.00693   =>   CDf =  0.00465    CDp =  0.00228

 Side 1  free  transition at x/c =  0.6871   61
 Side 2 forced transition at x/c =  1.0000   78

   6   rms: 0.1335E-03   max: -.2110E-02   D at   63  1
       a =  2.500      CL =  0.6221
      Cm = -0.0740     CD =  0.00693   =>   CDf =  0.00462    CDp =  0.00231

 Side 1  free  transition at x/c =  0.6871   61
 Side 2 forced transition at x/c =  1.0000   78

   7   rms: 0.1233E-05   max: -.9429E-05   D at   63  1
       a =  2.500      CL =  0.6221
      Cm = -0.0740     CD =  0.00693   =>   CDf =  0.00462    CDp =  0.00231
 plradd ia,ip,cpol           14           0  6.69590086E-02

 Point added to stored polar  1
 Point written to save file  hq2510_Re400k.base.pol                          
 Dump file unspecified or not available
 Calculating wake trajectory ...
 Calculating source influence matrix ...

 Solving BL system ...

 Side 1  free  transition at x/c =  0.6871   61
 Side 2 forced transition at x/c =  1.0000   78

   1   rms: 0.9612E-01   max: -.2994E+00   C at   78  2
       a =  3.000      CL =  0.6767
      Cm = -0.0740     CD =  0.00715   =>   CDf =  0.00463    CDp =  0.00253

 Side 1  free  transition at x/c =  0.6520   58
 Side 2 forced transition at x/c =  1.0000   78

   2   rms: 0.2205E-01   max: 0.3112E+00   D at   60  1
       a =  3.000      CL =  0.6758
      Cm = -0.0738     CD =  0.00720   =>   CDf =  0.00481    CDp =  0.00239

 Side 1  free  transition at x/c =  0.6550   58
 Side 2 forced transition at x/c =  1.0000   78

   3   rms: 0.2878E-02   max: 0.3247E-01   D at   59  1
       a =  3.000      CL =  0.6761
      Cm = -0.0738     CD =  0.00715   =>   CDf =  0.00475    CDp =  0.00240

 Side 1  free  transition at x/c =  0.6542   58
 Side 2 forced transition at x/c =  1.0000   78

   4   rms: 0.1966E-04   max: 0.2141E-03   D at   59  1
       a =  3.000      CL =  0.6761
      Cm = -0.0738     CD =  0.00715   =>   CDf =  0.00475    CDp =  0.00239
 plradd ia,ip,cpol           15           0  4.32088263E-02

 Point added to stored polar  1
 Point written to save file  hq2510_Re400k.base.pol                          
 Dump file unspecified or not available
 Calculating wake trajectory ...
 Calculating source influence matrix ...

 Solving BL system ...

 Side 1  free  transition at x/c =  0.6542   58
 Side 2 forced transition at x/c =  1.0000   78

   1   rms: 0.8643E-01   max: -.1861E+00   C at   78  2
       a =  3.500      CL =  0.7303
      Cm = -0.0737     CD =  0.00727   =>   CDf =  0.00460    CDp =  0.00267

 Side 1  free  transition at x/c =  0.6057   56
 Side 2 forced transition at x/c =  1.0000   77

   2   rms: 0.2802E-01   max: -.3496E+00   D at   57  1
       a =  3.500      CL =  0.7283
      Cm = -0.0732     CD =  0.00744   =>   CDf =  0.00495    CDp =  0.00249

 Side 1  free  transition at x/c =  0.6162   57
 Side 2 forced transition at x/c =  1.0000   77

   3   rms: 0.4195E-02   max: 0.5800E-01   C at   57  1
       a =  3.500      CL =  0.7288
      Cm = -0.0733     CD =  0.00741   =>   CDf =  0.00482    CDp =  0.00259

 Side 1  free  transition at x/c =  0.6144   57
 Side 2 forced transition at x/c =  1.0000   77

   4   rms: 0.1405E-03   max: 0.1724E-02   C at   57  1
       a =  3.500      CL =  0.7288
      Cm = -0.0733     CD =  0.00741   =>   CDf =  0.00484    CDp =  0.00257

 Side 1  free  transition at x/c =  0.6143   57
 Side 2 forced transition at x/c =  1.0000   77

   5   rms: 0.9082E-06   max: -.6555E-05   D at   59  1
       a =  3.500      CL =  0.7288
      Cm = -0.0733     CD =  0.00741   =>   CDf =  0.00484    CDp =  0.00257
 plradd ia,ip,cpol           16           0  4.32088263E-02

 Point added to stored polar  1
 Point written to save file  hq2510_Re400k.base.pol                          
 Dump file unspecified or not available
 Calculating wake trajectory ...
 Calculating source influence matrix ...

 Solving BL system ...

 Side 1  free  transition at x/c =  0.6143   57
 Side 2 forced transition at x/c =  1.0000   77

   1   rms: 0.9758E-01   max: 0.7813E+00   C at   57  1
       a =  4.000      CL =  0.7798
      Cm = -0.0724     CD =  0.00784   =>   CDf =  0.00484    CDp =  0.00300

 Side 1  free  transition at x/c =  0.5531   52
 Side 2 forced transition at x/c =  1.0000   77

   2   rms: 0.2703E-01   max: 0.2440E+00   D at   56  1
       a =  4.000      CL =  0.7793
      Cm = -0.0723     CD =  0.00778   =>   CDf =  0.00507    CDp =  0.00270

 Side 1  free  transition at x/c =  0.5600   53
 Side 2 forced transition at x/c =  1.0000   77

   3   rms: 0.3677E-02   max: -.4887E-01   D at   56  1
       a =  4.000      CL =  0.7794
      Cm = -0.0723     CD =  0.00781   =>   CDf =  0.00500    CDp =  0.00281

 Side 1  free  transition at x/c =  0.5582   52
 Side 2 forced transition at x/c =  1.0000   77

   4   rms: 0.1240E-03   max: -.1938E-02   D at   56  1
       a =  4.000      CL =  0.7794
      Cm = -0.0723     CD =  0.00781   =>   CDf =  0.00501    CDp =  0.00280

 Side 1  free  transition at x/c =  0.5582   52
 Side 2 forced transition at x/c =  1.0000   77

   5   rms: 0.9205E-06   max: -.7437E-05   C at   52  1
       a =  4.000      CL =  0.7794
      Cm = -0.0723     CD =  0.00781   =>   CDf =  0.00501    CDp =  0.00280
 plradd ia,ip,cpol           17           0  3.24800424E-02

 Point added to stored polar  1
 Point written to save file  hq2510_Re400k.base.pol                          
 Dump file unspecified or not available
 Calculating wake trajectory ...
 Calculating source influence matrix ...

 Solving BL system ...

 Side 1  free  transition at x/c =  0.5582   52
 Side 2 forced transition at x/c =  1.0000   77

   1   rms: 0.9152E-01   max: 0.6961E+00   C at   52  1
       a =  4.500      CL =  0.8314
      Cm = -0.0717     CD =  0.00813   =>   CDf =  0.00478    CDp =  0.00335

 Side 1  free  transition at x/c =  0.4595   46
 Side 2 forced transition at x/c =  1.0000   76

   2   rms: 0.2866E-01   max: -.3092E+00   C at   46  1
       a =  4.500      CL =  0.8252
      Cm = -0.0706     CD =  0.00855   =>   CDf =  0.00546    CDp =  0.00309

 Side 1  free  transition at x/c =  0.4771   48
 Side 2 forced transition at x/c =  1.0000   76

   3   rms: 0.7239E-02   max: 0.1160E+00   C at   48  1
       a =  4.500      CL =  0.8259
      Cm = -0.0707     CD =  0.00852   =>   CDf =  0.00531    CDp =  0.00321

 Side 1  free  transition at x/c =  0.4731   47
 Side 2 forced transition at x/c =  1.0000   76

   4   rms: 0.9005E-03   max: 0.1412E-01   C at   47  1
       a =  4.500      CL =  0.8261
      Cm = -0.0708     CD =  0.00851   =>   CDf =  0.00533    CDp =  0.00319

 Side 1  free  transition at x/c =  0.4726   47
 Side 2 forced transition at x/c =  1.0000   76

   5   rms: 0.4496E-05   max: -.6991E-04   D at   50  1
       a =  4.500      CL =  0.8261
      Cm = -0.0708     CD =  0.00851   =>   CDf =  0.00533    CDp =  0.00318
 plradd ia,ip,cpol           18           0  2.26360187E-02

 Point added to stored polar  1
 Point written to save file  hq2510_Re400k.base.pol                          
 Dump file unspecified or not available
 Calculating wake trajectory ...
 Calculating source influence matrix ...

 Solving BL system ...

 Side 1  free  transition at x/c =  0.4726   47
 Side 2 forced transition at x/c =  1.0000   76

   1   rms: 0.1353E+00   max: 0.2006E+01   C at   47  1   RLX: 0.748
       a =  5.000      CL =  0.8612
      Cm = -0.0697     CD =  0.00908   =>   CDf =  0.00533    CDp =  0.00375

 Side 1  free  transition at x/c =  0.4008   42
 Side 2 forced transition at x/c =  1.0000   76

   2   rms: 0.2489E-01   max: -.1673E+00   D at   43  1
       a =  5.000      CL =  0.8722
      Cm = -0.0693     CD =  0.00937   =>   CDf =  0.00567    CDp =  0.00370

 Side 1  free  transition at x/c =  0.3832   41
 Side 2 forced transition at x/c =  1.0000   76

   3   rms: 0.5047E-02   max: -.8709E-01   C at   41  1
       a =  5.000      CL =  0.8713
      Cm = -0.0691     CD =  0.00944   =>   CDf =  0.00571    CDp =  0.00372

 Side 1  free  transition at x/c =  0.3854   41
 Side 2 forced transition at x/c =  1.0000   76

   4   rms: 0.6073E-04   max: -.1076E-02   D at   44  1
       a =  5.000      CL =  0.8713
      Cm = -0.0691     CD =  0.00944   =>   CDf =  0.00570    CDp =  0.00374
 plradd ia,ip,cpol           19           0 -1.96149358E-05

 Point added to stored polar  1
 Point written to save file  hq2510_Re400k.base.pol                          
 Dump file unspecified or not available
 Calculating wake trajectory ...
 Calculating source influence matrix ...

 Solving BL system ...

 Side 1  free  transition at x/c =  0.3854   41
 Side 2 forced transition at x/c =  1.0000   76

   1   rms: 0.1467E+00   max: 0.2292E+01   C at   41  1   RLX: 0.655
       a =  5.500      CL =  0.9008
      Cm = -0.0681     CD =  0.01010   =>   CDf =  0.00570    CDp =  0.00440

 Side 1  free  transition at x/c =  0.3096   36
 Side 2 forced transition at x/c =  1.0000   76

   2   rms: 0.3887E-01   max: -.3961E+00   D at   36  1
       a =  5.500      CL =  0.9133
      Cm = -0.0672     CD =  0.01070   =>   CDf =  0.00580    CDp =  0.00490

 Side 1  free  transition at x/c =  0.2847   35
 Side 2 forced transition at x/c =  1.0000   75

   3   rms: 0.1238E-01   max: -.1471E+00   T at    2  1
       a =  5.500      CL =  0.9137
      Cm = -0.0673     CD =  0.01065   =>   CDf =  0.00618    CDp =  0.00447

 Side 1  free  transition at x/c =  0.2869   35
 Side 2 forced transition at x/c =  1.0000   75

   4   rms: 0.2423E-02   max: 0.3406E-01   C at   35  1
       a =  5.500      CL =  0.9138
      Cm = -0.0673     CD =  0.01065   =>   CDf =  0.00616    CDp =  0.00449

 Side 1  free  transition at x/c =  0.2860   35
 Side 2 forced transition at x/c =  1.0000   75

   5   rms: 0.3128E-04   max: -.5248E-03   C at   35  1
       a =  5.500      CL =  0.9138
      Cm = -0.0673     CD =  0.01065   =>   CDf =  0.00617    CDp =  0.00448
 plradd ia,ip,cpol           20           0 -1.96149358E-05

 Point added to stored polar  1
 Point written to save file  hq2510_Re400k.base.pol                          
 Dump file unspecified or not available
 Calculating wake trajectory ...
 Calculating source influence matrix ...

 Solving BL system ...

 Side 1  free  transition at x/c =  0.2860   35
 Side 2 forced transition at x/c =  1.0000   75

   1   rms: 0.1598E+00   max: 0.2432E+01   C at   35  1   RLX: 0.515
       a =  6.000      CL =  0.9356
      Cm = -0.0664     CD =  0.01133   =>   CDf =  0.00617    CDp =  0.00517

 Side 1  free  transition at x/c =  0.2424   32
 Side 2 forced transition at x/c =  1.0000   75

   2   rms: 0.6134E-01   max: -.5193E+00   D at   32  1   RLX: 0.963
       a =  6.000      CL =  0.9559
      Cm = -0.0656     CD =  0.01187   =>   CDf =  0.00641    CDp =  0.00547

 Side 1  free  transition at x/c =  0.2174   30
 Side 2 forced transition at x/c =  1.0000   75

   3   rms: 0.1379E-01   max: -.2540E+00   D at   32  1
       a =  6.000      CL =  0.9582
      Cm = -0.0658     CD =  0.01173   =>   CDf =  0.00648    CDp =  0.00525

 Side 1  free  transition at x/c =  0.2147   30
 Side 2 forced transition at x/c =  1.0000   75

   4   rms: 0.1488E-02   max: -.2853E-01   D at   32  1
       a =  6.000      CL =  0.9582
      Cm = -0.0658     CD =  0.01174   =>   CDf =  0.00651    CDp =  0.00523

 Side 1  free  transition at x/c =  0.2144   30
 Side 2 forced transition at x/c =  1.0000   75

   5   rms: 0.2060E-04   max: -.3889E-03   D at   32  1
       a =  6.000      CL =  0.9582
      Cm = -0.0658     CD =  0.01174   =>   CDf =  0.00651    CDp =  0.00523
 plradd ia,ip,cpol           21           0 -1.96149358E-05

 Point added to stored polar  1
 Point written to save file  hq2510_Re400k.base.pol                          
 Dump file unspecified or not available
 Calculating wake trajectory ...
 Calculating source influence matrix ...

 Solving BL system ...

 Side 1  free  transition at x/c =  0.2144   30
 Side 2 forced transition at x/c =  1.0000   75

   1   rms: 0.1294E+00   max: 0.1688E+01   C at   30  1   RLX: 0.591
       a =  6.500      CL =  0.9841
      Cm = -0.0649     CD =  0.01244   =>   CDf =  0.00651    CDp =  0.00593

 Side 1  free  transition at x/c =  0.1825   27
 Side 2 forced transition at x/c =  1.0000   75

   2   rms: 0.3887E-01   max: -.2006E+00   D at   27  1
       a =  6.500      CL =  1.0053
      Cm = -0.0646     CD =  0.01258   =>   CDf =  0.00664    CDp =  0.00594

 Side 1  free  transition at x/c =  0.1575   25
 Side 2 forced transition at x/c =  1.0000   75

   3   rms: 0.7799E-02   max: -.1469E+00   C at   25  1
       a =  6.500      CL =  1.0031
      Cm = -0.0644     CD =  0.01276   =>   CDf =  0.00676    CDp =  0.00600

 Side 1  free  transition at x/c =  0.1610   26
 Side 2 forced transition at x/c =  1.0000   75

   4   rms: 0.1048E-02   max: -.1904E-01   D at   25  1
       a =  6.500      CL =  1.0035
      Cm = -0.0644     CD =  0.01272   =>   CDf =  0.00672    CDp =  0.00600

 Side 1  free  transition at x/c =  0.1607   26
 Side 2 forced transition at x/c =  1.0000   75

   5   rms: 0.2416E-04   max: 0.4289E-03   C at   26  1
       a =  6.500      CL =  1.0035
      Cm = -0.0644     CD =  0.01272   =>   CDf =  0.00672    CDp =  0.00601
 plradd ia,ip,cpol           22           0 -1.96149358E-05

 Point added to stored polar  1
 Point written to save file  hq2510_Re400k.base.pol                          
 Dump file unspecified or not available
 Calculating wake trajectory ...
 Calculating source influence matrix ...

 Solving BL system ...

 Side 1  free  transition at x/c =  0.1607   26
 Side 2 forced transition at x/c =  1.0000   75

   1   rms: 0.1709E+00   max: 0.2419E+01   C at   26  1   RLX: 0.400
       a =  7.000      CL =  1.0190
      Cm = -0.0636     CD =  0.01341   =>   CDf =  0.00672    CDp =  0.00669

 Side 1  free  transition at x/c =  0.1362   24
 Side 2 forced transition at x/c =  1.0000   75

   2   rms: 0.8812E-01   max: 0.1263E+01   C at   24  1   RLX: 0.912
       a =  7.000      CL =  1.0440
      Cm = -0.0628     CD =  0.01395   =>   CDf =  0.00683    CDp =  0.00711

 Side 1  free  transition at x/c =  0.0926   21
 Side 2 forced transition at x/c =  1.0000   75

   3   rms: 0.1860E-01   max: -.2237E+00   D at   24  1
       a =  7.000      CL =  1.0441
      Cm = -0.0624     CD =  0.01418   =>   CDf =  0.00711    CDp =  0.00707

 Side 1  free  transition at x/c =  0.0885   20
 Side 2 forced transition at x/c =  1.0000   75

   4   rms: 0.3907E-02   max: 0.7783E-01   C at   20  1
       a =  7.000      CL =  1.0441
      Cm = -0.0624     CD =  0.01417   =>   CDf =  0.00712    CDp =  0.00705

 Side 1  free  transition at x/c =  0.0866   20
 Side 2 forced transition at x/c =  1.0000   75

   5   rms: 0.5863E-04   max: 0.7356E-03   D at   12  1
       a =  7.000      CL =  1.0440
      Cm = -0.0624     CD =  0.01417   =>   CDf =  0.00713    CDp =  0.00704
 plradd ia,ip,cpol           23           0 -1.96149358E-05

 Point added to stored polar  1
 Point written to save file  hq2510_Re400k.base.pol                          
 Dump file unspecified or not available
 Calculating wake trajectory ...
 Calculating source influence matrix ...

 Solving BL system ...

 Side 1  free  transition at x/c =  0.0866   20
 Side 2 forced transition at x/c =  1.0000   75

   1   rms: 0.2070E+00   max: 0.3926E+01   C at   20  1   RLX: 0.382
       a =  7.500      CL =  1.0583
      Cm = -0.0615     CD =  0.01490   =>   CDf =  0.00678    CDp =  0.00812

 Side 1  free  transition at x/c =  0.0313   16
 Side 2 forced transition at x/c =  1.0000   74

   2   rms: 0.3609E+00   max: 0.8870E+01   C at   16  1   RLX: 0.169
       a =  7.500      CL =  1.0597
      Cm = -0.0610     CD =  0.01574   =>   CDf =  0.00754    CDp =  0.00820

 Side 1  free  transition at x/c =  0.0177   15
 Side 2 forced transition at x/c =  1.0000   74

   3   rms: 0.1636E+00   max: 0.3488E+01   C at   15  1   RLX: 0.430
       a =  7.500      CL =  1.0629
      Cm = -0.0597     CD =  0.01654   =>   CDf =  0.00765    CDp =  0.00888

 Side 1  free  transition at x/c =  0.0125   14
 Side 2 forced transition at x/c =  1.0000   74

   4   rms: 0.3424E-01   max: 0.3086E+00   C at   14  1
       a =  7.500      CL =  1.0741
      Cm = -0.0588     CD =  0.01675   =>   CDf =  0.00767    CDp =  0.00908

 Side 1  free  transition at x/c =  0.0103   14
 Side 2 forced transition at x/c =  1.0000   74

   5   rms: 0.2178E-02   max: -.2882E-01   D at   14  1
       a =  7.500      CL =  1.0739
      Cm = -0.0587     CD =  0.01675   =>   CDf =  0.00766    CDp =  0.00909

 Side 1  free  transition at x/c =  0.0101   14
 Side 2 forced transition at x/c =  1.0000   74

   6   rms: 0.5252E-04   max: -.6640E-03   D at   14  1
       a =  7.500      CL =  1.0739
      Cm = -0.0587     CD =  0.01675   =>   CDf =  0.00767    CDp =  0.00908
 plradd ia,ip,cpol           24           0 -1.96149358E-05

 Point added to stored polar  1
 Point written to save file  hq2510_Re400k.base.pol                          
 Dump file unspecified or not available
 Calculating wake trajectory ...
 Calculating source influence matrix ...

 Solving BL system ...

 Side 1  free  transition at x/c =  0.0101   14
 Side 2 forced transition at x/c =  1.0000   74

   1   rms: 0.9611E-01   max: 0.4737E+00   C at   14  1
       a =  8.000      CL =  1.1148
      Cm = -0.0562     CD =  0.01834   =>   CDf =  0.00767    CDp =  0.01067

 Side 1  free  transition at x/c =  0.0082   13
 Side 2 forced transition at x/c =  1.0000   74

   2   rms: 0.5590E-01   max: -.4198E+00   D at   14  1
       a =  8.000      CL =  1.1148
      Cm = -0.0563     CD =  0.01809   =>   CDf =  0.00718    CDp =  0.01090

 Side 1  free  transition at x/c =  0.0082   13
 Side 2 forced transition at x/c =  1.0000   74

   3   rms: 0.4155E-02   max: 0.6351E-01   D at   13  1
       a =  8.000      CL =  1.1135
      Cm = -0.0561     CD =  0.01829   =>   CDf =  0.00740    CDp =  0.01089

 Side 1  free  transition at x/c =  0.0082   13
 Side 2 forced transition at x/c =  1.0000   74

   4   rms: 0.9451E-04   max: 0.9998E-03   D at   14  1
       a =  8.000      CL =  1.1135
      Cm = -0.0561     CD =  0.01829   =>   CDf =  0.00739    CDp =  0.01089
 plradd ia,ip,cpol           25           0 -1.96149358E-05

 Point added to stored polar  1
 Point written to save file  hq2510_Re400k.base.pol                          
 Dump file unspecified or not available
 Calculating wake trajectory ...
 Calculating source influence matrix ...

 Solving BL system ...

 Side 1  free  transition at x/c =  0.0082   13
 Side 2 forced transition at x/c =  1.0000   74

   1   rms: 0.8442E-01   max: 0.1274E+00   D at   84  2
       a =  8.500      CL =  1.1521
      Cm = -0.0535     CD =  0.01997   =>   CDf =  0.00739    CDp =  0.01258

 Side 1  free  transition at x/c =  0.0073   13
 Side 2 forced transition at x/c =  1.0000   74

   2   rms: 0.5459E-02   max: 0.3166E-01   D at   13  1
       a =  8.500      CL =  1.1478
      Cm = -0.0529     CD =  0.02015   =>   CDf =  0.00713    CDp =  0.01302

 Side 1  free  transition at x/c =  0.0074   13
 Side 2 forced transition at x/c =  1.0000   74

   3   rms: 0.6505E-04   max: 0.5780E-03   D at   14  1
       a =  8.500      CL =  1.1478
      Cm = -0.0529     CD =  0.02016   =>   CDf =  0.00714    CDp =  0.01302
 plradd ia,ip,cpol           26           0 -1.96149358E-05

 Point added to stored polar  1
 Point written to save file  hq2510_Re400k.base.pol                          
 Dump file unspecified or not available
 Calculating wake trajectory ...
 Calculating source influence matrix ...

 Solving BL system ...

 Side 1  free  transition at x/c =  0.0074   13
 Side 2 forced transition at x/c =  1.0000   74

   1   rms: 0.8465E-01   max: 0.2026E+00   D at   15  1
       a =  9.000      CL =  1.1796
      Cm = -0.0494     CD =  0.02230   =>   CDf =  0.00714    CDp =  0.01516

 Side 1  free  transition at x/c =  0.0070   13
 Side 2 forced transition at x/c =  1.0000   74

   2   rms: 0.6109E-02   max: 0.3219E-01   D at   13  1
       a =  9.000      CL =  1.1747
      Cm = -0.0487     CD =  0.02242   =>   CDf =  0.00689    CDp =  0.01553

 Side 1  free  transition at x/c =  0.0071   13
 Side 2 forced transition at x/c =  1.0000   74

   3   rms: 0.1142E-03   max: 0.5483E-03   D at   88  1
       a =  9.000      CL =  1.1746
      Cm = -0.0487     CD =  0.02242   =>   CDf =  0.00689    CDp =  0.01553

 Side 1  free  transition at x/c =  0.0071   13
 Side 2 forced transition at x/c =  1.0000   74

   4   rms: 0.1656E-05   max: -.1147E-04   C at   74  2
       a =  9.000      CL =  1.1746
      Cm = -0.0487     CD =  0.02242   =>   CDf =  0.00689    CDp =  0.01553
 plradd ia,ip,cpol           27           0 -1.96149358E-05

 Point added to stored polar  1
 Point written to save file  hq2510_Re400k.base.pol                          
 Dump file unspecified or not available
 Calculating wake trajectory ...
 Calculating source influence matrix ...

 Solving BL system ...

 Side 1  free  transition at x/c =  0.0071   13
 Side 2 forced transition at x/c =  1.0000   74

   1   rms: 0.8557E-01   max: 0.2165E+00   D at   15  1
       a =  9.500      CL =  1.1980
      Cm = -0.0441     CD =  0.02508   =>   CDf =  0.00689    CDp =  0.01819

 Side 1  free  transition at x/c =  0.0069   13
 Side 2 forced transition at x/c =  1.0000   74

   2   rms: 0.8626E-02   max: 0.4177E-01   D at   88  1
       a =  9.500      CL =  1.1904
      Cm = -0.0429     CD =  0.02509   =>   CDf =  0.00664    CDp =  0.01845

 Side 1  free  transition at x/c =  0.0070   13
 Side 2 forced transition at x/c =  1.0000   74

   3   rms: 0.2973E-03   max: 0.2850E-02   D at   86  1
       a =  9.500      CL =  1.1904
      Cm = -0.0429     CD =  0.02509   =>   CDf =  0.00664    CDp =  0.01845

 Side 1  free  transition at x/c =  0.0070   13
 Side 2 forced transition at x/c =  1.0000   74

   4   rms: 0.8765E-05   max: 0.2923E-04   D at   85  1
       a =  9.500      CL =  1.1904
      Cm = -0.0429     CD =  0.02509   =>   CDf =  0.00664    CDp =  0.01845
 plradd ia,ip,cpol           28           0 -1.96149358E-05

 Point added to stored polar  1
 Point written to save file  hq2510_Re400k.base.pol                          
 Dump file unspecified or not available
 Calculating wake trajectory ...
 Calculating source influence matrix ...

 Solving BL system ...

 Side 1  free  transition at x/c =  0.0070   13
 Side 2 forced transition at x/c =  1.0000   74

   1   rms: 0.8336E-01   max: 0.2123E+00   D at   15  1
       a = 10.000      CL =  1.2067
      Cm = -0.0375     CD =  0.02816   =>   CDf =  0.00613    CDp =  0.02203

 Side 1  free  transition at x/c =  0.0070   14
 Side 2 forced transition at x/c =  1.0000   73

   2   rms: 0.9564E-02   max: -.1028E+00   D at    2  1
       a = 10.000      CL =  1.2045
      Cm = -0.0375     CD =  0.02834   =>   CDf =  0.00634    CDp =  0.02199

 Side 1  free  transition at x/c =  0.0070   14
 Side 2 forced transition at x/c =  1.0000   73

   3   rms: 0.1483E-02   max: -.1530E-01   D at    4  1
       a = 10.000      CL =  1.2044
      Cm = -0.0375     CD =  0.02831   =>   CDf =  0.00632    CDp =  0.02198

 Side 1  free  transition at x/c =  0.0070   14
 Side 2 forced transition at x/c =  1.0000   73

   4   rms: 0.3529E-04   max: -.1375E-03   D at   85  1
       a = 10.000      CL =  1.2044
      Cm = -0.0375     CD =  0.02831   =>   CDf =  0.00632    CDp =  0.02198
 plradd ia,ip,cpol           29           0 -1.96149358E-05

 Point added to stored polar  1
 Point written to save file  hq2510_Re400k.base.pol                          
 Dump file unspecified or not available

.OPERva   c>  
 Solving BL system ...

 Side 1  free  transition at x/c =  0.0070   14
 Side 2 forced transition at x/c =  1.0000   73

   1   rms: 0.1993E-05   max: -.5931E-05   T at   85  1
       a = 10.000      CL =  1.2044
      Cm = -0.0375     CD =  0.02831   =>   CDf =  0.00632    CDp =  0.02198
 plradd ia,ip,cpol           30         182 -1.96149358E-05

 Point added to stored polar  1
 Point written to save file  hq2510_Re400k.base.pol                          
 Dump file unspecified or not available
 Calculating wake trajectory ...
 Calculating source influence matrix ...

 Solving BL system ...

 Side 1  free  transition at x/c =  0.0070   14
 Side 2 forced transition at x/c =  1.0000   73

   1   rms: 0.4508E-01   max: 0.1331E+00   D at   16  1
       a = 10.250      CL =  1.2131
      Cm = -0.0352     CD =  0.03029   =>   CDf =  0.00632    CDp =  0.02397

 Side 1  free  transition at x/c =  0.0072   14
 Side 2 forced transition at x/c =  1.0000   73

   2   rms: 0.2387E-02   max: 0.1444E-01   D at   79  2
       a = 10.250      CL =  1.2114
      Cm = -0.0350     CD =  0.03029   =>   CDf =  0.00615    CDp =  0.02414

 Side 1  free  transition at x/c =  0.0072   14
 Side 2 forced transition at x/c =  1.0000   73

   3   rms: 0.3224E-04   max: 0.4011E-03   D at   83  1
       a = 10.250      CL =  1.2113
      Cm = -0.0350     CD =  0.03028   =>   CDf =  0.00615    CDp =  0.02414
 plradd ia,ip,cpol           31           0 -1.96149358E-05

 Point added to stored polar  1
 Point written to save file  hq2510_Re400k.base.pol                          
 Dump file unspecified or not available
 Calculating wake trajectory ...
 Calculating source influence matrix ...

 Solving BL system ...

 Side 1  free  transition at x/c =  0.0072   14
 Side 2 forced transition at x/c =  1.0000   73

   1   rms: 0.4561E-01   max: 0.1318E+00   D at   16  1
       a = 10.500      CL =  1.2207
      Cm = -0.0329     CD =  0.03246   =>   CDf =  0.00615    CDp =  0.02631

 Side 1  free  transition at x/c =  0.0073   14
 Side 2 forced transition at x/c =  1.0000   73

   2   rms: 0.2852E-02   max: 0.1537E-01   D at   82  1
       a = 10.500      CL =  1.2184
      Cm = -0.0327     CD =  0.03244   =>   CDf =  0.00595    CDp =  0.02649

 Side 1  free  transition at x/c =  0.0073   14
 Side 2 forced transition at x/c =  1.0000   73

   3   rms: 0.3419E-04   max: 0.4239E-03   D at   80  2
       a = 10.500      CL =  1.2184
      Cm = -0.0327     CD =  0.03244   =>   CDf =  0.00595    CDp =  0.02648
 plradd ia,ip,cpol           32           0 -1.96149358E-05

 Point added to stored polar  1
 Point written to save file  hq2510_Re400k.base.pol                          
 Dump file unspecified or not available
 Calculating wake trajectory ...
 Calculating source influence matrix ...

 Solving BL system ...

 Side 1  free  transition at x/c =  0.0073   14
 Side 2 forced transition at x/c =  1.0000   73

   1   rms: 0.4991E-01   max: 0.1480E+00   D at   16  1
       a = 10.750      CL =  1.2277
      Cm = -0.0308     CD =  0.03505   =>   CDf =  0.00595    CDp =  0.02909

 Side 1  free  transition at x/c =  0.0076   14
 Side 2 forced transition at x/c =  1.0000   73

   2   rms: 0.3995E-02   max: 0.1793E-01   D at   81  1
       a = 10.750      CL =  1.2243
      Cm = -0.0305     CD =  0.03502   =>   CDf =  0.00572    CDp =  0.02929

 Side 1  free  transition at x/c =  0.0076   14
 Side 2 forced transition at x/c =  1.0000   73

   3   rms: 0.1149E-03   max: 0.6954E-03   D at   81  2
       a = 10.750      CL =  1.2243
      Cm = -0.0305     CD =  0.03501   =>   CDf =  0.00573    CDp =  0.02928

 Side 1  free  transition at x/c =  0.0076   14
 Side 2 forced transition at x/c =  1.0000   73

   4   rms: 0.7886E-05   max: -.2554E-04   T at   82  1
       a = 10.750      CL =  1.2243
      Cm = -0.0305     CD =  0.03501   =>   CDf =  0.00573    CDp =  0.02928
 plradd ia,ip,cpol           33           0 -1.96149358E-05

 Point added to stored polar  1
 Point written to save file  hq2510_Re400k.base.pol                          
 Dump file unspecified or not available
 Calculating wake trajectory ...
 Calculating source influence matrix ...

 Solving BL system ...

 Side 1  free  transition at x/c =  0.0076   14
 Side 2 forced transition at x/c =  1.0000   73

   1   rms: 0.5020E-01   max: 0.1358E+00   D at   17  1
       a = 11.000      CL =  1.2324
[...]
 x:  0.03868  0.03873  0.04831  N:  8.764  9.000 53.860  Nx: 298.248   dN:-0.402E+02
 TRCHEK2: N2 convergence failed.
 x:  0.03868  0.03873  0.04831  N:  8.764  9.000 53.824  Nx: 298.695   dN:-0.402E+02
 TRCHEK2: N2 convergence failed.
 x:  0.03868  0.03873  0.04831  N:  8.764  9.000 53.845  Nx: 298.433   dN:-0.402E+02
 TRCHEK2: N2 convergence failed.
 x:  0.03868  0.03873  0.04831  N:  8.764  9.000 53.834  Nx: 298.569   dN:-0.402E+02
 TRCHEK2: N2 convergence failed.
 x:  0.03868  0.03873  0.04831  N:  8.764  9.000 53.839  Nx: 298.510   dN:-0.402E+02
 TRCHEK2: N2 convergence failed.
 x:  0.03868  0.03873  0.04831  N:  8.764  9.000 53.837  Nx: 298.527   dN:-0.402E+02
 TRCHEK2: N2 convergence failed.
 x:  0.03868  0.03873  0.04831  N:  8.764  9.000 53.837  Nx: 298.535   dN:-0.402E+02
 TRCHEK2: N2 convergence failed.
 x:  0.03868  0.03873  0.04831  N:  8.764  9.000 53.838  Nx: 298.525   dN:-0.402E+02
 TRCHEK2: N2 convergence failed.
 x:  0.03868  0.03873  0.04831  N:  8.764  9.000 53.837  Nx: 298.538   dN:-0.402E+02
 TRCHEK2: N2 convergence failed.
 x:  0.03868  0.03873  0.04831  N:  8.764  9.000 53.838  Nx: 298.521   dN:-0.402E+02
 TRCHEK2: N2 convergence failed.
 x:  0.03868  0.03873  0.04831  N:  8.764  9.000 53.836  Nx: 298.543   dN:-0.402E+02
 MRCHDU: Convergence failed at  14  side 1    Res =  0.5522E-01
 TRCHEK2: N2 convergence failed.
 x:  0.03868  0.03873  0.04831  N:  8.764  9.000 53.839  Nx: 298.513   dN:-0.402E+02
 MRCHDU: Convergence failed at  15  side 1    Res =  0.1697E-02
 TRCHEK2: N2 convergence failed.
 x:  0.03868  0.03873  0.04831  N:  8.764  9.000 53.799  Nx: 298.816   dN:-0.402E+02
 Side 1  free  transition at x/c =  0.0147   14
 Side 2 forced transition at x/c =  1.0000   75

 150   rms: 0.8550E+04   max: 0.4848E+05   C at   87  1   RLX: 0.000
       a = 16.000      CL =  1.0103
      Cm = -0.2113     CD =  1.43352   =>   CDf =  0.00204    CDp =  1.43147

 TRCHEK2: N2 convergence failed.
 x:  0.03868  0.03873  0.04831  N:  8.764  9.000 53.798  Nx: 298.797   dN:-0.402E+02
 TRCHEK2: N2 convergence failed.
 x:  0.03868  0.03871  0.04831  N:  8.764  9.000 84.644  Nx: 141.137   dN:-0.751E+02
 TRCHEK2: N2 convergence failed.
 x:  0.03868  0.03873  0.04831  N:  8.764  9.000 60.218  Nx: 233.319   dN:-0.479E+02
 TRCHEK2: N2 convergence failed.
 x:  0.03868  0.03874  0.04831  N:  8.764  9.000 50.393  Nx: 346.348   dN:-0.359E+02
 TRCHEK2: N2 convergence failed.
 x:  0.03868  0.03873  0.04831  N:  8.764  9.000 56.224  Nx: 270.956   dN:-0.431E+02
 TRCHEK2: N2 convergence failed.
 x:  0.03868  0.03874  0.04831  N:  8.764  9.000 52.418  Nx: 316.952   dN:-0.385E+02
 TRCHEK2: N2 convergence failed.
 x:  0.03868  0.03873  0.04831  N:  8.764  9.000 54.764  Nx: 287.300   dN:-0.413E+02
 TRCHEK2: N2 convergence failed.
 x:  0.03868  0.03873  0.04831  N:  8.764  9.000 53.263  Nx: 305.757   dN:-0.395E+02
 TRCHEK2: N2 convergence failed.
 x:  0.03868  0.03873  0.04831  N:  8.764  9.000 54.200  Nx: 294.033   dN:-0.407E+02
 TRCHEK2: N2 convergence failed.
 x:  0.03868  0.03873  0.04831  N:  8.764  9.000 53.606  Nx: 301.388   dN:-0.399E+02
 TRCHEK2: N2 convergence failed.
 x:  0.03868  0.03873  0.04831  N:  8.764  9.000 53.979  Nx: 296.737   dN:-0.404E+02
 TRCHEK2: N2 convergence failed.
 x:  0.03868  0.03873  0.04831  N:  8.764  9.000 53.745  Nx: 299.641   dN:-0.401E+02
 TRCHEK2: N2 convergence failed.
 x:  0.03868  0.03873  0.04831  N:  8.764  9.000 53.893  Nx: 297.804   dN:-0.403E+02
 TRCHEK2: N2 convergence failed.
 x:  0.03868  0.03873  0.04831  N:  8.764  9.000 53.799  Nx: 298.973   dN:-0.402E+02
 TRCHEK2: N2 convergence failed.
 x:  0.03868  0.03873  0.04831  N:  8.764  9.000 53.858  Nx: 298.235   dN:-0.402E+02
 TRCHEK2: N2 convergence failed.
 x:  0.03868  0.03873  0.04831  N:  8.764  9.000 53.820  Nx: 298.703   dN:-0.402E+02
 TRCHEK2: N2 convergence failed.
 x:  0.03868  0.03873  0.04831  N:  8.764  9.000 53.844  Nx: 298.412   dN:-0.402E+02
 TRCHEK2: N2 convergence failed.
 x:  0.03868  0.03873  0.04831  N:  8.764  9.000 53.830  Nx: 298.587   dN:-0.402E+02
 TRCHEK2: N2 convergence failed.
 x:  0.03868  0.03873  0.04831  N:  8.764  9.000 53.839  Nx: 298.476   dN:-0.402E+02
 TRCHEK2: N2 convergence failed.
 x:  0.03868  0.03873  0.04831  N:  8.764  9.000 53.832  Nx: 298.562   dN:-0.402E+02
 TRCHEK2: N2 convergence failed.
 x:  0.03868  0.03873  0.04831  N:  8.764  9.000 53.836  Nx: 298.508   dN:-0.402E+02
 TRCHEK2: N2 convergence failed.
 x:  0.03868  0.03873  0.04831  N:  8.764  9.000 53.835  Nx: 298.520   dN:-0.402E+02
 TRCHEK2: N2 convergence failed.
 x:  0.03868  0.03873  0.04831  N:  8.764  9.000 53.834  Nx: 298.534   dN:-0.402E+02
 TRCHEK2: N2 convergence failed.
 x:  0.03868  0.03873  0.04831  N:  8.764  9.000 53.835  Nx: 298.516   dN:-0.402E+02
 TRCHEK2: N2 convergence failed.
 x:  0.03868  0.03873  0.04831  N:  8.764  9.000 53.833  Nx: 298.540   dN:-0.402E+02
 MRCHDU: Convergence failed at  14  side 1    Res =  0.5522E-01
 TRCHEK2: N2 convergence failed.
 x:  0.03868  0.03873  0.04831  N:  8.764  9.000 53.836  Nx: 298.509   dN:-0.402E+02
 MRCHDU: Convergence failed at  15  side 1    Res =  0.1697E-02
 TRCHEK2: N2 convergence failed.
 x:  0.03868  0.03873  0.04831  N:  8.764  9.000 53.797  Nx: 298.812   dN:-0.402E+02
 Side 1  free  transition at x/c =  0.0147   14
 Side 2 forced transition at x/c =  1.0000   75

 151   rms: 0.8596E+03   max: -.4887E+04   C at   87  1   RLX: 0.000
       a = 16.000      CL =  1.0103
      Cm = -0.2113     CD =  1.43452   =>   CDf =  0.00204    CDp =  1.43248

 TRCHEK2: N2 convergence failed.
 x:  0.03868  0.03873  0.04831  N:  8.765  9.000 53.743  Nx: 299.054   dN:-0.401E+02
 TRCHEK2: N2 convergence failed.
 x:  0.03868  0.03871  0.04831  N:  8.765  9.000 84.537  Nx: 141.186   dN:-0.750E+02
 TRCHEK2: N2 convergence failed.
 x:  0.03868  0.03873  0.04831  N:  8.765  9.000 60.135  Nx: 233.688   dN:-0.478E+02
 TRCHEK2: N2 convergence failed.
 x:  0.03868  0.03874  0.04831  N:  8.765  9.000 50.318  Nx: 347.012   dN:-0.358E+02
 TRCHEK2: N2 convergence failed.
 x:  0.03868  0.03873  0.04831  N:  8.765  9.000 56.157  Nx: 271.297   dN:-0.430E+02
 TRCHEK2: N2 convergence failed.
 x:  0.03868  0.03874  0.04831  N:  8.765  9.000 52.339  Nx: 317.584   dN:-0.384E+02
 TRCHEK2: N2 convergence failed.
 x:  0.03868  0.03873  0.04831  N:  8.765  9.000 54.697  Nx: 287.684   dN:-0.413E+02
 TRCHEK2: N2 convergence failed.
 x:  0.03868  0.03873  0.04831  N:  8.765  9.000 53.185  Nx: 306.337   dN:-0.394E+02
 TRCHEK2: N2 convergence failed.
 x:  0.03868  0.03873  0.04831  N:  8.765  9.000 54.131  Nx: 294.459   dN:-0.406E+02
 TRCHEK2: N2 convergence failed.
 x:  0.03868  0.03873  0.04831  N:  8.765  9.000 53.531  Nx: 301.906   dN:-0.398E+02
 TRCHEK2: N2 convergence failed.
 x:  0.03868  0.03873  0.04831  N:  8.765  9.000 53.909  Nx: 297.186   dN:-0.403E+02
 TRCHEK2: N2 convergence failed.
 x:  0.03868  0.03873  0.04831  N:  8.765  9.000 53.668  Nx: 300.183   dN:-0.400E+02
 TRCHEK2: N2 convergence failed.
 x:  0.03868  0.03873  0.04831  N:  8.765  9.000 53.820  Nx: 298.282   dN:-0.402E+02
 TRCHEK2: N2 convergence failed.
 x:  0.03868  0.03873  0.04831  N:  8.765  9.000 53.724  Nx: 299.478   dN:-0.401E+02
 TRCHEK2: N2 convergence failed.
 x:  0.03868  0.03873  0.04831  N:  8.765  9.000 53.786  Nx: 298.704   dN:-0.402E+02
 TRCHEK2: N2 convergence failed.
 x:  0.03868  0.03873  0.04831  N:  8.765  9.000 53.745  Nx: 299.218   dN:-0.401E+02
 TRCHEK2: N2 convergence failed.
 x:  0.03868  0.03873  0.04831  N:  8.765  9.000 53.773  Nx: 298.867   dN:-0.401E+02
 TRCHEK2: N2 convergence failed.
 x:  0.03868  0.03873  0.04831  N:  8.765  9.000 53.755  Nx: 299.092   dN:-0.401E+02
 TRCHEK2: N2 convergence failed.
 x:  0.03868  0.03873  0.04831  N:  8.765  9.000 53.765  Nx: 298.975   dN:-0.401E+02
 TRCHEK2: N2 convergence failed.
 x:  0.03868  0.03873  0.04831  N:  8.765  9.000 53.760  Nx: 299.038   dN:-0.401E+02
 TRCHEK2: N2 convergence failed.
 x:  0.03868  0.03873  0.04831  N:  8.765  9.000 53.764  Nx: 298.985   dN:-0.401E+02
 TRCHEK2: N2 convergence failed.
 x:  0.03868  0.03873  0.04831  N:  8.765  9.000 53.761  Nx: 299.025   dN:-0.401E+02
 TRCHEK2: N2 convergence failed.
 x:  0.03868  0.03873  0.04831  N:  8.765  9.000 53.762  Nx: 299.003   dN:-0.401E+02
 TRCHEK2: N2 convergence failed.
 x:  0.03868  0.03873  0.04831  N:  8.765  9.000 53.760  Nx: 299.032   dN:-0.401E+02
 TRCHEK2: N2 convergence failed.
 x:  0.03868  0.03873  0.04831  N:  8.765  9.000 53.763  Nx: 298.995   dN:-0.401E+02
 MRCHDU: Convergence failed at  14  side 1    Res =  0.5528E-01
 TRCHEK2: N2 convergence failed.
 x:  0.03868  0.03873  0.04831  N:  8.765  9.000 53.762  Nx: 299.013   dN:-0.401E+02
 MRCHDU: Convergence failed at  15  side 1    Res =  0.1698E-02
 TRCHEK2: N2 convergence failed.
 x:  0.03868  0.03873  0.04831  N:  8.765  9.000 53.722  Nx: 299.317   dN:-0.401E+02
 Side 1  free  transition at x/c =  0.0147   14
 Side 2 forced transition at x/c =  1.0000   75

 152   rms: 0.7361E+04   max: -.4178E+05   C at   87  1   RLX: 0.000
       a = 16.000      CL =  1.0102
      Cm = -0.2113     CD =  1.43550   =>   CDf =  0.00204    CDp =  1.43346

 TRCHEK2: N2 convergence failed.
 x:  0.03868  0.03873  0.04831  N:  8.765  9.000 53.714  Nx: 299.353   dN:-0.401E+02
 TRCHEK2: N2 convergence failed.
 x:  0.03868  0.03871  0.04831  N:  8.765  9.000 84.553  Nx: 141.163   dN:-0.750E+02
 TRCHEK2: N2 convergence failed.
 x:  0.03868  0.03873  0.04831  N:  8.765  9.000 60.147  Nx: 233.538   dN:-0.478E+02
 TRCHEK2: N2 convergence failed.
 x:  0.03868  0.03874  0.04831  N:  8.765  9.000 50.297  Nx: 347.263   dN:-0.358E+02
 TRCHEK2: N2 convergence failed.
 x:  0.03868  0.03873  0.04831  N:  8.765  9.000 56.152  Nx: 271.288   dN:-0.430E+02
 TRCHEK2: N2 convergence failed.
 x:  0.03868  0.03874  0.04831  N:  8.765  9.000 52.325  Nx: 317.702   dN:-0.383E+02
 TRCHEK2: N2 convergence failed.
 x:  0.03868  0.03873  0.04831  N:  8.765  9.000 54.689  Nx: 287.717   dN:-0.413E+02
 TRCHEK2: N2 convergence failed.
 x:  0.03868  0.03873  0.04831  N:  8.765  9.000 53.173  Nx: 306.423   dN:-0.394E+02
 TRCHEK2: N2 convergence failed.
 x:  0.03868  0.03873  0.04831  N:  8.765  9.000 54.122  Nx: 294.502   dN:-0.406E+02
 TRCHEK2: N2 convergence failed.
 x:  0.03868  0.03873  0.04831  N:  8.765  9.000 53.518  Nx: 302.005   dN:-0.398E+02
 TRCHEK2: N2 convergence failed.
 x:  0.03868  0.03873  0.04831  N:  8.765  9.000 53.899  Nx: 297.241   dN:-0.403E+02
 TRCHEK2: N2 convergence failed.
 x:  0.03868  0.03873  0.04831  N:  8.765  9.000 53.658  Nx: 300.237   dN:-0.400E+02
 TRCHEK2: N2 convergence failed.
 x:  0.03868  0.03873  0.04831  N:  8.765  9.000 53.808  Nx: 298.368   dN:-0.402E+02
 TRCHEK2: N2 convergence failed.
 x:  0.03868  0.03873  0.04831  N:  8.765  9.000 53.713  Nx: 299.551   dN:-0.401E+02
 TRCHEK2: N2 convergence failed.
 x:  0.03868  0.03873  0.04831  N:  8.765  9.000 53.774  Nx: 298.793   dN:-0.401E+02
 TRCHEK2: N2 convergence failed.
 x:  0.03868  0.03873  0.04831  N:  8.765  9.000 53.737  Nx: 299.258   dN:-0.401E+02
 TRCHEK2: N2 convergence failed.
 x:  0.03868  0.03873  0.04831  N:  8.765  9.000 53.760  Nx: 298.972   dN:-0.401E+02
 TRCHEK2: N2 convergence failed.
 x:  0.03868  0.03873  0.04831  N:  8.765  9.000 53.746  Nx: 299.140   dN:-0.401E+02
 TRCHEK2: N2 convergence failed.
 x:  0.03868  0.03873  0.04831  N:  8.765  9.000 53.754  Nx: 299.037   dN:-0.401E+02
 TRCHEK2: N2 convergence failed.
 x:  0.03868  0.03873  0.04831  N:  8.765  9.000 53.748  Nx: 299.112   dN:-0.401E+02
 TRCHEK2: N2 convergence failed.
 x:  0.03868  0.03873  0.04831  N:  8.765  9.000 53.751  Nx: 299.074   dN:-0.401E+02
 TRCHEK2: N2 convergence failed.
 x:  0.03868  0.03873  0.04831  N:  8.765  9.000 53.750  Nx: 299.096   dN:-0.401E+02
 TRCHEK2: N2 convergence failed.
 x:  0.03868  0.03873  0.04831  N:  8.765  9.000 53.752  Nx: 299.066   dN:-0.401E+02
 TRCHEK2: N2 convergence failed.
 x:  0.03868  0.03873  0.04831  N:  8.765  9.000 53.749  Nx: 299.105   dN:-0.401E+02
 TRCHEK2: N2 convergence failed.
 x:  0.03868  0.03873  0.04831  N:  8.765  9.000 53.751  Nx: 299.084   dN:-0.401E+02
 MRCHDU: Convergence failed at  14  side 1    Res =  0.5529E-01
 TRCHEK2: N2 convergence failed.
 x:  0.03868  0.03873  0.04831  N:  8.765  9.000 53.751  Nx: 299.081   dN:-0.401E+02
 MRCHDU: Convergence failed at  15  side 1    Res =  0.1698E-02
 TRCHEK2: N2 convergence failed.
 x:  0.03868  0.03873  0.04831  N:  8.765  9.000 53.712  Nx: 299.385   dN:-0.401E+02
 Side 1  free  transition at x/c =  0.0147   14
 Side 2 forced transition at x/c =  1.0000   75

 153   rms: 0.7935E+04   max: 0.4500E+05   C at   87  1   RLX: 0.000
       a = 16.000      CL =  1.0102
      Cm = -0.2113     CD =  1.43534   =>   CDf =  0.00204    CDp =  1.43329

 TRCHEK2: N2 convergence failed.
 x:  0.03868  0.03873  0.04831  N:  8.765  9.000 53.739  Nx: 299.164   dN:-0.401E+02
 TRCHEK2: N2 convergence failed.
 x:  0.03868  0.03871  0.04831  N:  8.765  9.000 84.607  Nx: 141.127   dN:-0.751E+02
 TRCHEK2: N2 convergence failed.
 x:  0.03868  0.03873  0.04831  N:  8.765  9.000 60.189  Nx: 233.287   dN:-0.479E+02
 TRCHEK2: N2 convergence failed.
 x:  0.03868  0.03874  0.04831  N:  8.765  9.000 50.330  Nx: 346.892   dN:-0.359E+02
 TRCHEK2: N2 convergence failed.
 x:  0.03868  0.03873  0.04831  N:  8.765  9.000 56.188  Nx: 271.019   dN:-0.431E+02
 TRCHEK2: N2 convergence failed.
 x:  0.03868  0.03874  0.04831  N:  8.765  9.000 52.359  Nx: 317.366   dN:-0.384E+02
 TRCHEK2: N2 convergence failed.
 x:  0.03868  0.03873  0.04831  N:  8.765  9.000 54.721  Nx: 287.453   dN:-0.413E+02
 TRCHEK2: N2 convergence failed.
 x:  0.03868  0.03873  0.04831  N:  8.765  9.000 53.209  Nx: 306.084   dN:-0.394E+02
 TRCHEK2: N2 convergence failed.
 x:  0.03868  0.03873  0.04831  N:  8.765  9.000 54.154  Nx: 294.240   dN:-0.406E+02
 TRCHEK2: N2 convergence failed.
 x:  0.03868  0.03873  0.04831  N:  8.765  9.000 53.555  Nx: 301.669   dN:-0.399E+02
 TRCHEK2: N2 convergence failed.
 x:  0.03868  0.03873  0.04831  N:  8.765  9.000 53.931  Nx: 296.973   dN:-0.403E+02
 TRCHEK2: N2 convergence failed.
 x:  0.03868  0.03873  0.04831  N:  8.765  9.000 53.694  Nx: 299.910   dN:-0.400E+02
 TRCHEK2: N2 convergence failed.
 x:  0.03868  0.03873  0.04831  N:  8.765  9.000 53.843  Nx: 298.057   dN:-0.402E+02
 TRCHEK2: N2 convergence failed.
 x:  0.03868  0.03873  0.04831  N:  8.765  9.000 53.747  Nx: 299.249   dN:-0.401E+02
 TRCHEK2: N2 convergence failed.
 x:  0.03868  0.03873  0.04831  N:  8.765  9.000 53.809  Nx: 298.480   dN:-0.402E+02
 TRCHEK2: N2 convergence failed.
 x:  0.03868  0.03873  0.04831  N:  8.765  9.000 53.770  Nx: 298.959   dN:-0.401E+02
 TRCHEK2: N2 convergence failed.
 x:  0.03868  0.03873  0.04831  N:  8.765  9.000 53.795  Nx: 298.655   dN:-0.402E+02
 TRCHEK2: N2 convergence failed.
 x:  0.03868  0.03873  0.04831  N:  8.765  9.000 53.780  Nx: 298.846   dN:-0.401E+02
 TRCHEK2: N2 convergence failed.
 x:  0.03868  0.03873  0.04831  N:  8.765  9.000 53.788  Nx: 298.745   dN:-0.402E+02
 TRCHEK2: N2 convergence failed.
 x:  0.03868  0.03873  0.04831  N:  8.765  9.000 53.784  Nx: 298.789   dN:-0.401E+02
 TRCHEK2: N2 convergence failed.
 x:  0.03868  0.03873  0.04831  N:  8.765  9.000 53.786  Nx: 298.761   dN:-0.402E+02
 TRCHEK2: N2 convergence failed.
 x:  0.03868  0.03873  0.04831  N:  8.765  9.000 53.783  Nx: 298.797   dN:-0.401E+02
 TRCHEK2: N2 convergence failed.
 x:  0.03868  0.03873  0.04831  N:  8.765  9.000 53.785  Nx: 298.779   dN:-0.401E+02
 TRCHEK2: N2 convergence failed.
 x:  0.03868  0.03873  0.04831  N:  8.765  9.000 53.785  Nx: 298.774   dN:-0.401E+02
 TRCHEK2: N2 convergence failed.
 x:  0.03868  0.03873  0.04831  N:  8.765  9.000 53.785  Nx: 298.779   dN:-0.401E+02
 MRCHDU: Convergence failed at  14  side 1    Res =  0.5526E-01
 TRCHEK2: N2 convergence failed.
 x:  0.03868  0.03873  0.04831  N:  8.765  9.000 53.785  Nx: 298.773   dN:-0.401E+02
 MRCHDU: Convergence failed at  15  side 1    Res =  0.1698E-02
 TRCHEK2: N2 convergence failed.
 x:  0.03868  0.03873  0.04831  N:  8.765  9.000 53.746  Nx: 299.077   dN:-0.401E+02
 Side 1  free  transition at x/c =  0.0147   14
 Side 2 forced transition at x/c =  1.0000   75

 154   rms: 0.9147E+03   max: -.5200E+04   C at   87  1   RLX: 0.000
       a = 16.000      CL =  1.0102
      Cm = -0.2113     CD =  1.43584   =>   CDf =  0.00204    CDp =  1.43380

 TRCHEK2: N2 convergence failed.
 x:  0.03868  0.03873  0.04831  N:  8.765  9.000 53.764  Nx: 298.840   dN:-0.401E+02
 TRCHEK2: N2 convergence failed.
 x:  0.03868  0.03871  0.04831  N:  8.765  9.000 84.612  Nx: 141.118   dN:-0.751E+02
 TRCHEK2: N2 convergence failed.
 x:  0.03868  0.03873  0.04831  N:  8.765  9.000 60.193  Nx: 233.244   dN:-0.479E+02
 TRCHEK2: N2 convergence failed.
 x:  0.03868  0.03874  0.04831  N:  8.765  9.000 50.357  Nx: 346.469   dN:-0.359E+02
 TRCHEK2: N2 convergence failed.
 x:  0.03868  0.03873  0.04831  N:  8.765  9.000 56.198  Nx: 270.903   dN:-0.431E+02
 TRCHEK2: N2 convergence failed.
 x:  0.03868  0.03873  0.04831  N:  8.765  9.000 52.383  Nx: 317.028   dN:-0.384E+02
 TRCHEK2: N2 convergence failed.
 x:  0.03868  0.03873  0.04831  N:  8.765  9.000 54.736  Nx: 287.271   dN:-0.413E+02
 TRCHEK2: N2 convergence failed.
 x:  0.03868  0.03873  0.04831  N:  8.765  9.000 53.229  Nx: 305.815   dN:-0.395E+02
 TRCHEK2: N2 convergence failed.
 x:  0.03868  0.03873  0.04831  N:  8.765  9.000 54.173  Nx: 293.999   dN:-0.406E+02
 TRCHEK2: N2 convergence failed.
 x:  0.03868  0.03873  0.04831  N:  8.765  9.000 53.574  Nx: 301.420   dN:-0.399E+02
 TRCHEK2: N2 convergence failed.
 x:  0.03868  0.03873  0.04831  N:  8.765  9.000 53.949  Nx: 296.735   dN:-0.404E+02
 TRCHEK2: N2 convergence failed.
 x:  0.03868  0.03873  0.04831  N:  8.765  9.000 53.711  Nx: 299.687   dN:-0.401E+02
 TRCHEK2: N2 convergence failed.
 x:  0.03868  0.03873  0.04831  N:  8.765  9.000 53.862  Nx: 297.817   dN:-0.402E+02
 TRCHEK2: N2 convergence failed.
 x:  0.03868  0.03873  0.04831  N:  8.765  9.000 53.766  Nx: 299.000   dN:-0.401E+02
 TRCHEK2: N2 convergence failed.
 x:  0.03868  0.03873  0.04831  N:  8.765  9.000 53.827  Nx: 298.244   dN:-0.402E+02
 TRCHEK2: N2 convergence failed.
 x:  0.03868  0.03873  0.04831  N:  8.765  9.000 53.790  Nx: 298.705   dN:-0.402E+02
 TRCHEK2: N2 convergence failed.
 x:  0.03868  0.03873  0.04831  N:  8.765  9.000 53.813  Nx: 298.424   dN:-0.402E+02
 TRCHEK2: N2 convergence failed.
 x:  0.03868  0.03873  0.04831  N:  8.765  9.000 53.797  Nx: 298.616   dN:-0.402E+02
 TRCHEK2: N2 convergence failed.
 x:  0.03868  0.03873  0.04831  N:  8.765  9.000 53.808  Nx: 298.481   dN:-0.402E+02
 TRCHEK2: N2 convergence failed.
 x:  0.03868  0.03873  0.04831  N:  8.765  9.000 53.801  Nx: 298.570   dN:-0.402E+02
 TRCHEK2: N2 convergence failed.
 x:  0.03868  0.03873  0.04831  N:  8.765  9.000 53.806  Nx: 298.513   dN:-0.402E+02
 TRCHEK2: N2 convergence failed.
 x:  0.03868  0.03873  0.04831  N:  8.765  9.000 53.802  Nx: 298.557   dN:-0.402E+02
 TRCHEK2: N2 convergence failed.
 x:  0.03868  0.03873  0.04831  N:  8.765  9.000 53.804  Nx: 298.529   dN:-0.402E+02
 TRCHEK2: N2 convergence failed.
 x:  0.03868  0.03873  0.04831  N:  8.765  9.000 53.804  Nx: 298.536   dN:-0.402E+02
 TRCHEK2: N2 convergence failed.
 x:  0.03868  0.03873  0.04831  N:  8.765  9.000 53.804  Nx: 298.527   dN:-0.402E+02
 MRCHDU: Convergence failed at  14  side 1    Res =  0.5524E-01
 TRCHEK2: N2 convergence failed.
 x:  0.03868  0.03873  0.04831  N:  8.765  9.000 53.803  Nx: 298.539   dN:-0.402E+02
 MRCHDU: Convergence failed at  15  side 1    Res =  0.1698E-02
 TRCHEK2: N2 convergence failed.
 x:  0.03868  0.03873  0.04831  N:  8.765  9.000 53.764  Nx: 298.842   dN:-0.401E+02
 Side 1  free  transition at x/c =  0.0147   14
 Side 2 forced transition at x/c =  1.0000   75

 155   rms: 0.1425E+05   max: -.8085E+05   C at   87  1   RLX: 0.000
       a = 16.000      CL =  1.0102
      Cm = -0.2113     CD =  1.43689   =>   CDf =  0.00204    CDp =  1.43485
 VISCAL:  Convergence failed

.OPERva   c>  
 Polar accumulation disabled

.OPERv   c>  
 XFOIL   c>  
 XFOIL   c>  