
 ===================================================
  XFOIL Version 6.99
  Copyright (C) 2000   Mark Drela, Harold Youngren

  This software comes with ABSOLUTELY NO WARRANTY,
    subject to the GNU General Public License.

  Caveat computor
 ===================================================

 File  xfoil.def  not found

   QUIT    Exit program

  .OPER    Direct operating point(s)
  .MDES    Complex mapping design routine
  .QDES    Surface speed design routine
  .GDES    Geometry design routine

   SAVE f  Write airfoil to labeled coordinate file
   PSAV f  Write airfoil to plain coordinate file
   ISAV f  Write airfoil to ISES coordinate file
   MSAV f  Write airfoil to MSES coordinate file
   REVE    Reverse written-airfoil node ordering

   LOAD f  Read buffer airfoil from coordinate file
   NACA i  Set NACA 4,5-digit airfoil and buffer airfoil
   INTE    Set buffer airfoil by interpolating two airfoils
   NORM    Buffer airfoil normalization toggle
   XYCM rr Change CM reference location, currently  0.25000 0.00000

   BEND    Display structural properties of current airfoil

   PCOP    Set current-airfoil panel nodes directly from buffer airfoil points
   PANE    Set current-airfoil panel nodes ( 160 ) based on curvature
  .PPAR    Show/change paneling

  .PLOP    Plotting options

   WDEF f  Write  current-settings file
   RDEF f  Reread current-settings file
   NAME s  Specify new airfoil name
   NINC    Increment name version number

   Z       Zoom    | (available in all menus)
   U       Unzoom  | 

 XFOIL   c>  
 Labeled airfoil file.  Name:  HQ 2.5/11 AIRFOIL                               

 Number of input coordinate points:  97
 Counterclockwise ordering
 Max thickness =     0.110002  at x =   0.339
 Max camber    =     0.024450  at x =   0.500

  LE  x,y  =  -0.00008   0.00107  |   Chord =   1.00008
  TE  x,y  =   1.00000   0.00000  |

 Current airfoil nodes set from buffer airfoil nodes (  97 )

 XFOIL   c>  
 XFOIL   c>  
 Sharp trailing edge

 Paneling parameters used...
   Number of panel nodes       160
   Panel bunching parameter    1.000
   TE/LE panel density ratio   0.150
   Refined-area/LE panel density ratio    0.200
   Top    side refined area x/c limits  1.000 1.000
   Bottom side refined area x/c limits  1.000 1.000

 XFOIL   c>  
.OPERi   c>  
 Xtr/c     =  1.0000    top    side
 Xtr/c     =  1.0000    bottom side
 Ncrit     =    9.00   ( 0.070 % turb. level )
 Vacc      =  0.0100

 Klag  =  5.6000     Uxwt  =    1.00
 A     =  6.7000     B     =  0.7500       KCt = 0.01485
 CtiniK=  1.8000     CtiniX=  3.3000

..VPAR   c>  
..VPAR   c>  
.OPERi   c>  
 M  =    0.0000
 Re =    400000

.OPERv   c>  
.OPERv   c>  
.OPERv   c>  
 Polar  1 newly created for accumulation
 Airfoil archived with polar: HQ 2.5/11 AIRFOIL                               

Enter  polar save filename  OR  <return> for no file   s>  
 New polar save file available

Enter  polar dump filename  OR  <return> for no file   s>  
 Polar dump file will NOT be written

 Polar accumulation enabled

.OPERva   c>   Calculating unit vorticity distributions ...
 Calculating wake trajectory ...
 Calculating source influence matrix ...

 Solving BL system ...

 Initializing BL ...
    side            1  ...
 MRCHUE: Inverse mode at  54     Hk =   4.051
 MRCHUE: Inverse mode at  55     Hk =   4.573
 MRCHUE: Inverse mode at  56     Hk =   5.086
 MRCHUE: Inverse mode at  57     Hk =   5.593
 MRCHUE: Inverse mode at  58     Hk =   6.093
 MRCHUE: Inverse mode at  59     Hk =   6.587
 MRCHUE: Inverse mode at  60     Hk =   7.075
 MRCHUE: Inverse mode at  61     Hk =   7.559
 MRCHUE: Inverse mode at  62     Hk =   8.042
 MRCHUE: Inverse mode at  63     Hk =   8.524
 MRCHUE: Inverse mode at  64     Hk =   9.005
 MRCHUE: Inverse mode at  65     Hk =   7.981
 MRCHUE: Inverse mode at  66     Hk =   6.124
 MRCHUE: Inverse mode at  67     Hk =   4.864
 MRCHUE: Inverse mode at  68     Hk =   3.913
 MRCHUE: Inverse mode at  69     Hk =   3.163
    side            2  ...
 MRCHUE: Inverse mode at  10     Hk =   3.800
 MRCHUE: Convergence failed at  11  side 2    Res =  0.2327E+01
 MRCHUE: Inverse mode at  12     Hk =   5.011
 MRCHUE: Inverse mode at  15     Hk =   3.911
 MRCHUE: Inverse mode at  16     Hk =   5.217
 MRCHUE: Inverse mode at  17     Hk =   6.592
 MRCHUE: Inverse mode at  18     Hk =   8.083
 MRCHUE: Inverse mode at  19     Hk =   2.500

 MRCHDU: Convergence failed at  19  side 2    Res =  0.1005E+02
 MRCHDU: Convergence failed at  20  side 2    Res =  0.4402E+01
 MRCHDU: Convergence failed at  21  side 2    Res =  0.5162E+01
 MRCHDU: Convergence failed at  22  side 2    Res =  0.7037E+01
 MRCHDU: Convergence failed at  23  side 2    Res =  0.1023E+02
 MRCHDU: Convergence failed at  24  side 2    Res =  0.1438E+02
 MRCHDU: Convergence failed at  25  side 2    Res =  0.2058E+02
 MRCHDU: Convergence failed at  26  side 2    Res =  0.2655E+02
 MRCHDU: Convergence failed at  27  side 2    Res =  0.6067E+02
 MRCHDU: Convergence failed at  28  side 2    Res =  0.6308E+03
 MRCHDU: Convergence failed at  29  side 2    Res =  0.5699E+02
 MRCHDU: Convergence failed at  30  side 2    Res =  0.3672E+02
 MRCHDU: Convergence failed at  31  side 2    Res =  0.3108E+02
 MRCHDU: Convergence failed at  32  side 2    Res =  0.2870E+02
 MRCHDU: Convergence failed at  33  side 2    Res =  0.2657E+02
 MRCHDU: Convergence failed at  34  side 2    Res =  0.2354E+02
 MRCHDU: Convergence failed at  35  side 2    Res =  0.2081E+02
 MRCHDU: Convergence failed at  36  side 2    Res =  0.1941E+02
 MRCHDU: Convergence failed at  37  side 2    Res =  0.1840E+02
 MRCHDU: Convergence failed at  38  side 2    Res =  0.1862E+02
 MRCHDU: Convergence failed at  39  side 2    Res =  0.1876E+02
 MRCHDU: Convergence failed at  40  side 2    Res =  0.1818E+02
 MRCHDU: Convergence failed at  41  side 2    Res =  0.1702E+02
 MRCHDU: Convergence failed at  42  side 2    Res =  0.1580E+02
 MRCHDU: Convergence failed at  43  side 2    Res =  0.1220E+02
 MRCHDU: Convergence failed at  44  side 2    Res =  0.1291E+02
 MRCHDU: Convergence failed at  45  side 2    Res =  0.1362E+02
 MRCHDU: Convergence failed at  46  side 2    Res =  0.1418E+02
 MRCHDU: Convergence failed at  47  side 2    Res =  0.1447E+02
 MRCHDU: Convergence failed at  48  side 2    Res =  0.1473E+02
 MRCHDU: Convergence failed at  49  side 2    Res =  0.1509E+02
 MRCHDU: Convergence failed at  50  side 2    Res =  0.1546E+02
 MRCHDU: Convergence failed at  51  side 2    Res =  0.1603E+02
 MRCHDU: Convergence failed at  52  side 2    Res =  0.1674E+02
 MRCHDU: Convergence failed at  53  side 2    Res =  0.2408E+02
 MRCHDU: Convergence failed at  54  side 2    Res =  0.2546E+02
 MRCHDU: Convergence failed at  55  side 2    Res =  0.2697E+02
 MRCHDU: Convergence failed at  56  side 2    Res =  0.2889E+02
 MRCHDU: Convergence failed at  57  side 2    Res =  0.2404E+02
 MRCHDU: Convergence failed at  58  side 2    Res =  0.2697E+02
 MRCHDU: Convergence failed at  59  side 2    Res =  0.2990E+02
 MRCHDU: Convergence failed at  60  side 2    Res =  0.3520E+02
 MRCHDU: Convergence failed at  61  side 2    Res =  0.4313E+02
 MRCHDU: Convergence failed at  62  side 2    Res =  0.5235E+02
 MRCHDU: Convergence failed at  63  side 2    Res =  0.6496E+02
 MRCHDU: Convergence failed at  64  side 2    Res =  0.6345E+02
 MRCHDU: Convergence failed at  65  side 2    Res =  0.1038E+03
 MRCHDU: Convergence failed at  66  side 2    Res =  0.1697E+03
 MRCHDU: Convergence failed at  67  side 2    Res =  0.2312E+03
 MRCHDU: Convergence failed at  68  side 2    Res =  0.4176E+03
 MRCHDU: Convergence failed at  69  side 2    Res =  0.1511E+04
 MRCHDU: Convergence failed at  70  side 2    Res =  0.5943E+03
 MRCHDU: Convergence failed at  71  side 2    Res =  0.5673E+03
 MRCHDU: Convergence failed at  72  side 2    Res =  0.6701E+03
 MRCHDU: Convergence failed at  73  side 2    Res =  0.3004E+03
 MRCHDU: Convergence failed at  74  side 2    Res =  0.2385E+03
 MRCHDU: Convergence failed at  75  side 2    Res =  0.2491E+03
 MRCHDU: Convergence failed at  76  side 2    Res =  0.3378E+03
 MRCHDU: Convergence failed at  77  side 2    Res =  0.4638E+03
 MRCHDU: Convergence failed at  78  side 2    Res =  0.4378E+03
 MRCHDU: Convergence failed at  79  side 2    Res =  0.2567E+03
 MRCHDU: Convergence failed at  80  side 2    Res =  0.1742E+03
 MRCHDU: Convergence failed at  81  side 2    Res =  0.1592E+03
 MRCHDU: Convergence failed at  82  side 2    Res =  0.9923E+03
 MRCHDU: Convergence failed at  83  side 2    Res =  0.3823E+04
 MRCHDU: Convergence failed at  84  side 2    Res =  0.1038E+03
 MRCHDU: Convergence failed at  85  side 2    Res =  0.3650E+02
 Side 1  free  transition at x/c =  0.8328   65
 Side 2  free  transition at x/c =  0.0407   19

   1   rms: 0.7553E+00   max: 0.7326E+00   D at   87  2   RLX: 0.404
       a = -4.000      CL = -0.7017
      Cm =  0.1257     CD =  0.00624   =>   CDf =  0.00236    CDp =  0.00388

 Side 1  free  transition at x/c =  0.8524   66
 Side 2  free  transition at x/c =  0.0540   20

   2   rms: 0.3417E+00   max: -.6880E+00   D at   86  2   RLX: 0.562
       a = -4.000      CL = -0.3305
      Cm = -0.0095     CD =  0.01145   =>   CDf =  0.00802    CDp =  0.00342

 MRCHDU: Convergence failed at  68  side 1    Res =  0.1914E+01
 MRCHDU: Convergence failed at  69  side 1    Res =  0.1300E+02
 MRCHDU: Convergence failed at  70  side 1    Res =  0.2476E+01
 MRCHDU: Convergence failed at  71  side 1    Res =  0.3652E+01
 MRCHDU: Convergence failed at  72  side 1    Res =  0.5679E+01
 MRCHDU: Convergence failed at  73  side 1    Res =  0.8110E+01
 MRCHDU: Convergence failed at  74  side 1    Res =  0.1052E+02
 MRCHDU: Convergence failed at  75  side 1    Res =  0.1221E+02
 MRCHDU: Convergence failed at  76  side 1    Res =  0.1182E+02
 MRCHDU: Convergence failed at  77  side 1    Res =  0.8591E+01
 Side 1  free  transition at x/c =  0.8723   68
 Side 2  free  transition at x/c =  0.0558   20
 idif Ue xi dudx           1  0.17323567      2.75826454E-03   62.806038    
 Uenew xinew           2  1.27693938E-05  2.03314755E-07

   3   rms: 0.1664E+02   max: 0.2959E+03   D at    2  1   RLX: 0.004
       a = -4.000      CL = -0.3007
      Cm = -0.0302     CD =  0.00809   =>   CDf =  0.00680    CDp =  0.00129

 Side 1  free  transition at x/c =  0.8723   67
 Side 2  free  transition at x/c =  0.0557   21

   4   rms: 0.4715E+00   max: 0.5496E+01   T at    2  2   RLX: 0.248
       a = -4.000      CL = -0.2564
      Cm = -0.0399     CD =  0.00878   =>   CDf =  0.00742    CDp =  0.00135

 MRCHDU: Convergence failed at  69  side 2    Res =  0.5212E+00
 MRCHDU: Convergence failed at  70  side 2    Res =  0.2255E+00
 MRCHDU: Convergence failed at  71  side 2    Res =  0.8294E+00
 MRCHDU: Convergence failed at  72  side 2    Res =  0.1352E+00
 MRCHDU: Convergence failed at  73  side 2    Res =  0.6457E+00
 MRCHDU: Convergence failed at  74  side 2    Res =  0.4280E+00
 MRCHDU: Convergence failed at  75  side 2    Res =  0.4518E+00
 MRCHDU: Convergence failed at  77  side 2    Res =  0.3348E+01
 MRCHDU: Convergence failed at  80  side 2    Res =  0.6359E+00
 MRCHDU: Convergence failed at  81  side 2    Res =  0.6679E+00
 MRCHDU: Convergence failed at  82  side 2    Res =  0.7596E+00
 MRCHDU: Convergence failed at  83  side 2    Res =  0.7045E+00
 MRCHDU: Convergence failed at  84  side 2    Res =  0.7544E+00
 MRCHDU: Convergence failed at  85  side 2    Res =  0.8323E+00
 MRCHDU: Convergence failed at  86  side 2    Res =  0.9168E+00
 Side 1  free  transition at x/c =  0.8739   67
 Side 2  free  transition at x/c =  0.0564   21

   5   rms: 0.3033E+00   max: 0.5898E+00   D at   88  2   RLX: 0.608
       a = -4.000      CL = -0.1774
      Cm = -0.0448     CD =  0.00746   =>   CDf =  0.00827    CDp = -0.00081

 MRCHDU: Convergence failed at  75  side 2    Res =  0.2183E+01
 MRCHDU: Convergence failed at  76  side 2    Res =  0.2606E+01
 Side 1  free  transition at x/c =  0.8811   68
 Side 2  free  transition at x/c =  0.0613   21

   6   rms: 0.1469E+00   max: 0.2982E+00   D at   88  2
       a = -4.000      CL = -0.0814
      Cm = -0.0803     CD =  0.00996   =>   CDf =  0.00742    CDp =  0.00254

 Side 1  free  transition at x/c =  0.8854   69
 Side 2  free  transition at x/c =  0.0630   21

   7   rms: 0.1196E-01   max: -.1310E+00   D at   76  2
       a = -4.000      CL = -0.0795
      Cm = -0.0802     CD =  0.01048   =>   CDf =  0.00657    CDp =  0.00392

 Side 1  free  transition at x/c =  0.8846   69
 Side 2  free  transition at x/c =  0.0631   21

   8   rms: 0.8148E-03   max: -.8634E-02   D at   76  2
       a = -4.000      CL = -0.0795
      Cm = -0.0802     CD =  0.01048   =>   CDf =  0.00656    CDp =  0.00392

 Side 1  free  transition at x/c =  0.8845   69
 Side 2  free  transition at x/c =  0.0631   21

   9   rms: 0.8047E-05   max: -.1248E-03   D at   71  1
       a = -4.000      CL = -0.0795
      Cm = -0.0802     CD =  0.01048   =>   CDf =  0.00656    CDp =  0.00392
 plradd ia,ip,cpol            1           0  1.25794054E-03

 Point added to stored polar  1
 Point written to save file  hq2511_Re400k.base.pol                          
 Dump file unspecified or not available
 Calculating wake trajectory ...
 Calculating source influence matrix ...

 Solving BL system ...

 Side 1  free  transition at x/c =  0.8845   69
 Side 2  free  transition at x/c =  0.0631   21

   1   rms: 0.1063E+00   max: 0.8412E+00   D at   21  2   RLX: 0.868
       a = -3.500      CL = -0.0320
      Cm = -0.0801     CD =  0.01010   =>   CDf =  0.00656    CDp =  0.00354

 Side 1  free  transition at x/c =  0.8757   68
 Side 2  free  transition at x/c =  0.0730   22

   2   rms: 0.1145E+00   max: -.6229E+00   D at   21  2   RLX: 0.803
       a = -3.500      CL = -0.0290
      Cm = -0.0796     CD =  0.00975   =>   CDf =  0.00659    CDp =  0.00316

 Side 1  free  transition at x/c =  0.8704   68
 Side 2  free  transition at x/c =  0.0909   23

   3   rms: 0.1383E-01   max: 0.1219E+00   D at   20  2
       a = -3.500      CL = -0.0261
      Cm = -0.0798     CD =  0.01005   =>   CDf =  0.00657    CDp =  0.00349

 Side 1  free  transition at x/c =  0.8707   68
 Side 2  free  transition at x/c =  0.0866   23

   4   rms: 0.5341E-02   max: -.6232E-01   D at   23  2
       a = -3.500      CL = -0.0260
      Cm = -0.0798     CD =  0.01008   =>   CDf =  0.00658    CDp =  0.00350

 Side 1  free  transition at x/c =  0.8707   68
 Side 2  free  transition at x/c =  0.0849   22

   5   rms: 0.1419E-02   max: -.2079E-01   C at   22  2
       a = -3.500      CL = -0.0260
      Cm = -0.0798     CD =  0.01007   =>   CDf =  0.00659    CDp =  0.00348

 Side 1  free  transition at x/c =  0.8707   68
 Side 2  free  transition at x/c =  0.0849   22

   6   rms: 0.8455E-05   max: 0.1312E-03   C at   22  2
       a = -3.500      CL = -0.0260
      Cm = -0.0798     CD =  0.01007   =>   CDf =  0.00659    CDp =  0.00348
 plradd ia,ip,cpol            2           0  1.25794054E-03

 Point added to stored polar  1
 Point written to save file  hq2511_Re400k.base.pol                          
 Dump file unspecified or not available
 Calculating wake trajectory ...
 Calculating source influence matrix ...

 Solving BL system ...

 Side 1  free  transition at x/c =  0.8707   68
 Side 2  free  transition at x/c =  0.0849   22

   1   rms: 0.9595E-01   max: 0.6051E+00   C at   22  2   RLX: 0.842
       a = -3.000      CL =  0.0209
      Cm = -0.0796     CD =  0.00991   =>   CDf =  0.00668    CDp =  0.00324

 MRCHDU: Convergence failed at  22  side 2    Res =  0.2241E+01
 MRCHDU: Convergence failed at  23  side 2    Res =  0.1132E+01
 MRCHDU: Convergence failed at  24  side 2    Res =  0.1493E+01
 MRCHDU: Convergence failed at  25  side 2    Res =  0.1355E+01
 MRCHDU: Convergence failed at  26  side 2    Res =  0.1194E+01
 MRCHDU: Convergence failed at  27  side 2    Res =  0.1151E+01
 MRCHDU: Convergence failed at  28  side 2    Res =  0.1361E+01
 MRCHDU: Convergence failed at  29  side 2    Res =  0.1558E+01
 MRCHDU: Convergence failed at  30  side 2    Res =  0.1673E+01
 MRCHDU: Convergence failed at  31  side 2    Res =  0.1736E+01
 MRCHDU: Convergence failed at  32  side 2    Res =  0.1796E+01
 MRCHDU: Convergence failed at  33  side 2    Res =  0.1930E+01
 MRCHDU: Convergence failed at  34  side 2    Res =  0.2105E+01
 MRCHDU: Convergence failed at  35  side 2    Res =  0.2268E+01
 MRCHDU: Convergence failed at  36  side 2    Res =  0.2383E+01
 MRCHDU: Convergence failed at  37  side 2    Res =  0.2416E+01
 MRCHDU: Convergence failed at  38  side 2    Res =  0.2440E+01
 MRCHDU: Convergence failed at  39  side 2    Res =  0.2556E+01
 MRCHDU: Convergence failed at  40  side 2    Res =  0.2846E+01
 MRCHDU: Convergence failed at  41  side 2    Res =  0.3152E+01
 MRCHDU: Convergence failed at  42  side 2    Res =  0.3555E+01
 MRCHDU: Convergence failed at  43  side 2    Res =  0.3982E+01
 MRCHDU: Convergence failed at  44  side 2    Res =  0.4477E+01
 MRCHDU: Convergence failed at  45  side 2    Res =  0.4891E+01
 MRCHDU: Convergence failed at  46  side 2    Res =  0.5218E+01
 MRCHDU: Convergence failed at  47  side 2    Res =  0.5537E+01
 MRCHDU: Convergence failed at  48  side 2    Res =  0.5899E+01
 MRCHDU: Convergence failed at  49  side 2    Res =  0.6311E+01
 MRCHDU: Convergence failed at  50  side 2    Res =  0.6867E+01
 MRCHDU: Convergence failed at  51  side 2    Res =  0.7732E+01
 MRCHDU: Convergence failed at  52  side 2    Res =  0.8682E+01
 MRCHDU: Convergence failed at  53  side 2    Res =  0.1025E+02
 MRCHDU: Convergence failed at  54  side 2    Res =  0.1203E+02
 MRCHDU: Convergence failed at  55  side 2    Res =  0.1476E+02
 MRCHDU: Convergence failed at  56  side 2    Res =  0.1988E+02
 MRCHDU: Convergence failed at  57  side 2    Res =  0.2827E+02
 MRCHDU: Convergence failed at  58  side 2    Res =  0.4705E+02
 MRCHDU: Convergence failed at  59  side 2    Res =  0.2273E+03
 MRCHDU: Convergence failed at  60  side 2    Res =  0.8725E+02
 MRCHDU: Convergence failed at  61  side 2    Res =  0.4559E+02
 MRCHDU: Convergence failed at  62  side 2    Res =  0.2989E+02
 MRCHDU: Convergence failed at  63  side 2    Res =  0.2423E+02
 MRCHDU: Convergence failed at  64  side 2    Res =  0.2014E+02
 MRCHDU: Convergence failed at  65  side 2    Res =  0.1837E+02
 MRCHDU: Convergence failed at  66  side 2    Res =  0.1727E+02
 MRCHDU: Convergence failed at  67  side 2    Res =  0.1637E+02
 MRCHDU: Convergence failed at  68  side 2    Res =  0.1558E+02
 MRCHDU: Convergence failed at  69  side 2    Res =  0.1483E+02
 MRCHDU: Convergence failed at  70  side 2    Res =  0.1416E+02
 MRCHDU: Convergence failed at  71  side 2    Res =  0.1283E+02
 MRCHDU: Convergence failed at  72  side 2    Res =  0.1239E+02
 MRCHDU: Convergence failed at  73  side 2    Res =  0.1246E+02
 MRCHDU: Convergence failed at  74  side 2    Res =  0.1284E+02
 MRCHDU: Convergence failed at  75  side 2    Res =  0.1353E+02
 MRCHDU: Convergence failed at  76  side 2    Res =  0.1424E+02
 MRCHDU: Convergence failed at  77  side 2    Res =  0.1471E+02
 MRCHDU: Convergence failed at  78  side 2    Res =  0.1484E+02
 MRCHDU: Convergence failed at  79  side 2    Res =  0.1501E+02
 MRCHDU: Convergence failed at  80  side 2    Res =  0.1566E+02
 MRCHDU: Convergence failed at  81  side 2    Res =  0.1896E+02
 MRCHDU: Convergence failed at  82  side 2    Res =  0.2056E+02
 MRCHDU: Convergence failed at  83  side 2    Res =  0.1944E+02
 MRCHDU: Convergence failed at  84  side 2    Res =  0.2314E+02
 Side 1  free  transition at x/c =  0.8622   68
 Side 2 forced transition at x/c =  1.0000   84

   2   rms: 0.3949E+00   max: -.4294E+00   U at   84  2   RLX: 0.328
       a = -3.000      CL = -0.3480
      Cm =  0.0574     CD =  0.00507   =>   CDf =  0.00691    CDp = -0.00184

 Side 1  free  transition at x/c =  0.8599   68
 Side 2  free  transition at x/c =  0.7672   68

   3   rms: 0.6334E+00   max: 0.1075E+02   C at   68  2   RLX: 0.140
       a = -3.000      CL = -0.3082
      Cm =  0.0401     CD =  0.00605   =>   CDf =  0.00538    CDp =  0.00067

 Side 1  free  transition at x/c =  0.8594   68
 Side 2  free  transition at x/c =  0.6995   63

   4   rms: 0.4319E+00   max: 0.6793E+01   C at   63  2   RLX: 0.221
       a = -3.000      CL = -0.2306
      Cm =  0.0112     CD =  0.00636   =>   CDf =  0.00552    CDp =  0.00084

 Side 1  free  transition at x/c =  0.8587   68
 Side 2  free  transition at x/c =  0.6002   56

   5   rms: 0.3403E+00   max: 0.5170E+01   C at   56  2   RLX: 0.290
       a = -3.000      CL = -0.1539
      Cm = -0.0169     CD =  0.00686   =>   CDf =  0.00572    CDp =  0.00114

 Side 1  free  transition at x/c =  0.8580   68
 Side 2  free  transition at x/c =  0.4926   49

   6   rms: 0.2536E+00   max: 0.3954E+01   C at   49  2   RLX: 0.379
       a = -3.000      CL = -0.0850
      Cm = -0.0417     CD =  0.00744   =>   CDf =  0.00586    CDp =  0.00158

 Side 1  free  transition at x/c =  0.8575   68
 Side 2  free  transition at x/c =  0.4058   43

   7   rms: 0.1703E+00   max: 0.2735E+01   C at   43  2   RLX: 0.548
       a = -3.000      CL = -0.0249
      Cm = -0.0628     CD =  0.00805   =>   CDf =  0.00591    CDp =  0.00214

 Side 1  free  transition at x/c =  0.8571   68
 Side 2  free  transition at x/c =  0.2792   35

   8   rms: 0.1056E+00   max: 0.1851E+01   C at   35  2   RLX: 0.811
       a = -3.000      CL =  0.0160
      Cm = -0.0764     CD =  0.00892   =>   CDf =  0.00612    CDp =  0.00281

 Side 1  free  transition at x/c =  0.8570   68
 Side 2  free  transition at x/c =  0.2199   31

   9   rms: 0.2075E-01   max: 0.3068E+00   C at   31  2
       a = -3.000      CL =  0.0256
      Cm = -0.0794     CD =  0.00912   =>   CDf =  0.00616    CDp =  0.00296

 Side 1  free  transition at x/c =  0.8570   68
 Side 2  free  transition at x/c =  0.2074   30

  10   rms: 0.1160E-02   max: 0.2009E-01   C at   30  2
       a = -3.000      CL =  0.0257
      Cm = -0.0795     CD =  0.00913   =>   CDf =  0.00616    CDp =  0.00297

 Side 1  free  transition at x/c =  0.8570   68
 Side 2  free  transition at x/c =  0.2068   30

  11   rms: 0.1567E-04   max: 0.3187E-03   C at   30  2
       a = -3.000      CL =  0.0257
      Cm = -0.0795     CD =  0.00913   =>   CDf =  0.00617    CDp =  0.00296
 plradd ia,ip,cpol            3           0  1.25794054E-03

 Point added to stored polar  1
 Point written to save file  hq2511_Re400k.base.pol                          
 Dump file unspecified or not available
 Calculating wake trajectory ...
 Calculating source influence matrix ...

 Solving BL system ...

 Side 1  free  transition at x/c =  0.8570   68
 Side 2  free  transition at x/c =  0.2067   30

   1   rms: 0.4278E+00   max: -.8732E+01   C at   30  2   RLX: 0.057
       a = -2.500      CL =  0.0285
      Cm = -0.0794     CD =  0.00905   =>   CDf =  0.00617    CDp =  0.00288

 Side 1  free  transition at x/c =  0.8564   68
 Side 2  free  transition at x/c =  0.2184   31

   2   rms: 0.4006E+00   max: -.7797E+01   C at   31  2   RLX: 0.064
       a = -2.500      CL =  0.0319
      Cm = -0.0794     CD =  0.00897   =>   CDf =  0.00614    CDp =  0.00283

 Side 1  free  transition at x/c =  0.8557   68
 Side 2  free  transition at x/c =  0.2312   31

   3   rms: 0.4359E+00   max: -.8930E+01   C at   31  2   RLX: 0.056
       a = -2.500      CL =  0.0347
      Cm = -0.0794     CD =  0.00893   =>   CDf =  0.00609    CDp =  0.00284

 Side 1  free  transition at x/c =  0.8552   68
 Side 2  free  transition at x/c =  0.2424   32

   4   rms: 0.4996E+00   max: -.1022E+02   C at   32  2   RLX: 0.049
       a = -2.500      CL =  0.0369
      Cm = -0.0794     CD =  0.00887   =>   CDf =  0.00605    CDp =  0.00281

 Side 1  free  transition at x/c =  0.8547   67
 Side 2  free  transition at x/c =  0.2514   33

   5   rms: 0.4299E+00   max: -.8756E+01   C at   33  2   RLX: 0.057
       a = -2.500      CL =  0.0393
      Cm = -0.0794     CD =  0.00881   =>   CDf =  0.00603    CDp =  0.00278

 Side 1  free  transition at x/c =  0.8540   67
 Side 2  free  transition at x/c =  0.2628   34

   6   rms: 0.4173E+00   max: -.8350E+01   C at   34  2   RLX: 0.060
       a = -2.500      CL =  0.0415
      Cm = -0.0794     CD =  0.00873   =>   CDf =  0.00598    CDp =  0.00275

 Side 1  free  transition at x/c =  0.8532   67
 Side 2  free  transition at x/c =  0.2759   35

   7   rms: 0.4223E+00   max: -.8369E+01   C at   35  2   RLX: 0.060
       a = -2.500      CL =  0.0436
      Cm = -0.0794     CD =  0.00866   =>   CDf =  0.00593    CDp =  0.00273

 Side 1  free  transition at x/c =  0.8525   67
 Side 2  free  transition at x/c =  0.2896   35

   8   rms: 0.4624E+00   max: -.9164E+01   C at   35  2   RLX: 0.055
       a = -2.500      CL =  0.0455
      Cm = -0.0794     CD =  0.00862   =>   CDf =  0.00588    CDp =  0.00274

 Side 1  free  transition at x/c =  0.8519   67
 Side 2  free  transition at x/c =  0.3044   36

   9   rms: 0.4771E+00   max: -.9360E+01   C at   36  2   RLX: 0.053
       a = -2.500      CL =  0.0470
      Cm = -0.0794     CD =  0.00855   =>   CDf =  0.00582    CDp =  0.00272

 Side 1  free  transition at x/c =  0.8514   67
 Side 2  free  transition at x/c =  0.3203   37

  10   rms: 0.5569E+00   max: -.1070E+02   C at   37  2   RLX: 0.047
       a = -2.500      CL =  0.0482
      Cm = -0.0794     CD =  0.00847   =>   CDf =  0.00576    CDp =  0.00271

 Side 1  free  transition at x/c =  0.8510   67
 Side 2  free  transition at x/c =  0.3349   38

  11   rms: 0.6232E+00   max: -.1180E+02   C at   38  2   RLX: 0.042
       a = -2.500      CL =  0.0491
      Cm = -0.0794     CD =  0.00840   =>   CDf =  0.00570    CDp =  0.00270

 Side 1  free  transition at x/c =  0.8506   67
 Side 2  free  transition at x/c =  0.3485   39

  12   rms: 0.5912E+00   max: -.1120E+02   C at   39  2   RLX: 0.045
       a = -2.500      CL =  0.0502
      Cm = -0.0793     CD =  0.00835   =>   CDf =  0.00565    CDp =  0.00269

 Side 1  free  transition at x/c =  0.8502   67
 Side 2  free  transition at x/c =  0.3632   40

  13   rms: 0.4911E+00   max: -.9296E+01   C at   40  2   RLX: 0.054
       a = -2.500      CL =  0.0514
      Cm = -0.0793     CD =  0.00829   =>   CDf =  0.00560    CDp =  0.00269

 Side 1  free  transition at x/c =  0.8497   67
 Side 2  free  transition at x/c =  0.3817   42

  14   rms: 0.3689E+00   max: -.7158E+01   C at   42  2   RLX: 0.070
       a = -2.500      CL =  0.0527
      Cm = -0.0793     CD =  0.00820   =>   CDf =  0.00554    CDp =  0.00267

 Side 1  free  transition at x/c =  0.8492   67
 Side 2  free  transition at x/c =  0.3967   43

  15   rms: 0.2721E+00   max: -.5198E+01   C at   43  2   RLX: 0.096
       a = -2.500      CL =  0.0549
      Cm = -0.0793     CD =  0.00815   =>   CDf =  0.00550    CDp =  0.00265

 Side 1  free  transition at x/c =  0.8485   67
 Side 2  free  transition at x/c =  0.4111   44

  16   rms: 0.2112E+00   max: -.3954E+01   C at   44  2   RLX: 0.126
       a = -2.500      CL =  0.0576
      Cm = -0.0793     CD =  0.00809   =>   CDf =  0.00545    CDp =  0.00263

 Side 1  free  transition at x/c =  0.8477   67
 Side 2  free  transition at x/c =  0.4254   45

  17   rms: 0.1745E+00   max: -.3220E+01   C at   45  2   RLX: 0.155
       a = -2.500      CL =  0.0604
      Cm = -0.0793     CD =  0.00803   =>   CDf =  0.00541    CDp =  0.00262

 Side 1  free  transition at x/c =  0.8469   67
 Side 2  free  transition at x/c =  0.4398   46

  18   rms: 0.1489E+00   max: -.2713E+01   C at   46  2   RLX: 0.184
       a = -2.500      CL =  0.0631
      Cm = -0.0793     CD =  0.00797   =>   CDf =  0.00537    CDp =  0.00260

 Side 1  free  transition at x/c =  0.8461   67
 Side 2  free  transition at x/c =  0.4543   47

  19   rms: 0.1251E+00   max: -.2262E+01   C at   47  2   RLX: 0.221
       a = -2.500      CL =  0.0657
      Cm = -0.0793     CD =  0.00791   =>   CDf =  0.00532    CDp =  0.00259

 Side 1  free  transition at x/c =  0.8454   67
 Side 2  free  transition at x/c =  0.4689   48

  20   rms: 0.1014E+00   max: -.1813E+01   C at   48  2   RLX: 0.276
       a = -2.500      CL =  0.0681
      Cm = -0.0792     CD =  0.00786   =>   CDf =  0.00527    CDp =  0.00259

 Side 1  free  transition at x/c =  0.8446   67
 Side 2  free  transition at x/c =  0.4836   49

  21   rms: 0.7700E-01   max: -.1363E+01   C at   49  2   RLX: 0.367
       a = -2.500      CL =  0.0703
      Cm = -0.0792     CD =  0.00781   =>   CDf =  0.00522    CDp =  0.00258

 Side 1  free  transition at x/c =  0.8440   67
 Side 2  free  transition at x/c =  0.4982   50

  22   rms: 0.5447E-01   max: -.9539E+00   C at   50  2   RLX: 0.524
       a = -2.500      CL =  0.0722
      Cm = -0.0790     CD =  0.00776   =>   CDf =  0.00518    CDp =  0.00258

 Side 1  free  transition at x/c =  0.8434   67
 Side 2  free  transition at x/c =  0.5129   51

  23   rms: 0.3422E-01   max: -.5970E+00   C at   51  2   RLX: 0.837
       a = -2.500      CL =  0.0733
      Cm = -0.0788     CD =  0.00772   =>   CDf =  0.00514    CDp =  0.00258

 Side 1  free  transition at x/c =  0.8430   67
 Side 2  free  transition at x/c =  0.5276   52

  24   rms: 0.1629E-01   max: -.2847E+00   C at   52  2
       a = -2.500      CL =  0.0736
      Cm = -0.0787     CD =  0.00773   =>   CDf =  0.00510    CDp =  0.00263

 Side 1  free  transition at x/c =  0.8430   67
 Side 2  free  transition at x/c =  0.5363   52

  25   rms: 0.1019E-02   max: -.1857E-01   C at   52  2
       a = -2.500      CL =  0.0736
      Cm = -0.0787     CD =  0.00774   =>   CDf =  0.00504    CDp =  0.00271

 Side 1  free  transition at x/c =  0.8430   67
 Side 2  free  transition at x/c =  0.5369   52

  26   rms: 0.3025E-05   max: -.4332E-04   C at   52  2
       a = -2.500      CL =  0.0736
      Cm = -0.0787     CD =  0.00774   =>   CDf =  0.00503    CDp =  0.00271
 plradd ia,ip,cpol            4           0  1.25794054E-03

 Point added to stored polar  1
 Point written to save file  hq2511_Re400k.base.pol                          
 Dump file unspecified or not available
 Calculating wake trajectory ...
 Calculating source influence matrix ...

 Solving BL system ...

 Side 1  free  transition at x/c =  0.8430   67
 Side 2  free  transition at x/c =  0.5369   52

   1   rms: 0.2282E+00   max: -.3606E+01   C at   52  2   RLX: 0.139
       a = -2.000      CL =  0.0807
      Cm = -0.0786     CD =  0.00768   =>   CDf =  0.00503    CDp =  0.00265

 Side 1  free  transition at x/c =  0.8413   67
 Side 2  free  transition at x/c =  0.5629   54

   2   rms: 0.1526E+00   max: -.1937E+01   C at   54  2   RLX: 0.258
       a = -2.000      CL =  0.0924
      Cm = -0.0783     CD =  0.00766   =>   CDf =  0.00502    CDp =  0.00264

 Side 1  free  transition at x/c =  0.8391   67
 Side 2  free  transition at x/c =  0.5871   55

   3   rms: 0.1131E+00   max: -.1057E+01   C at   55  2   RLX: 0.473
       a = -2.000      CL =  0.1082
      Cm = -0.0782     CD =  0.00755   =>   CDf =  0.00500    CDp =  0.00255

 Side 1  free  transition at x/c =  0.8333   67
 Side 2  free  transition at x/c =  0.6003   55

   4   rms: 0.4772E-01   max: -.4076E+00   D at   56  2
       a = -2.000      CL =  0.1293
      Cm = -0.0784     CD =  0.00797   =>   CDf =  0.00512    CDp =  0.00285

 MRCHDU: Convergence failed at  58  side 2    Res =  0.1182E+01
 MRCHDU: Convergence failed at  59  side 2    Res =  0.1322E+01
 MRCHDU: Convergence failed at  60  side 2    Res =  0.1678E+01
 MRCHDU: Convergence failed at  61  side 2    Res =  0.1965E+01
 MRCHDU: Convergence failed at  62  side 2    Res =  0.2153E+01
 MRCHDU: Convergence failed at  63  side 2    Res =  0.2251E+01
 MRCHDU: Convergence failed at  64  side 2    Res =  0.2287E+01
 MRCHDU: Convergence failed at  65  side 2    Res =  0.2286E+01
 MRCHDU: Convergence failed at  66  side 2    Res =  0.2268E+01
 MRCHDU: Convergence failed at  67  side 2    Res =  0.2247E+01
 MRCHDU: Convergence failed at  68  side 2    Res =  0.2228E+01
 MRCHDU: Convergence failed at  69  side 2    Res =  0.2214E+01
 MRCHDU: Convergence failed at  70  side 2    Res =  0.2204E+01
 MRCHDU: Convergence failed at  71  side 2    Res =  0.2194E+01
 MRCHDU: Convergence failed at  72  side 2    Res =  0.1738E+01
 MRCHDU: Convergence failed at  73  side 2    Res =  0.1791E+01
 MRCHDU: Convergence failed at  74  side 2    Res =  0.1823E+01
 MRCHDU: Convergence failed at  75  side 2    Res =  0.1856E+01
 MRCHDU: Convergence failed at  76  side 2    Res =  0.1907E+01
 MRCHDU: Convergence failed at  77  side 2    Res =  0.1982E+01
 MRCHDU: Convergence failed at  78  side 2    Res =  0.2057E+01
 MRCHDU: Convergence failed at  79  side 2    Res =  0.2097E+01
 MRCHDU: Convergence failed at  80  side 2    Res =  0.2078E+01
 MRCHDU: Convergence failed at  81  side 2    Res =  0.2075E+01
 MRCHDU: Convergence failed at  82  side 2    Res =  0.2174E+01
 MRCHDU: Convergence failed at  83  side 2    Res =  0.5746E+01
 Side 1  free  transition at x/c =  0.8291   67
 Side 2 forced transition at x/c =  1.0000   83

   5   rms: 0.3145E+00   max: 0.1875E+01   n at   82  2   RLX: 0.800
       a = -2.000      CL =  0.1130
      Cm = -0.0675     CD =  0.00591   =>   CDf =  0.00432    CDp =  0.00159

 Side 1  free  transition at x/c =  0.8303   67
 Side 2  free  transition at x/c =  0.6636   60

   6   rms: 0.5456E-01   max: 0.5602E+00   C at   60  2   RLX: 0.996
       a = -2.000      CL =  0.1264
      Cm = -0.0778     CD =  0.00753   =>   CDf =  0.00487    CDp =  0.00266

 Side 1  free  transition at x/c =  0.8294   67
 Side 2  free  transition at x/c =  0.6363   58

   7   rms: 0.1921E-01   max: -.2768E+00   D at   62  2
       a = -2.000      CL =  0.1268
      Cm = -0.0779     CD =  0.00762   =>   CDf =  0.00487    CDp =  0.00275

 Side 1  free  transition at x/c =  0.8294   67
 Side 2  free  transition at x/c =  0.6344   58

   8   rms: 0.2187E-02   max: -.4065E-01   D at   62  2
       a = -2.000      CL =  0.1269
      Cm = -0.0779     CD =  0.00764   =>   CDf =  0.00488    CDp =  0.00275

 Side 1  free  transition at x/c =  0.8294   67
 Side 2  free  transition at x/c =  0.6338   58

   9   rms: 0.5129E-04   max: -.1060E-02   D at   62  2
       a = -2.000      CL =  0.1269
      Cm = -0.0779     CD =  0.00764   =>   CDf =  0.00489    CDp =  0.00274
 plradd ia,ip,cpol            5           0  1.20605100E-02

 Point added to stored polar  1
 Point written to save file  hq2511_Re400k.base.pol                          
 Dump file unspecified or not available
 Calculating wake trajectory ...
 Calculating source influence matrix ...

 Solving BL system ...

 Side 1  free  transition at x/c =  0.8294   67
 Side 2  free  transition at x/c =  0.6338   58

   1   rms: 0.1031E+00   max: -.5960E+00   C at   58  2   RLX: 0.839
       a = -1.500      CL =  0.1722
      Cm = -0.0772     CD =  0.00760   =>   CDf =  0.00489    CDp =  0.00271

 Side 1  free  transition at x/c =  0.8215   66
 Side 2  free  transition at x/c =  0.6617   60

   2   rms: 0.4105E-01   max: -.4330E+00   T at   60  2
       a = -1.500      CL =  0.1810
      Cm = -0.0773     CD =  0.00750   =>   CDf =  0.00509    CDp =  0.00241

 Side 1  free  transition at x/c =  0.8170   67
 Side 2  free  transition at x/c =  0.6742   59

   3   rms: 0.2861E-01   max: -.3388E+00   D at   59  2
       a = -1.500      CL =  0.1824
      Cm = -0.0775     CD =  0.00774   =>   CDf =  0.00507    CDp =  0.00267

 Side 1  free  transition at x/c =  0.8176   67
 Side 2  free  transition at x/c =  0.6837   60

   4   rms: 0.1965E-01   max: 0.2842E+00   C at   60  2
       a = -1.500      CL =  0.1818
      Cm = -0.0774     CD =  0.00766   =>   CDf =  0.00485    CDp =  0.00281

 Side 1  free  transition at x/c =  0.8176   67
 Side 2  free  transition at x/c =  0.6784   60

   5   rms: 0.2994E-02   max: -.4526E-01   D at   63  2
       a = -1.500      CL =  0.1817
      Cm = -0.0773     CD =  0.00768   =>   CDf =  0.00491    CDp =  0.00277

 Side 1  free  transition at x/c =  0.8176   67
 Side 2  free  transition at x/c =  0.6776   60

   6   rms: 0.7720E-04   max: -.1244E-02   D at   63  2
       a = -1.500      CL =  0.1817
      Cm = -0.0773     CD =  0.00768   =>   CDf =  0.00492    CDp =  0.00276
 plradd ia,ip,cpol            6           0  1.20605100E-02

 Point added to stored polar  1
 Point written to save file  hq2511_Re400k.base.pol                          
 Dump file unspecified or not available
 Calculating wake trajectory ...
 Calculating source influence matrix ...

 Solving BL system ...

 Side 1  free  transition at x/c =  0.8176   67
 Side 2  free  transition at x/c =  0.6776   60

   1   rms: 0.9388E-01   max: 0.4611E+00   D at   61  2
       a = -1.000      CL =  0.2356
      Cm = -0.0765     CD =  0.00762   =>   CDf =  0.00492    CDp =  0.00270

 Side 1  free  transition at x/c =  0.8023   66
 Side 2  free  transition at x/c =  0.7039   61

   2   rms: 0.2248E-01   max: -.1846E+00   D at   66  1
       a = -1.000      CL =  0.2366
      Cm = -0.0767     CD =  0.00772   =>   CDf =  0.00504    CDp =  0.00268

 Side 1  free  transition at x/c =  0.8046   66
 Side 2  free  transition at x/c =  0.7129   62

   3   rms: 0.8979E-02   max: 0.1008E+00   D at   62  2
       a = -1.000      CL =  0.2360
      Cm = -0.0766     CD =  0.00770   =>   CDf =  0.00492    CDp =  0.00278

 Side 1  free  transition at x/c =  0.8040   66
 Side 2  free  transition at x/c =  0.7106   62

   4   rms: 0.1027E-02   max: -.1164E-01   D at   64  2
       a = -1.000      CL =  0.2360
      Cm = -0.0766     CD =  0.00770   =>   CDf =  0.00494    CDp =  0.00276

 Side 1  free  transition at x/c =  0.8040   66
 Side 2  free  transition at x/c =  0.7103   62

   5   rms: 0.1198E-04   max: -.1982E-03   D at   64  2
       a = -1.000      CL =  0.2360
      Cm = -0.0766     CD =  0.00770   =>   CDf =  0.00495    CDp =  0.00276
 plradd ia,ip,cpol            7           0  0.34256008    

 Point added to stored polar  1
 Point written to save file  hq2511_Re400k.base.pol                          
 Dump file unspecified or not available
 Calculating wake trajectory ...
 Calculating source influence matrix ...

 Solving BL system ...

 Side 1  free  transition at x/c =  0.8040   66
 Side 2  free  transition at x/c =  0.7103   62

   1   rms: 0.9720E-01   max: -.5109E+00   T at   62  2   RLX: 0.979
       a = -0.500      CL =  0.2877
      Cm = -0.0755     CD =  0.00767   =>   CDf =  0.00496    CDp =  0.00271

 Side 1  free  transition at x/c =  0.7892   66
 Side 2  free  transition at x/c =  0.7370   63

   2   rms: 0.2708E-01   max: -.2331E+00   T at   63  2
       a = -0.500      CL =  0.2893
      Cm = -0.0756     CD =  0.00762   =>   CDf =  0.00506    CDp =  0.00256

 Side 1  free  transition at x/c =  0.7899   66
 Side 2  free  transition at x/c =  0.7441   63

   3   rms: 0.7056E-02   max: -.7900E-01   D at   63  2
       a = -0.500      CL =  0.2895
      Cm = -0.0756     CD =  0.00772   =>   CDf =  0.00495    CDp =  0.00277

 Side 1  free  transition at x/c =  0.7896   66
 Side 2  free  transition at x/c =  0.7445   63

   4   rms: 0.2759E-03   max: 0.3822E-02   D at   64  2
       a = -0.500      CL =  0.2895
      Cm = -0.0756     CD =  0.00772   =>   CDf =  0.00494    CDp =  0.00278

 Side 1  free  transition at x/c =  0.7896   66
 Side 2  free  transition at x/c =  0.7444   63

   5   rms: 0.1203E-05   max: -.1018E-04   D at   63  2
       a = -0.500      CL =  0.2895
      Cm = -0.0756     CD =  0.00772   =>   CDf =  0.00494    CDp =  0.00278
 plradd ia,ip,cpol            8           0  0.16954057    

 Point added to stored polar  1
 Point written to save file  hq2511_Re400k.base.pol                          
 Dump file unspecified or not available
 Calculating wake trajectory ...
 Calculating source influence matrix ...

 Solving BL system ...

 Side 1  free  transition at x/c =  0.7896   66
 Side 2  free  transition at x/c =  0.7444   63

   1   rms: 0.8702E-01   max: -.4201E+00   T at   63  2
       a =  0.000      CL =  0.3438
      Cm = -0.0750     CD =  0.00774   =>   CDf =  0.00495    CDp =  0.00280

 Side 1  free  transition at x/c =  0.7741   65
 Side 2  free  transition at x/c =  0.7587   64

   2   rms: 0.2303E-01   max: -.1486E+00   D at   65  1
       a =  0.000      CL =  0.3445
      Cm = -0.0752     CD =  0.00769   =>   CDf =  0.00505    CDp =  0.00264

 Side 1  free  transition at x/c =  0.7761   65
 Side 2  free  transition at x/c =  0.7648   64

   3   rms: 0.2430E-02   max: -.2317E-01   C at   64  2
       a =  0.000      CL =  0.3444
      Cm = -0.0752     CD =  0.00772   =>   CDf =  0.00499    CDp =  0.00273

 Side 1  free  transition at x/c =  0.7756   65
 Side 2  free  transition at x/c =  0.7648   64

   4   rms: 0.2291E-04   max: 0.2911E-03   D at   65  2
       a =  0.000      CL =  0.3444
      Cm = -0.0752     CD =  0.00772   =>   CDf =  0.00499    CDp =  0.00273
 plradd ia,ip,cpol            9           0  0.16954057    

 Point added to stored polar  1
 Point written to save file  hq2511_Re400k.base.pol                          
 Dump file unspecified or not available
 Calculating wake trajectory ...
 Calculating source influence matrix ...

 Solving BL system ...

 Side 1  free  transition at x/c =  0.7756   65
 Side 2  free  transition at x/c =  0.7647   64

   1   rms: 0.8504E-01   max: -.3391E+00   T at   64  2
       a =  0.500      CL =  0.4001
      Cm = -0.0751     CD =  0.00777   =>   CDf =  0.00497    CDp =  0.00280

 MRCHDU: Convergence failed at  65  side 2    Res =  0.3801E+01
 MRCHDU: Convergence failed at  66  side 2    Res =  0.4264E+01
 MRCHDU: Convergence failed at  67  side 2    Res =  0.2467E+01
 MRCHDU: Convergence failed at  68  side 2    Res =  0.4253E+01
 MRCHDU: Convergence failed at  69  side 2    Res =  0.7104E+01
 MRCHDU: Convergence failed at  70  side 2    Res =  0.1262E+02
 MRCHDU: Convergence failed at  71  side 2    Res =  0.1856E+02
 MRCHDU: Convergence failed at  72  side 2    Res =  0.2194E+02
 MRCHDU: Convergence failed at  73  side 2    Res =  0.2085E+02
 MRCHDU: Convergence failed at  74  side 2    Res =  0.1769E+02
 MRCHDU: Convergence failed at  75  side 2    Res =  0.1440E+02
 MRCHDU: Convergence failed at  76  side 2    Res =  0.1133E+02
 MRCHDU: Convergence failed at  77  side 2    Res =  0.8320E+01
 MRCHDU: Convergence failed at  78  side 2    Res =  0.5690E+01
 MRCHDU: Convergence failed at  79  side 2    Res =  0.4862E+01
 MRCHDU: Convergence failed at  80  side 2    Res =  0.5603E+01
 Side 1  free  transition at x/c =  0.7549   65
 Side 2  free  transition at x/c =  0.7875   65

   2   rms: 0.1659E+00   max: -.9521E+00   D at   77  2   RLX: 0.525
       a =  0.500      CL =  0.3784
      Cm = -0.0649     CD =  0.00693   =>   CDf =  0.00443    CDp =  0.00250

 Side 1  free  transition at x/c =  0.7571   65
 Side 2  free  transition at x/c =  0.7894   65

   3   rms: 0.3780E-01   max: -.3577E+00   D at   66  2
       a =  0.500      CL =  0.3980
      Cm = -0.0744     CD =  0.00763   =>   CDf =  0.00512    CDp =  0.00251

 Side 1  free  transition at x/c =  0.7588   65
 Side 2  free  transition at x/c =  0.7822   65

   4   rms: 0.4456E-02   max: 0.5748E-01   D at   67  2
       a =  0.500      CL =  0.3986
      Cm = -0.0745     CD =  0.00767   =>   CDf =  0.00501    CDp =  0.00266

 Side 1  free  transition at x/c =  0.7584   65
 Side 2  free  transition at x/c =  0.7830   65

   5   rms: 0.2579E-03   max: -.4927E-02   D at   67  2
       a =  0.500      CL =  0.3985
      Cm = -0.0745     CD =  0.00767   =>   CDf =  0.00500    CDp =  0.00267

 Side 1  free  transition at x/c =  0.7584   65
 Side 2  free  transition at x/c =  0.7829   65

   6   rms: 0.1706E-05   max: -.2801E-04   D at   67  2
       a =  0.500      CL =  0.3985
      Cm = -0.0745     CD =  0.00767   =>   CDf =  0.00500    CDp =  0.00267
 plradd ia,ip,cpol           10           0  0.16954057    

 Point added to stored polar  1
 Point written to save file  hq2511_Re400k.base.pol                          
 Dump file unspecified or not available
 Calculating wake trajectory ...
 Calculating source influence matrix ...

 Solving BL system ...

 Side 1  free  transition at x/c =  0.7584   65
 Side 2  free  transition at x/c =  0.7829   65

   1   rms: 0.8624E-01   max: -.3520E+00   T at   65  2
       a =  1.000      CL =  0.4518
      Cm = -0.0736     CD =  0.00758   =>   CDf =  0.00496    CDp =  0.00262

 Side 1  free  transition at x/c =  0.7426   65
 Side 2  free  transition at x/c =  0.7941   64

   2   rms: 0.3014E-01   max: -.3739E+00   D at   65  2
       a =  1.000      CL =  0.4545
      Cm = -0.0744     CD =  0.00779   =>   CDf =  0.00513    CDp =  0.00266

 MRCHDU: Convergence failed at  66  side 2    Res =  0.6208E+01
 MRCHDU: Convergence failed at  67  side 2    Res =  0.1432E+01
 MRCHDU: Convergence failed at  68  side 2    Res =  0.1518E+01
 MRCHDU: Convergence failed at  69  side 2    Res =  0.2042E+01
 MRCHDU: Convergence failed at  70  side 2    Res =  0.2487E+01
 MRCHDU: Convergence failed at  71  side 2    Res =  0.2805E+01
 MRCHDU: Convergence failed at  72  side 2    Res =  0.2892E+01
 MRCHDU: Convergence failed at  73  side 2    Res =  0.2881E+01
 MRCHDU: Convergence failed at  74  side 2    Res =  0.2758E+01
 MRCHDU: Convergence failed at  75  side 2    Res =  0.2533E+01
 MRCHDU: Convergence failed at  76  side 2    Res =  0.2233E+01
 MRCHDU: Convergence failed at  77  side 2    Res =  0.1972E+01
 MRCHDU: Convergence failed at  78  side 2    Res =  0.1887E+01
 MRCHDU: Convergence failed at  79  side 2    Res =  0.2351E+01
 Side 1  free  transition at x/c =  0.7416   65
 Side 2  free  transition at x/c =  0.8063   65

   3   rms: 0.9704E-01   max: -.5123E+00   D at   71  2   RLX: 0.976
       a =  1.000      CL =  0.4650
      Cm = -0.0767     CD =  0.00720   =>   CDf =  0.00449    CDp =  0.00271

 Side 1  free  transition at x/c =  0.7416   65
 Side 2  free  transition at x/c =  0.8047   65

   4   rms: 0.1626E-01   max: -.1155E+00   D at   70  2
       a =  1.000      CL =  0.4529
      Cm = -0.0740     CD =  0.00764   =>   CDf =  0.00497    CDp =  0.00268

 Side 1  free  transition at x/c =  0.7417   65
 Side 2  free  transition at x/c =  0.8002   65

   5   rms: 0.1037E-02   max: -.1354E-01   D at   65  2
       a =  1.000      CL =  0.4529
      Cm = -0.0740     CD =  0.00765   =>   CDf =  0.00501    CDp =  0.00265

 Side 1  free  transition at x/c =  0.7417   65
 Side 2  free  transition at x/c =  0.8002   65

   6   rms: 0.2566E-05   max: -.2330E-04   D at   69  2
       a =  1.000      CL =  0.4529
      Cm = -0.0740     CD =  0.00765   =>   CDf =  0.00501    CDp =  0.00265
 plradd ia,ip,cpol           11           0  8.86559114E-02

 Point added to stored polar  1
 Point written to save file  hq2511_Re400k.base.pol                          
 Dump file unspecified or not available
 Calculating wake trajectory ...
 Calculating source influence matrix ...

 Solving BL system ...

 Side 1  free  transition at x/c =  0.7417   65
 Side 2  free  transition at x/c =  0.8002   65

   1   rms: 0.8477E-01   max: -.2886E+00   T at   65  2
       a =  1.500      CL =  0.5071
      Cm = -0.0733     CD =  0.00763   =>   CDf =  0.00501    CDp =  0.00262

 Side 1  free  transition at x/c =  0.7260   64
 Side 2  free  transition at x/c =  0.8142   66

   2   rms: 0.1707E-01   max: -.1737E+00   D at   64  1
       a =  1.500      CL =  0.5073
      Cm = -0.0735     CD =  0.00763   =>   CDf =  0.00504    CDp =  0.00259

 Side 1  free  transition at x/c =  0.7245   64
 Side 2  free  transition at x/c =  0.8174   66

   3   rms: 0.8429E-03   max: -.1002E-01   D at   68  2
       a =  1.500      CL =  0.5073
      Cm = -0.0735     CD =  0.00765   =>   CDf =  0.00501    CDp =  0.00264

 Side 1  free  transition at x/c =  0.7247   64
 Side 2  free  transition at x/c =  0.8171   66

   4   rms: 0.9116E-05   max: -.9525E-04   C at   66  2
       a =  1.500      CL =  0.5073
      Cm = -0.0735     CD =  0.00765   =>   CDf =  0.00501    CDp =  0.00264
 plradd ia,ip,cpol           12           0  7.62357190E-02

 Point added to stored polar  1
 Point written to save file  hq2511_Re400k.base.pol                          
 Dump file unspecified or not available
 Calculating wake trajectory ...
 Calculating source influence matrix ...

 Solving BL system ...

 Side 1  free  transition at x/c =  0.7247   64
 Side 2  free  transition at x/c =  0.8171   66

   1   rms: 0.8482E-01   max: -.2651E+00   T at   66  2
       a =  2.000      CL =  0.5621
      Cm = -0.0730     CD =  0.00771   =>   CDf =  0.00493    CDp =  0.00278

 Side 1  free  transition at x/c =  0.7068   63
 Side 2  free  transition at x/c =  0.8339   66

   2   rms: 0.2079E-01   max: -.2836E+00   D at   64  1
       a =  2.000      CL =  0.5613
      Cm = -0.0729     CD =  0.00763   =>   CDf =  0.00499    CDp =  0.00264

 Side 1  free  transition at x/c =  0.7071   63
 Side 2  free  transition at x/c =  0.8360   66

   3   rms: 0.2176E-02   max: 0.3533E-01   D at   64  1
       a =  2.000      CL =  0.5612
      Cm = -0.0729     CD =  0.00766   =>   CDf =  0.00498    CDp =  0.00268

 Side 1  free  transition at x/c =  0.7063   63
 Side 2  free  transition at x/c =  0.8361   66

   4   rms: 0.1955E-04   max: 0.2603E-03   D at   65  1
       a =  2.000      CL =  0.5612
      Cm = -0.0729     CD =  0.00766   =>   CDf =  0.00498    CDp =  0.00268
 plradd ia,ip,cpol           13           0  6.44524395E-02

 Point added to stored polar  1
 Point written to save file  hq2511_Re400k.base.pol                          
 Dump file unspecified or not available
 Calculating wake trajectory ...
 Calculating source influence matrix ...

 Solving BL system ...

 Side 1  free  transition at x/c =  0.7063   63
 Side 2  free  transition at x/c =  0.8361   66

   1   rms: 0.8406E-01   max: -.2409E+00   T at   66  2
       a =  2.500      CL =  0.6146
      Cm = -0.0724     CD =  0.00761   =>   CDf =  0.00499    CDp =  0.00263

 Side 1  free  transition at x/c =  0.6688   61
 Side 2  free  transition at x/c =  0.8592   68

   2   rms: 0.3184E-01   max: -.4535E+00   D at   62  1
       a =  2.500      CL =  0.6127
      Cm = -0.0717     CD =  0.00765   =>   CDf =  0.00508    CDp =  0.00257

 Side 1  free  transition at x/c =  0.6797   62
 Side 2  free  transition at x/c =  0.8588   68

   3   rms: 0.3040E-02   max: 0.4013E-01   D at   62  1
       a =  2.500      CL =  0.6130
      Cm = -0.0718     CD =  0.00764   =>   CDf =  0.00496    CDp =  0.00268

 Side 1  free  transition at x/c =  0.6785   62
 Side 2  free  transition at x/c =  0.8582   68

   4   rms: 0.2330E-03   max: 0.2708E-02   C at   62  1
       a =  2.500      CL =  0.6130
      Cm = -0.0718     CD =  0.00764   =>   CDf =  0.00496    CDp =  0.00267

 Side 1  free  transition at x/c =  0.6785   61
 Side 2  free  transition at x/c =  0.8582   68

   5   rms: 0.3918E-04   max: 0.7284E-03   D at   62  1
       a =  2.500      CL =  0.6130
      Cm = -0.0718     CD =  0.00763   =>   CDf =  0.00497    CDp =  0.00267
 plradd ia,ip,cpol           14           0  5.34440912E-02

 Point added to stored polar  1
 Point written to save file  hq2511_Re400k.base.pol                          
 Dump file unspecified or not available
 Calculating wake trajectory ...
 Calculating source influence matrix ...

 Solving BL system ...

 Side 1  free  transition at x/c =  0.6785   61
 Side 2  free  transition at x/c =  0.8582   68

   1   rms: 0.9053E-01   max: -.4628E+00   C at   68  2
       a =  3.000      CL =  0.6630
      Cm = -0.0705     CD =  0.00744   =>   CDf =  0.00484    CDp =  0.00260

 Side 1  free  transition at x/c =  0.6380   60
 Side 2  free  transition at x/c =  0.8810   68

   2   rms: 0.3748E-01   max: -.4325E+00   D at   61  1
       a =  3.000      CL =  0.6632
      Cm = -0.0704     CD =  0.00759   =>   CDf =  0.00505    CDp =  0.00254

 Side 1  free  transition at x/c =  0.6490   60
 Side 2  free  transition at x/c =  0.8920   69

   3   rms: 0.5370E-02   max: -.7333E-01   D at   68  2
       a =  3.000      CL =  0.6627
      Cm = -0.0702     CD =  0.00760   =>   CDf =  0.00486    CDp =  0.00274

 Side 1  free  transition at x/c =  0.6463   60
 Side 2  free  transition at x/c =  0.8906   69

   4   rms: 0.7315E-03   max: 0.1199E-01   C at   69  2
       a =  3.000      CL =  0.6627
      Cm = -0.0702     CD =  0.00760   =>   CDf =  0.00488    CDp =  0.00273

 Side 1  free  transition at x/c =  0.6464   60
 Side 2  free  transition at x/c =  0.8903   69

   5   rms: 0.2295E-05   max: -.3015E-04   D at   72  2
       a =  3.000      CL =  0.6627
      Cm = -0.0702     CD =  0.00760   =>   CDf =  0.00488    CDp =  0.00272
 plradd ia,ip,cpol           15           0  5.34440912E-02

 Point added to stored polar  1
 Point written to save file  hq2511_Re400k.base.pol                          
 Dump file unspecified or not available
 Calculating wake trajectory ...
 Calculating source influence matrix ...

 Solving BL system ...

 Side 1  free  transition at x/c =  0.6464   60
 Side 2  free  transition at x/c =  0.8902   69

   1   rms: 0.9474E-01   max: -.9243E+00   C at   69  2   RLX: 0.541
       a =  3.500      CL =  0.6890
      Cm = -0.0693     CD =  0.00753   =>   CDf =  0.00488    CDp =  0.00265

 Side 1  free  transition at x/c =  0.6243   59
 Side 2  free  transition at x/c =  0.9112   70

   2   rms: 0.4438E-01   max: -.3382E+00   C at   70  2
       a =  3.500      CL =  0.7115
      Cm = -0.0686     CD =  0.00762   =>   CDf =  0.00492    CDp =  0.00269

 Side 1  free  transition at x/c =  0.6068   58
 Side 2  free  transition at x/c =  0.9920   76

   3   rms: 0.8553E-01   max: 0.1593E+01   C at   76  2   RLX: 0.941
       a =  3.500      CL =  0.7256
      Cm = -0.0716     CD =  0.00758   =>   CDf =  0.00470    CDp =  0.00288

 Side 1  free  transition at x/c =  0.6059   59
 Side 2  free  transition at x/c =  0.9594   73

   4   rms: 0.2426E-01   max: -.3265E+00   D at    2  1
       a =  3.500      CL =  0.7219
      Cm = -0.0707     CD =  0.00759   =>   CDf =  0.00481    CDp =  0.00278

 Side 1  free  transition at x/c =  0.6066   59
 Side 2  free  transition at x/c =  0.9677   73

   5   rms: 0.4848E-02   max: 0.5160E-01   C at   73  2
       a =  3.500      CL =  0.7223
      Cm = -0.0708     CD =  0.00759   =>   CDf =  0.00480    CDp =  0.00279

 Side 1  free  transition at x/c =  0.6066   59
 Side 2  free  transition at x/c =  0.9664   73

   6   rms: 0.6542E-04   max: 0.7436E-03   D at    8  1
       a =  3.500      CL =  0.7223
      Cm = -0.0708     CD =  0.00759   =>   CDf =  0.00480    CDp =  0.00279
 plradd ia,ip,cpol           16           0  5.34440912E-02

 Point added to stored polar  1
 Point written to save file  hq2511_Re400k.base.pol                          
 Dump file unspecified or not available
 Calculating wake trajectory ...
 Calculating source influence matrix ...

 Solving BL system ...

 Side 1  free  transition at x/c =  0.6066   59
 Side 2  free  transition at x/c =  0.9664   73

   1   rms: 0.2971E+00   max: -.4390E+01   C at   73  2   RLX: 0.114
       a =  4.000      CL =  0.7324
      Cm = -0.0716     CD =  0.00762   =>   CDf =  0.00480    CDp =  0.00281

 Side 1  free  transition at x/c =  0.6008   58
 Side 2  free  transition at x/c =  0.9810   74

   2   rms: 0.4836E+00   max: -.7933E+01   C at   74  2   RLX: 0.063
       a =  4.000      CL =  0.7378
      Cm = -0.0722     CD =  0.00762   =>   CDf =  0.00480    CDp =  0.00281

 Side 1  free  transition at x/c =  0.5970   58
 Side 2  free  transition at x/c =  0.9935   75

   3   rms: 0.8725E+00   max: -.1670E+02   C at   75  2   RLX: 0.030
       a =  4.000      CL =  0.7398
      Cm = -0.0724     CD =  0.00763   =>   CDf =  0.00481    CDp =  0.00283

 Side 1  free  transition at x/c =  0.5955   58
 Side 2 forced transition at x/c =  1.0000   76

   4   rms: 0.8774E-01   max: 0.6396E+00   C at   58  1
       a =  4.000      CL =  0.7807
      Cm = -0.0719     CD =  0.00793   =>   CDf =  0.00481    CDp =  0.00312

 Side 1  free  transition at x/c =  0.5451   54
 Side 2 forced transition at x/c =  1.0000   76

   5   rms: 0.1948E-01   max: 0.2394E+00   D at   57  1
       a =  4.000      CL =  0.7794
      Cm = -0.0715     CD =  0.00794   =>   CDf =  0.00506    CDp =  0.00289

 Side 1  free  transition at x/c =  0.5508   55
 Side 2 forced transition at x/c =  1.0000   76

   6   rms: 0.3540E-02   max: -.5328E-01   D at   57  1
       a =  4.000      CL =  0.7795
      Cm = -0.0715     CD =  0.00795   =>   CDf =  0.00498    CDp =  0.00297

 Side 1  free  transition at x/c =  0.5491   55
 Side 2 forced transition at x/c =  1.0000   76

   7   rms: 0.9352E-04   max: -.2036E-02   D at   57  1
       a =  4.000      CL =  0.7795
      Cm = -0.0715     CD =  0.00795   =>   CDf =  0.00499    CDp =  0.00296
 plradd ia,ip,cpol           17           0  4.33754362E-02

 Point added to stored polar  1
 Point written to save file  hq2511_Re400k.base.pol                          
 Dump file unspecified or not available
 Calculating wake trajectory ...
 Calculating source influence matrix ...

 Solving BL system ...

 Side 1  free  transition at x/c =  0.5491   55
 Side 2 forced transition at x/c =  1.0000   76

   1   rms: 0.1195E+00   max: 0.1429E+01   C at   55  1   RLX: 0.829
       a =  4.500      CL =  0.8195
      Cm = -0.0705     CD =  0.00846   =>   CDf =  0.00484    CDp =  0.00362

 Side 1  free  transition at x/c =  0.4800   51
 Side 2 forced transition at x/c =  1.0000   75

   2   rms: 0.2388E-01   max: 0.1680E+00   D at   55  1
       a =  4.500      CL =  0.8274
      Cm = -0.0703     CD =  0.00861   =>   CDf =  0.00535    CDp =  0.00326

 Side 1  free  transition at x/c =  0.4741   50
 Side 2 forced transition at x/c =  1.0000   75

   3   rms: 0.1350E-02   max: -.1021E-01   D at    4  1
       a =  4.500      CL =  0.8270
      Cm = -0.0702     CD =  0.00865   =>   CDf =  0.00534    CDp =  0.00331

 Side 1  free  transition at x/c =  0.4741   50
 Side 2 forced transition at x/c =  1.0000   75

   4   rms: 0.4095E-05   max: 0.6494E-04   C at   50  1
       a =  4.500      CL =  0.8270
      Cm = -0.0702     CD =  0.00865   =>   CDf =  0.00534    CDp =  0.00331
 plradd ia,ip,cpol           18           0  4.33754362E-02

 Point added to stored polar  1
 Point written to save file  hq2511_Re400k.base.pol                          
 Dump file unspecified or not available
 Calculating wake trajectory ...
 Calculating source influence matrix ...

 Solving BL system ...

 Side 1  free  transition at x/c =  0.4741   50
 Side 2 forced transition at x/c =  1.0000   75

   1   rms: 0.1102E+00   max: 0.1379E+01   C at   50  1
       a =  5.000      CL =  0.8767
      Cm = -0.0694     CD =  0.00927   =>   CDf =  0.00534    CDp =  0.00393

 Side 1  free  transition at x/c =  0.4083   46
 Side 2 forced transition at x/c =  1.0000   75

   2   rms: 0.2072E-01   max: -.2231E+00   C at   46  1
       a =  5.000      CL =  0.8743
      Cm = -0.0690     CD =  0.00941   =>   CDf =  0.00566    CDp =  0.00375

 Side 1  free  transition at x/c =  0.4145   46
 Side 2 forced transition at x/c =  1.0000   75

   3   rms: 0.2323E-02   max: 0.3224E-01   C at   46  1
       a =  5.000      CL =  0.8743
      Cm = -0.0690     CD =  0.00942   =>   CDf =  0.00559    CDp =  0.00383

 Side 1  free  transition at x/c =  0.4131   46
 Side 2 forced transition at x/c =  1.0000   75

   4   rms: 0.3555E-04   max: -.4691E-03   C at   46  1
       a =  5.000      CL =  0.8743
      Cm = -0.0690     CD =  0.00942   =>   CDf =  0.00560    CDp =  0.00383
 plradd ia,ip,cpol           19           0  1.85321679E-03

 Point added to stored polar  1
 Point written to save file  hq2511_Re400k.base.pol                          
 Dump file unspecified or not available
 Calculating wake trajectory ...
 Calculating source influence matrix ...

 Solving BL system ...

 Side 1  free  transition at x/c =  0.4131   46
 Side 2 forced transition at x/c =  1.0000   75

   1   rms: 0.9671E-01   max: 0.9136E+00   C at   46  1
       a =  5.500      CL =  0.9251
      Cm = -0.0684     CD =  0.00996   =>   CDf =  0.00541    CDp =  0.00456

 Side 1  free  transition at x/c =  0.3306   42
 Side 2 forced transition at x/c =  1.0000   74

   2   rms: 0.2472E-01   max: -.3023E+00   C at   42  1
       a =  5.500      CL =  0.9208
      Cm = -0.0677     CD =  0.01023   =>   CDf =  0.00595    CDp =  0.00428

 Side 1  free  transition at x/c =  0.3389   42
 Side 2 forced transition at x/c =  1.0000   74

   3   rms: 0.3811E-02   max: 0.6918E-01   C at   42  1
       a =  5.500      CL =  0.9203
      Cm = -0.0676     CD =  0.01027   =>   CDf =  0.00586    CDp =  0.00441

 Side 1  free  transition at x/c =  0.3372   42
 Side 2 forced transition at x/c =  1.0000   74

   4   rms: 0.4012E-04   max: -.5819E-03   D at   44  1
       a =  5.500      CL =  0.9203
      Cm = -0.0676     CD =  0.01027   =>   CDf =  0.00587    CDp =  0.00440
 plradd ia,ip,cpol           20           0  1.85321679E-03

 Point added to stored polar  1
 Point written to save file  hq2511_Re400k.base.pol                          
 Dump file unspecified or not available
 Calculating wake trajectory ...
 Calculating source influence matrix ...

 Solving BL system ...

 Side 1  free  transition at x/c =  0.3372   42
 Side 2 forced transition at x/c =  1.0000   74

   1   rms: 0.1470E+00   max: 0.2421E+01   C at   42  1   RLX: 0.620
       a =  6.000      CL =  0.9477
      Cm = -0.0666     CD =  0.01091   =>   CDf =  0.00587    CDp =  0.00504

 Side 1  free  transition at x/c =  0.2892   39
 Side 2 forced transition at x/c =  1.0000   74

   2   rms: 0.3685E-01   max: -.3162E+00   D at   39  1
       a =  6.000      CL =  0.9633
      Cm = -0.0659     CD =  0.01139   =>   CDf =  0.00616    CDp =  0.00523

 Side 1  free  transition at x/c =  0.2690   37
 Side 2 forced transition at x/c =  1.0000   74

   3   rms: 0.5552E-02   max: -.9125E-01   C at   37  1
       a =  6.000      CL =  0.9627
      Cm = -0.0658     CD =  0.01142   =>   CDf =  0.00625    CDp =  0.00516

 Side 1  free  transition at x/c =  0.2701   38
 Side 2 forced transition at x/c =  1.0000   74

   4   rms: 0.5020E-02   max: -.6913E-01   C at   38  1
       a =  6.000      CL =  0.9631
      Cm = -0.0658     CD =  0.01139   =>   CDf =  0.00625    CDp =  0.00514

 Side 1  free  transition at x/c =  0.2708   38
 Side 2 forced transition at x/c =  1.0000   74

   5   rms: 0.3987E-03   max: 0.6108E-02   C at   38  1
       a =  6.000      CL =  0.9630
      Cm = -0.0658     CD =  0.01139   =>   CDf =  0.00622    CDp =  0.00517

 Side 1  free  transition at x/c =  0.2707   38
 Side 2 forced transition at x/c =  1.0000   74

   6   rms: 0.5292E-05   max: 0.5799E-04   C at   38  1
       a =  6.000      CL =  0.9630
      Cm = -0.0658     CD =  0.01139   =>   CDf =  0.00623    CDp =  0.00517
 plradd ia,ip,cpol           21           0  1.85321679E-03

 Point added to stored polar  1
 Point written to save file  hq2511_Re400k.base.pol                          
 Dump file unspecified or not available
 Calculating wake trajectory ...
 Calculating source influence matrix ...

 Solving BL system ...

 Side 1  free  transition at x/c =  0.2707   38
 Side 2 forced transition at x/c =  1.0000   74

   1   rms: 0.1325E+00   max: 0.1442E+01   C at   38  1   RLX: 0.564
       a =  6.500      CL =  0.9854
      Cm = -0.0646     CD =  0.01221   =>   CDf =  0.00600    CDp =  0.00621

 Side 1  free  transition at x/c =  0.2384   36
 Side 2 forced transition at x/c =  1.0000   73

   2   rms: 0.4452E-01   max: -.2510E+00   D at   36  1
       a =  6.500      CL =  1.0102
      Cm = -0.0647     CD =  0.01218   =>   CDf =  0.00636    CDp =  0.00582

 Side 1  free  transition at x/c =  0.2110   34
 Side 2 forced transition at x/c =  1.0000   73

   3   rms: 0.8226E-02   max: -.1442E+00   C at   34  1
       a =  6.500      CL =  1.0072
      Cm = -0.0643     CD =  0.01240   =>   CDf =  0.00649    CDp =  0.00591

 Side 1  free  transition at x/c =  0.2140   35
 Side 2 forced transition at x/c =  1.0000   73

   4   rms: 0.3935E-02   max: -.5938E-01   C at   35  1
       a =  6.500      CL =  1.0077
      Cm = -0.0643     CD =  0.01235   =>   CDf =  0.00646    CDp =  0.00589

 Side 1  free  transition at x/c =  0.2145   35
 Side 2 forced transition at x/c =  1.0000   73

   5   rms: 0.2629E-03   max: 0.4448E-02   C at   35  1
       a =  6.500      CL =  1.0077
      Cm = -0.0643     CD =  0.01236   =>   CDf =  0.00644    CDp =  0.00591

 Side 1  free  transition at x/c =  0.2144   35
 Side 2 forced transition at x/c =  1.0000   73

   6   rms: 0.2126E-05   max: 0.7708E-05   D at   85  1
       a =  6.500      CL =  1.0077
      Cm = -0.0643     CD =  0.01236   =>   CDf =  0.00644    CDp =  0.00591
 plradd ia,ip,cpol           22           0  1.85321679E-03

 Point added to stored polar  1
 Point written to save file  hq2511_Re400k.base.pol                          
 Dump file unspecified or not available
 Calculating wake trajectory ...
 Calculating source influence matrix ...

 Solving BL system ...

 Side 1  free  transition at x/c =  0.2144   35
 Side 2 forced transition at x/c =  1.0000   73

   1   rms: 0.1260E+00   max: 0.1504E+01   C at   35  1   RLX: 0.588
       a =  7.000      CL =  1.0318
      Cm = -0.0632     CD =  0.01312   =>   CDf =  0.00645    CDp =  0.00668

 Side 1  free  transition at x/c =  0.1818   32
 Side 2 forced transition at x/c =  1.0000   73

   2   rms: 0.3946E-01   max: -.2280E+00   D at   32  1
       a =  7.000      CL =  1.0530
      Cm = -0.0630     CD =  0.01325   =>   CDf =  0.00662    CDp =  0.00664

 Side 1  free  transition at x/c =  0.1631   31
 Side 2 forced transition at x/c =  1.0000   73

   3   rms: 0.6603E-02   max: -.1082E+00   C at   31  1
       a =  7.000      CL =  1.0511
      Cm = -0.0627     CD =  0.01338   =>   CDf =  0.00667    CDp =  0.00671

 Side 1  free  transition at x/c =  0.1651   31
 Side 2 forced transition at x/c =  1.0000   73

   4   rms: 0.1499E-03   max: -.2623E-02   D at   33  1
       a =  7.000      CL =  1.0511
      Cm = -0.0627     CD =  0.01339   =>   CDf =  0.00666    CDp =  0.00673

 Side 1  free  transition at x/c =  0.1651   31
 Side 2 forced transition at x/c =  1.0000   73

   5   rms: 0.6112E-06   max: -.5650E-05   C at   73  2
       a =  7.000      CL =  1.0511
      Cm = -0.0627     CD =  0.01339   =>   CDf =  0.00666    CDp =  0.00673
 plradd ia,ip,cpol           23           0  8.77499522E-04

 Point added to stored polar  1
 Point written to save file  hq2511_Re400k.base.pol                          
 Dump file unspecified or not available
 Calculating wake trajectory ...
 Calculating source influence matrix ...

 Solving BL system ...

 Side 1  free  transition at x/c =  0.1651   31
 Side 2 forced transition at x/c =  1.0000   73

   1   rms: 0.9881E-01   max: 0.1147E+01   C at   31  1
       a =  7.500      CL =  1.0961
      Cm = -0.0613     CD =  0.01433   =>   CDf =  0.00640    CDp =  0.00793

 Side 1  free  transition at x/c =  0.1282   29
 Side 2 forced transition at x/c =  1.0000   72

   2   rms: 0.1916E-01   max: -.1486E+00   D at   32  1
       a =  7.500      CL =  1.0931
      Cm = -0.0609     CD =  0.01448   =>   CDf =  0.00685    CDp =  0.00763

 Side 1  free  transition at x/c =  0.1308   30
 Side 2 forced transition at x/c =  1.0000   72

   3   rms: 0.3944E-02   max: -.5769E-01   D at   29  1
       a =  7.500      CL =  1.0938
      Cm = -0.0610     CD =  0.01442   =>   CDf =  0.00680    CDp =  0.00762

 Side 1  free  transition at x/c =  0.1310   30
 Side 2 forced transition at x/c =  1.0000   72

   4   rms: 0.3641E-03   max: 0.5207E-02   C at   30  1
       a =  7.500      CL =  1.0938
      Cm = -0.0610     CD =  0.01442   =>   CDf =  0.00678    CDp =  0.00764

 Side 1  free  transition at x/c =  0.1309   30
 Side 2 forced transition at x/c =  1.0000   72

   5   rms: 0.3833E-05   max: 0.1419E-04   D at   29  1
       a =  7.500      CL =  1.0938
      Cm = -0.0610     CD =  0.01442   =>   CDf =  0.00678    CDp =  0.00764
 plradd ia,ip,cpol           24           0  8.77499522E-04

 Point added to stored polar  1
 Point written to save file  hq2511_Re400k.base.pol                          
 Dump file unspecified or not available
 Calculating wake trajectory ...
 Calculating source influence matrix ...

 Solving BL system ...

 Side 1  free  transition at x/c =  0.1309   30
 Side 2 forced transition at x/c =  1.0000   72

   1   rms: 0.1148E+00   max: -.9392E+00   D at   30  1   RLX: 0.532
       a =  8.000      CL =  1.1143
      Cm = -0.0598     CD =  0.01519   =>   CDf =  0.00678    CDp =  0.00841

 Side 1  free  transition at x/c =  0.1125   28
 Side 2 forced transition at x/c =  1.0000   72

   2   rms: 0.4937E-01   max: -.3679E+00   D at   28  1
       a =  8.000      CL =  1.1371
      Cm = -0.0593     CD =  0.01540   =>   CDf =  0.00687    CDp =  0.00853

 Side 1  free  transition at x/c =  0.0885   26
 Side 2 forced transition at x/c =  1.0000   72

   3   rms: 0.1724E-01   max: -.2639E+00   C at   26  1
       a =  8.000      CL =  1.1336
      Cm = -0.0589     CD =  0.01565   =>   CDf =  0.00701    CDp =  0.00865

 Side 1  free  transition at x/c =  0.0827   26
 Side 2 forced transition at x/c =  1.0000   72

   4   rms: 0.3542E-02   max: 0.5172E-01   C at   26  1
       a =  8.000      CL =  1.1329
      Cm = -0.0588     CD =  0.01572   =>   CDf =  0.00702    CDp =  0.00870

 Side 1  free  transition at x/c =  0.0805   26
 Side 2 forced transition at x/c =  1.0000   72

   5   rms: 0.2622E-03   max: -.4766E-02   C at   26  1
       a =  8.000      CL =  1.1328
      Cm = -0.0588     CD =  0.01572   =>   CDf =  0.00704    CDp =  0.00868

 Side 1  free  transition at x/c =  0.0806   26
 Side 2 forced transition at x/c =  1.0000   72

   6   rms: 0.2129E-05   max: 0.1957E-04   C at   26  1
       a =  8.000      CL =  1.1328
      Cm = -0.0588     CD =  0.01572   =>   CDf =  0.00704    CDp =  0.00868
 plradd ia,ip,cpol           25           0  2.47533899E-04

 Point added to stored polar  1
 Point written to save file  hq2511_Re400k.base.pol                          
 Dump file unspecified or not available
 Calculating wake trajectory ...
 Calculating source influence matrix ...

 Solving BL system ...

 Side 1  free  transition at x/c =  0.0806   26
 Side 2 forced transition at x/c =  1.0000   72

   1   rms: 0.2292E+00   max: 0.3582E+01   C at   26  1   RLX: 0.237
       a =  8.500      CL =  1.1391
      Cm = -0.0579     CD =  0.01633   =>   CDf =  0.00704    CDp =  0.00929

 Side 1  free  transition at x/c =  0.0462   23
 Side 2 forced transition at x/c =  1.0000   72

   2   rms: 0.3436E+00   max: 0.7479E+01   C at   23  1   RLX: 0.201
       a =  8.500      CL =  1.1388
      Cm = -0.0568     CD =  0.01717   =>   CDf =  0.00732    CDp =  0.00986

 Side 1  free  transition at x/c =  0.0334   21
 Side 2 forced transition at x/c =  1.0000   72

   3   rms: 0.1733E+00   max: 0.3975E+01   C at   21  1   RLX: 0.377
       a =  8.500      CL =  1.1448
      Cm = -0.0557     CD =  0.01760   =>   CDf =  0.00745    CDp =  0.01014

 Side 1  free  transition at x/c =  0.0275   21
 Side 2 forced transition at x/c =  1.0000   72

   4   rms: 0.4710E-01   max: 0.3902E+00   C at   21  1
       a =  8.500      CL =  1.1562
      Cm = -0.0541     CD =  0.01842   =>   CDf =  0.00717    CDp =  0.01124

 Side 1  free  transition at x/c =  0.0240   21
 Side 2 forced transition at x/c =  1.0000   71

   5   rms: 0.3242E-01   max: -.4051E+00   D at   21  1
       a =  8.500      CL =  1.1587
      Cm = -0.0545     CD =  0.01804   =>   CDf =  0.00735    CDp =  0.01070

 Side 1  free  transition at x/c =  0.0248   21
 Side 2 forced transition at x/c =  1.0000   71

   6   rms: 0.3896E-02   max: 0.5578E-01   D at   21  1
       a =  8.500      CL =  1.1578
      Cm = -0.0544     CD =  0.01816   =>   CDf =  0.00742    CDp =  0.01074

 Side 1  free  transition at x/c =  0.0247   21
 Side 2 forced transition at x/c =  1.0000   71

   7   rms: 0.7860E-04   max: 0.1063E-02   D at   21  1
       a =  8.500      CL =  1.1578
      Cm = -0.0544     CD =  0.01816   =>   CDf =  0.00742    CDp =  0.01074
 plradd ia,ip,cpol           26           0  2.47533899E-04

 Point added to stored polar  1
 Point written to save file  hq2511_Re400k.base.pol                          
 Dump file unspecified or not available
 Calculating wake trajectory ...
 Calculating source influence matrix ...

 Solving BL system ...

 Side 1  free  transition at x/c =  0.0247   21
 Side 2 forced transition at x/c =  1.0000   71

   1   rms: 0.8522E-01   max: 0.4129E+00   T at   21  1
       a =  9.000      CL =  1.1935
      Cm = -0.0514     CD =  0.01973   =>   CDf =  0.00742    CDp =  0.01230

 Side 1  free  transition at x/c =  0.0204   21
 Side 2 forced transition at x/c =  1.0000   71

   2   rms: 0.1141E-01   max: -.8320E-01   D at   21  1
       a =  9.000      CL =  1.1865
      Cm = -0.0505     CD =  0.02002   =>   CDf =  0.00724    CDp =  0.01278

 Side 1  free  transition at x/c =  0.0205   21
 Side 2 forced transition at x/c =  1.0000   71

   3   rms: 0.8577E-03   max: -.3611E-02   C at   71  2
       a =  9.000      CL =  1.1858
      Cm = -0.0503     CD =  0.02002   =>   CDf =  0.00726    CDp =  0.01276

 Side 1  free  transition at x/c =  0.0205   21
 Side 2 forced transition at x/c =  1.0000   71

   4   rms: 0.1067E-04   max: -.7619E-04   D at   73  2
       a =  9.000      CL =  1.1858
      Cm = -0.0503     CD =  0.02003   =>   CDf =  0.00726    CDp =  0.01276
 plradd ia,ip,cpol           27           0  2.47533899E-04

 Point added to stored polar  1
 Point written to save file  hq2511_Re400k.base.pol                          
 Dump file unspecified or not available
 Calculating wake trajectory ...
 Calculating source influence matrix ...

 Solving BL system ...

 Side 1  free  transition at x/c =  0.0205   21
 Side 2 forced transition at x/c =  1.0000   71

   1   rms: 0.9861E-01   max: 0.3111E+00   T at   21  1
       a =  9.500      CL =  1.2013
      Cm = -0.0443     CD =  0.02266   =>   CDf =  0.00727    CDp =  0.01539

 Side 1  free  transition at x/c =  0.0184   20
 Side 2 forced transition at x/c =  1.0000   71

   2   rms: 0.4663E-01   max: -.4107E+00   D at   20  1
       a =  9.500      CL =  1.2032
      Cm = -0.0447     CD =  0.02190   =>   CDf =  0.00698    CDp =  0.01492

 Side 1  free  transition at x/c =  0.0186   20
 Side 2 forced transition at x/c =  1.0000   71

   3   rms: 0.7514E-02   max: 0.4681E-01   D at   21  1
       a =  9.500      CL =  1.2079
      Cm = -0.0454     CD =  0.02187   =>   CDf =  0.00709    CDp =  0.01479

 Side 1  free  transition at x/c =  0.0185   20
 Side 2 forced transition at x/c =  1.0000   71

   4   rms: 0.2705E-03   max: 0.2621E-02   D at   87  1
       a =  9.500      CL =  1.2077
      Cm = -0.0454     CD =  0.02187   =>   CDf =  0.00707    CDp =  0.01480

 Side 1  free  transition at x/c =  0.0185   20
 Side 2 forced transition at x/c =  1.0000   71

   5   rms: 0.2001E-05   max: -.1243E-04   C at   71  2
       a =  9.500      CL =  1.2077
      Cm = -0.0454     CD =  0.02187   =>   CDf =  0.00707    CDp =  0.01480
 plradd ia,ip,cpol           28           0  2.47533899E-04

 Point added to stored polar  1
 Point written to save file  hq2511_Re400k.base.pol                          
 Dump file unspecified or not available
 Calculating wake trajectory ...
 Calculating source influence matrix ...

 Solving BL system ...

 Side 1  free  transition at x/c =  0.0185   20
 Side 2 forced transition at x/c =  1.0000   71

   1   rms: 0.7464E-01   max: 0.2442E+00   T at   20  1
       a = 10.000      CL =  1.2303
      Cm = -0.0408     CD =  0.02386   =>   CDf =  0.00668    CDp =  0.01718

 Side 1  free  transition at x/c =  0.0171   21
 Side 2 forced transition at x/c =  1.0000   70
 idif Ue xi dudx           1  0.13504744      6.74200058E-03   20.030766    
 Uenew xinew           2  3.43850872E-04  1.71661377E-05

   2   rms: 0.1573E-01   max: -.2427E+00   T at    2  1
       a = 10.000      CL =  1.2260
      Cm = -0.0405     CD =  0.02399   =>   CDf =  0.00725    CDp =  0.01675

 Side 1  free  transition at x/c =  0.0172   20
 Side 2 forced transition at x/c =  1.0000   71

   3   rms: 0.3866E-02   max: 0.6619E-01   D at    2  2
       a = 10.000      CL =  1.2261
      Cm = -0.0405     CD =  0.02399   =>   CDf =  0.00690    CDp =  0.01710

 Side 1  free  transition at x/c =  0.0172   20
 Side 2 forced transition at x/c =  1.0000   71

   4   rms: 0.8193E-03   max: 0.9340E-02   D at    4  2
       a = 10.000      CL =  1.2261
      Cm = -0.0405     CD =  0.02399   =>   CDf =  0.00690    CDp =  0.01710

 Side 1  free  transition at x/c =  0.0172   20
 Side 2 forced transition at x/c =  1.0000   71

   5   rms: 0.1965E-03   max: -.2701E-02   D at    2  2
       a = 10.000      CL =  1.2261
      Cm = -0.0405     CD =  0.02399   =>   CDf =  0.00690    CDp =  0.01710

 Side 1  free  transition at x/c =  0.0172   20
 Side 2 forced transition at x/c =  1.0000   71

   6   rms: 0.6676E-05   max: -.7943E-04   D at    2  2
       a = 10.000      CL =  1.2261
      Cm = -0.0405     CD =  0.02399   =>   CDf =  0.00690    CDp =  0.01710
 plradd ia,ip,cpol           29           0 -5.18684901E-05

 Point added to stored polar  1
 Point written to save file  hq2511_Re400k.base.pol                          
 Dump file unspecified or not available

.OPERva   c>  
 Solving BL system ...

 Side 1  free  transition at x/c =  0.0172   20
 Side 2 forced transition at x/c =  1.0000   71

   1   rms: 0.2500E-04   max: -.3511E-03   D at    3  2
       a = 10.000      CL =  1.2261
      Cm = -0.0405     CD =  0.02399   =>   CDf =  0.00690    CDp =  0.01710
 plradd ia,ip,cpol           30         182 -5.18684901E-05

 Point added to stored polar  1
 Point written to save file  hq2511_Re400k.base.pol                          
 Dump file unspecified or not available
 Calculating wake trajectory ...
 Calculating source influence matrix ...

 Solving BL system ...

 Side 1  free  transition at x/c =  0.0172   20
 Side 2 forced transition at x/c =  1.0000   71

   1   rms: 0.1098E+00   max: -.1691E+01   D at    3  2   RLX: 0.296
       a = 10.250      CL =  1.2286
      Cm = -0.0398     CD =  0.02436   =>   CDf =  0.00648    CDp =  0.01788

 Side 1  free  transition at x/c =  0.0170   21
 Side 2 forced transition at x/c =  1.0000   70

   2   rms: 0.3594E-01   max: 0.3976E+00   T at    2  1
       a = 10.250      CL =  1.2343
      Cm = -0.0382     CD =  0.02526   =>   CDf =  0.00686    CDp =  0.01840

 Side 1  free  transition at x/c =  0.0165   21
 Side 2 forced transition at x/c =  1.0000   70

   3   rms: 0.1810E-02   max: 0.1019E-01   D at    4  1
       a = 10.250      CL =  1.2333
      Cm = -0.0381     CD =  0.02524   =>   CDf =  0.00680    CDp =  0.01844

 Side 1  free  transition at x/c =  0.0165   21
 Side 2 forced transition at x/c =  1.0000   70

   4   rms: 0.4037E-04   max: -.1910E-03   D at   86  1
       a = 10.250      CL =  1.2334
      Cm = -0.0381     CD =  0.02524   =>   CDf =  0.00680    CDp =  0.01844
 plradd ia,ip,cpol           31           0 -5.18684901E-05

 Point added to stored polar  1
 Point written to save file  hq2511_Re400k.base.pol                          
 Dump file unspecified or not available
 Calculating wake trajectory ...
 Calculating source influence matrix ...

 Solving BL system ...

 Side 1  free  transition at x/c =  0.0165   21
 Side 2 forced transition at x/c =  1.0000   70

   1   rms: 0.3779E-01   max: 0.9732E-01   T at   21  1
       a = 10.500      CL =  1.2414
      Cm = -0.0359     CD =  0.02660   =>   CDf =  0.00680    CDp =  0.01980

 Side 1  free  transition at x/c =  0.0161   21
 Side 2 forced transition at x/c =  1.0000   70

[...]

 Side 1  free  transition at x/c =  0.0127   21
 Side 2 forced transition at x/c =  1.0000   69

   4   rms: 0.1484E-04   max: -.4469E-04   D at   70  1
       a = 12.750      CL =  1.2880
      Cm = -0.0212     CD =  0.04397   =>   CDf =  0.00566    CDp =  0.03831
 plradd ia,ip,cpol           41           0 -5.18684901E-05

 Point added to stored polar  1
 Point written to save file  hq2511_Re400k.base.pol                          
 Dump file unspecified or not available
 Calculating wake trajectory ...
 Calculating source influence matrix ...

 Solving BL system ...

 Side 1  free  transition at x/c =  0.0127   21
 Side 2 forced transition at x/c =  1.0000   69

   1   rms: 0.3473E-01   max: 0.8862E-01   D at   69  1   RLX: 0.831
       a = 13.000      CL =  1.2934
      Cm = -0.0205     CD =  0.04605   =>   CDf =  0.00566    CDp =  0.04039

 Side 1  free  transition at x/c =  0.0125   21
 Side 2 forced transition at x/c =  1.0000   69

   2   rms: 0.6704E-02   max: 0.2917E-01   D at   74  1
       a = 13.000      CL =  1.2916
      Cm = -0.0202     CD =  0.04646   =>   CDf =  0.00553    CDp =  0.04092

 Side 1  free  transition at x/c =  0.0124   21
 Side 2 forced transition at x/c =  1.0000   69

   3   rms: 0.4567E-03   max: 0.2957E-02   D at   74  1
       a = 13.000      CL =  1.2912
      Cm = -0.0202     CD =  0.04640   =>   CDf =  0.00551    CDp =  0.04089

 Side 1  free  transition at x/c =  0.0124   21
 Side 2 forced transition at x/c =  1.0000   69

   4   rms: 0.1743E-04   max: -.5731E-04   C at   69  2
       a = 13.000      CL =  1.2913
      Cm = -0.0202     CD =  0.04640   =>   CDf =  0.00551    CDp =  0.04088
 plradd ia,ip,cpol           42           0 -5.18684901E-05

 Point added to stored polar  1
 Point written to save file  hq2511_Re400k.base.pol                          
 Dump file unspecified or not available
 Calculating wake trajectory ...
 Calculating source influence matrix ...

 Solving BL system ...

 Side 1  free  transition at x/c =  0.0124   21
 Side 2 forced transition at x/c =  1.0000   69

   1   rms: 0.3555E-01   max: 0.9373E-01   D at   67  1   RLX: 0.796
       a = 13.250      CL =  1.2955
      Cm = -0.0196     CD =  0.04861   =>   CDf =  0.00551    CDp =  0.04310

 Side 1  free  transition at x/c =  0.0123   21
 Side 2 forced transition at x/c =  1.0000   69

   2   rms: 0.8414E-02   max: 0.3476E-01   D at   73  1
       a = 13.250      CL =  1.2935
      Cm = -0.0194     CD =  0.04918   =>   CDf =  0.00539    CDp =  0.04379

 Side 1  free  transition at x/c =  0.0122   21
 Side 2 forced transition at x/c =  1.0000   69

   3   rms: 0.8259E-03   max: 0.6221E-02   D at   82  2
       a = 13.250      CL =  1.2929
      Cm = -0.0194     CD =  0.04911   =>   CDf =  0.00536    CDp =  0.04375

 Side 1  free  transition at x/c =  0.0122   21
 Side 2 forced transition at x/c =  1.0000   69

   4   rms: 0.2729E-04   max: 0.1606E-03   D at   82  2
       a = 13.250      CL =  1.2929
      Cm = -0.0194     CD =  0.04910   =>   CDf =  0.00536    CDp =  0.04374
 plradd ia,ip,cpol           43           0 -5.18684901E-05

 Point added to stored polar  1
 Point written to save file  hq2511_Re400k.base.pol                          
 Dump file unspecified or not available
 Calculating wake trajectory ...
 Calculating source influence matrix ...

 Solving BL system ...

 Side 1  free  transition at x/c =  0.0122   21
 Side 2 forced transition at x/c =  1.0000   69

   1   rms: 0.3554E-01   max: 0.9792E-01   D at   66  1   RLX: 0.762
       a = 13.500      CL =  1.2960
      Cm = -0.0190     CD =  0.05142   =>   CDf =  0.00536    CDp =  0.04606

 Side 1  free  transition at x/c =  0.0121   21
 Side 2 forced transition at x/c =  1.0000   69

   2   rms: 0.1003E-01   max: 0.4142E-01   D at   72  1
       a = 13.500      CL =  1.2936
      Cm = -0.0188     CD =  0.05216   =>   CDf =  0.00523    CDp =  0.04693

 Side 1  free  transition at x/c =  0.0121   21
 Side 2 forced transition at x/c =  1.0000   69

   3   rms: 0.1002E-02   max: 0.4828E-02   D at   83  2
       a = 13.500      CL =  1.2928
      Cm = -0.0188     CD =  0.05207   =>   CDf =  0.00519    CDp =  0.04688

 Side 1  free  transition at x/c =  0.0121   21
 Side 2 forced transition at x/c =  1.0000   69

   4   rms: 0.3497E-04   max: 0.1402E-03   D at   83  2
       a = 13.500      CL =  1.2929
      Cm = -0.0188     CD =  0.05206   =>   CDf =  0.00519    CDp =  0.04687
 plradd ia,ip,cpol           44           0 -5.18684901E-05

 Point added to stored polar  1
 Point written to save file  hq2511_Re400k.base.pol                          
 Dump file unspecified or not available
 Calculating wake trajectory ...
 Calculating source influence matrix ...

 Solving BL system ...

 Side 1  free  transition at x/c =  0.0121   21
 Side 2 forced transition at x/c =  1.0000   69

   1   rms: 0.3503E-01   max: 0.1021E+00   D at   66  1   RLX: 0.729
       a = 13.750      CL =  1.2946
      Cm = -0.0185     CD =  0.05446   =>   CDf =  0.00519    CDp =  0.04926

 Side 1  free  transition at x/c =  0.0119   21
 Side 2 forced transition at x/c =  1.0000   69

   2   rms: 0.1012E-01   max: 0.4336E-01   D at   71  1
       a = 13.750      CL =  1.2921
      Cm = -0.0184     CD =  0.05528   =>   CDf =  0.00508    CDp =  0.05020

 Side 1  free  transition at x/c =  0.0119   21
 Side 2 forced transition at x/c =  1.0000   69

   3   rms: 0.9031E-03   max: 0.5401E-02   D at   83  2
       a = 13.750      CL =  1.2915
      Cm = -0.0184     CD =  0.05516   =>   CDf =  0.00504    CDp =  0.05011

 Side 1  free  transition at x/c =  0.0119   21
 Side 2 forced transition at x/c =  1.0000   69

   4   rms: 0.6719E-04   max: -.2041E-03   D at   71  1
       a = 13.750      CL =  1.2915
      Cm = -0.0184     CD =  0.05514   =>   CDf =  0.00505    CDp =  0.05010
 plradd ia,ip,cpol           45           0 -5.18684901E-05

 Point added to stored polar  1
 Point written to save file  hq2511_Re400k.base.pol                          
 Dump file unspecified or not available
 Calculating wake trajectory ...
 Calculating source influence matrix ...

 Solving BL system ...

 Side 1  free  transition at x/c =  0.0119   21
 Side 2 forced transition at x/c =  1.0000   69

   1   rms: 0.3577E-01   max: 0.1085E+00   D at   64  1   RLX: 0.697
       a = 14.000      CL =  1.2922
      Cm = -0.0183     CD =  0.05771   =>   CDf =  0.00505    CDp =  0.05266

 Side 1  free  transition at x/c =  0.0118   21
 Side 2 forced transition at x/c =  1.0000   69

   2   rms: 0.1302E-01   max: 0.4744E-01   D at   69  1
       a = 14.000      CL =  1.2890
      Cm = -0.0182     CD =  0.05883   =>   CDf =  0.00492    CDp =  0.05391

 Side 1  free  transition at x/c =  0.0118   21
 Side 2 forced transition at x/c =  1.0000   69

   3   rms: 0.1867E-02   max: 0.1029E-01   D at   69  1
       a = 14.000      CL =  1.2876
      Cm = -0.0182     CD =  0.05870   =>   CDf =  0.00487    CDp =  0.05384

 Side 1  free  transition at x/c =  0.0118   21
 Side 2 forced transition at x/c =  1.0000   69

   4   rms: 0.4906E-04   max: 0.4232E-03   D at   83  2
       a = 14.000      CL =  1.2877
      Cm = -0.0182     CD =  0.05868   =>   CDf =  0.00486    CDp =  0.05381
 plradd ia,ip,cpol           46           0 -5.18684901E-05

 Point added to stored polar  1
 Point written to save file  hq2511_Re400k.base.pol                          
 Dump file unspecified or not available
 Calculating wake trajectory ...
 Calculating source influence matrix ...

 Solving BL system ...

 Side 1  free  transition at x/c =  0.0118   21
 Side 2 forced transition at x/c =  1.0000   69

   1   rms: 0.3496E-01   max: 0.1121E+00   D at   63  1   RLX: 0.665
       a = 14.250      CL =  1.2871
      Cm = -0.0183     CD =  0.06130   =>   CDf =  0.00487    CDp =  0.05644

 Side 1  free  transition at x/c =  0.0117   21
 Side 2 forced transition at x/c =  1.0000   69

   2   rms: 0.1054E-01   max: 0.4105E-01   D at   68  1
       a = 14.250      CL =  1.2849
      Cm = -0.0184     CD =  0.06219   =>   CDf =  0.00475    CDp =  0.05744

 Side 1  free  transition at x/c =  0.0116   21
 Side 2 forced transition at x/c =  1.0000   69

   3   rms: 0.1407E-02   max: 0.6994E-02   D at   67  1
       a = 14.250      CL =  1.2840
      Cm = -0.0184     CD =  0.06211   =>   CDf =  0.00473    CDp =  0.05738

 Side 1  free  transition at x/c =  0.0116   21
 Side 2 forced transition at x/c =  1.0000   69

   4   rms: 0.3540E-04   max: 0.3978E-03   D at   84  2
       a = 14.250      CL =  1.2840
      Cm = -0.0184     CD =  0.06209   =>   CDf =  0.00473    CDp =  0.05736
 plradd ia,ip,cpol           47           0 -5.18684901E-05

 Point added to stored polar  1
 Point written to save file  hq2511_Re400k.base.pol                          
 Dump file unspecified or not available
 Calculating wake trajectory ...
 Calculating source influence matrix ...

 Solving BL system ...

 Side 1  free  transition at x/c =  0.0116   21
 Side 2 forced transition at x/c =  1.0000   69

   1   rms: 0.3565E-01   max: 0.1203E+00   D at   62  1   RLX: 0.637
       a = 14.500      CL =  1.2822
      Cm = -0.0188     CD =  0.06489   =>   CDf =  0.00474    CDp =  0.06016

 Side 1  free  transition at x/c =  0.0115   21
 Side 2 forced transition at x/c =  1.0000   69

   2   rms: 0.1447E-01   max: 0.5453E-01   D at   66  1
       a = 14.500      CL =  1.2784
      Cm = -0.0190     CD =  0.06638   =>   CDf =  0.00463    CDp =  0.06175

 Side 1  free  transition at x/c =  0.0115   21
 Side 2 forced transition at x/c =  1.0000   69

   3   rms: 0.2119E-02   max: 0.1402E-01   D at   84  2
       a = 14.500      CL =  1.2770
      Cm = -0.0190     CD =  0.06617   =>   CDf =  0.00457    CDp =  0.06160

 Side 1  free  transition at x/c =  0.0115   21
 Side 2 forced transition at x/c =  1.0000   69

   4   rms: 0.8677E-04   max: 0.1407E-02   D at   84  2
       a = 14.500      CL =  1.2770
      Cm = -0.0190     CD =  0.06613   =>   CDf =  0.00456    CDp =  0.06157
 plradd ia,ip,cpol           48           0 -5.18684901E-05

 Point added to stored polar  1
 Point written to save file  hq2511_Re400k.base.pol                          
 Dump file unspecified or not available
 Calculating wake trajectory ...
 Calculating source influence matrix ...

 Solving BL system ...

 Side 1  free  transition at x/c =  0.0115   21
 Side 2 forced transition at x/c =  1.0000   69

   1   rms: 0.3707E-01   max: 0.1284E+00   D at   61  1   RLX: 0.608
       a = 14.750      CL =  1.2743
      Cm = -0.0195     CD =  0.06911   =>   CDf =  0.00457    CDp =  0.06454

 Side 1  free  transition at x/c =  0.0114   21
 Side 2 forced transition at x/c =  1.0000   69

   2   rms: 0.1695E-01   max: 0.6959E-01   D at   65  1
       a = 14.750      CL =  1.2693
      Cm = -0.0200     CD =  0.07099   =>   CDf =  0.00446    CDp =  0.06653

 Side 1  free  transition at x/c =  0.0114   21
 Side 2 forced transition at x/c =  1.0000   69

   3   rms: 0.2707E-02   max: 0.1475E-01   D at   64  1
       a = 14.750      CL =  1.2675
      Cm = -0.0200     CD =  0.07077   =>   CDf =  0.00439    CDp =  0.06638

 Side 1  free  transition at x/c =  0.0114   21
 Side 2 forced transition at x/c =  1.0000   69

   4   rms: 0.1056E-03   max: 0.9420E-03   D at   85  2
       a = 14.750      CL =  1.2675
      Cm = -0.0200     CD =  0.07072   =>   CDf =  0.00439    CDp =  0.06633

 Side 1  free  transition at x/c =  0.0114   21
 Side 2 forced transition at x/c =  1.0000   69

   5   rms: 0.8344E-05   max: 0.3261E-04   T at   21  1
       a = 14.750      CL =  1.2675
      Cm = -0.0200     CD =  0.07072   =>   CDf =  0.00439    CDp =  0.06633
 plradd ia,ip,cpol           49           0 -5.18684901E-05

 Point added to stored polar  1
 Point written to save file  hq2511_Re400k.base.pol                          
 Dump file unspecified or not available
 Calculating wake trajectory ...
 Calculating source influence matrix ...

 Solving BL system ...

 Side 1  free  transition at x/c =  0.0114   21
 Side 2 forced transition at x/c =  1.0000   69

   1   rms: 0.3511E-01   max: 0.1258E+00   D at   60  1   RLX: 0.581
       a = 15.000      CL =  1.2648
      Cm = -0.0208     CD =  0.07365   =>   CDf =  0.00439    CDp =  0.06926

 Side 1  free  transition at x/c =  0.0113   21
 Side 2 forced transition at x/c =  1.0000   69

   2   rms: 0.1544E-01   max: 0.6375E-01   D at   63  1
       a = 15.000      CL =  1.2606
      Cm = -0.0214     CD =  0.07556   =>   CDf =  0.00430    CDp =  0.07126

 Side 1  free  transition at x/c =  0.0113   21
 Side 2 forced transition at x/c =  1.0000   69

   3   rms: 0.2031E-02   max: 0.1233E-01   D at   85  2
       a = 15.000      CL =  1.2592
      Cm = -0.0214     CD =  0.07524   =>   CDf =  0.00425    CDp =  0.07099

 Side 1  free  transition at x/c =  0.0113   21
 Side 2 forced transition at x/c =  1.0000   69

   4   rms: 0.8726E-04   max: 0.5546E-03   D at   85  2
       a = 15.000      CL =  1.2593
      Cm = -0.0214     CD =  0.07520   =>   CDf =  0.00425    CDp =  0.07096
 plradd ia,ip,cpol           50           0 -5.18684901E-05

 Point added to stored polar  1
 Point written to save file  hq2511_Re400k.base.pol                          
 Dump file unspecified or not available
 Calculating wake trajectory ...
 Calculating source influence matrix ...

 Solving BL system ...

 Side 1  free  transition at x/c =  0.0113   21
 Side 2 forced transition at x/c =  1.0000   69

   1   rms: 0.3877E-01   max: 0.1420E+00   D at   58  1   RLX: 0.556
       a = 15.250      CL =  1.2554
      Cm = -0.0224     CD =  0.07855   =>   CDf =  0.00425    CDp =  0.07430

 Side 1  free  transition at x/c =  0.0113   21
 Side 2 forced transition at x/c =  1.0000   69

   2   rms: 0.2027E-01   max: 0.7998E-01   D at   61  1
       a = 15.250      CL =  1.2492
      Cm = -0.0234     CD =  0.08115   =>   CDf =  0.00414    CDp =  0.07701

 Side 1  free  transition at x/c =  0.0113   21
 Side 2 forced transition at x/c =  1.0000   69

   3   rms: 0.3790E-02   max: 0.2313E-01   D at   85  2
       a = 15.250      CL =  1.2469
      Cm = -0.0234     CD =  0.08080   =>   CDf =  0.00405    CDp =  0.07675

 Side 1  free  transition at x/c =  0.0113   21
 Side 2 forced transition at x/c =  1.0000   69

   4   rms: 0.2134E-03   max: 0.2621E-02   D at   85  2
       a = 15.250      CL =  1.2468
      Cm = -0.0234     CD =  0.08073   =>   CDf =  0.00404    CDp =  0.07668

 Side 1  free  transition at x/c =  0.0113   21
 Side 2 forced transition at x/c =  1.0000   69

   5   rms: 0.1608E-04   max: 0.6180E-04   T at   21  1
       a = 15.250      CL =  1.2468
      Cm = -0.0234     CD =  0.08073   =>   CDf =  0.00404    CDp =  0.07668
 plradd ia,ip,cpol           51           0 -5.18684901E-05

 Point added to stored polar  1
 Point written to save file  hq2511_Re400k.base.pol                          
 Dump file unspecified or not available
 Calculating wake trajectory ...
 Calculating source influence matrix ...

 Solving BL system ...

 Side 1  free  transition at x/c =  0.0113   21
 Side 2 forced transition at x/c =  1.0000   69

   1   rms: 0.3501E-01   max: 0.1677E+00   T at   21  1   RLX: 0.533
       a = 15.500      CL =  1.2442
      Cm = -0.0246     CD =  0.08372   =>   CDf =  0.00405    CDp =  0.07967

 Side 1  free  transition at x/c =  0.0111   21
 Side 2 forced transition at x/c =  1.0000   69

   2   rms: 0.1508E-01   max: 0.7917E-01   T at   21  1
       a = 15.500      CL =  1.2409
      Cm = -0.0254     CD =  0.08585   =>   CDf =  0.00400    CDp =  0.08185

 Side 1  free  transition at x/c =  0.0110   21
 Side 2 forced transition at x/c =  1.0000   69

   3   rms: 0.3227E-02   max: -.1108E-01   T at   21  1
       a = 15.500      CL =  1.2389
      Cm = -0.0254     CD =  0.08560   =>   CDf =  0.00397    CDp =  0.08163

 Side 1  free  transition at x/c =  0.0110   21
 Side 2 forced transition at x/c =  1.0000   69

   4   rms: 0.2191E-03   max: 0.8723E-03   T at   21  1
       a = 15.500      CL =  1.2390
      Cm = -0.0254     CD =  0.08557   =>   CDf =  0.00397    CDp =  0.08160

 Side 1  free  transition at x/c =  0.0110   21
 Side 2 forced transition at x/c =  1.0000   69

   5   rms: 0.1337E-04   max: -.1137E-03   D at   85  2
       a = 15.500      CL =  1.2390
      Cm = -0.0254     CD =  0.08558   =>   CDf =  0.00397    CDp =  0.08161
 plradd ia,ip,cpol           52           0 -5.18684901E-05

 Point added to stored polar  1
 Point written to save file  hq2511_Re400k.base.pol                          
 Dump file unspecified or not available
 Calculating wake trajectory ...
 Calculating source influence matrix ...

 Solving BL system ...

 Side 1  free  transition at x/c =  0.0110   21
 Side 2 forced transition at x/c =  1.0000   69

   1   rms: 0.4373E-01   max: 0.1658E+00   D at   55  1   RLX: 0.510
       a = 15.750      CL =  1.2335
      Cm = -0.0270     CD =  0.08949   =>   CDf =  0.00397    CDp =  0.08552

 Side 1  free  transition at x/c =  0.0110   21
 Side 2 forced transition at x/c =  1.0000   69

   2   rms: 0.2696E-01   max: 0.1069E+00   D at   57  1
       a = 15.750      CL =  1.2245
      Cm = -0.0290     CD =  0.09336   =>   CDf =  0.00385    CDp =  0.08951

 Side 1  free  transition at x/c =  0.0112   21
 Side 2 forced transition at x/c =  1.0000   69

   3   rms: 0.6162E-02   max: 0.3292E-01   D at   56  1
       a = 15.750      CL =  1.2209
      Cm = -0.0291     CD =  0.09293   =>   CDf =  0.00371    CDp =  0.08922

 Side 1  free  transition at x/c =  0.0112   21
 Side 2 forced transition at x/c =  1.0000   69

   4   rms: 0.4593E-03   max: 0.3500E-02   D at   86  2
       a = 15.750      CL =  1.2206
      Cm = -0.0291     CD =  0.09280   =>   CDf =  0.00370    CDp =  0.08910

 Side 1  free  transition at x/c =  0.0112   21
 Side 2 forced transition at x/c =  1.0000   69

   5   rms: 0.1708E-04   max: 0.8953E-04   D at   86  2
       a = 15.750      CL =  1.2206
      Cm = -0.0291     CD =  0.09279   =>   CDf =  0.00370    CDp =  0.08910
 plradd ia,ip,cpol           53           0 -5.18684901E-05

 Point added to stored polar  1
 Point written to save file  hq2511_Re400k.base.pol                          
 Dump file unspecified or not available
 Calculating wake trajectory ...
 Calculating source influence matrix ...

 Solving BL system ...

 Side 1  free  transition at x/c =  0.0112   21
 Side 2 forced transition at x/c =  1.0000   69

   1   rms: 0.3863E-01   max: 0.1471E+00   D at   52  1   RLX: 0.489
       a = 16.000      CL =  1.2168
      Cm = -0.0307     CD =  0.09642   =>   CDf =  0.00370    CDp =  0.09272

 Side 1  free  transition at x/c =  0.0111   21
 Side 2 forced transition at x/c =  1.0000   69

   2   rms: 0.2170E-01   max: 0.8472E-01   D at   54  1
       a = 16.000      CL =  1.2104
      Cm = -0.0325     CD =  0.09996   =>   CDf =  0.00364    CDp =  0.09633

 Side 1  free  transition at x/c =  0.0110   21
 Side 2 forced transition at x/c =  1.0000   69

   3   rms: 0.4296E-02   max: 0.2271E-01   D at   86  2
       a = 16.000      CL =  1.2079
      Cm = -0.0325     CD =  0.09930   =>   CDf =  0.00357    CDp =  0.09574

 Side 1  free  transition at x/c =  0.0111   21
 Side 2 forced transition at x/c =  1.0000   69

   4   rms: 0.2846E-03   max: 0.4183E-02   D at   86  2
       a = 16.000      CL =  1.2078
      Cm = -0.0325     CD =  0.09919   =>   CDf =  0.00356    CDp =  0.09562

 Side 1  free  transition at x/c =  0.0111   21
 Side 2 forced transition at x/c =  1.0000   69

   5   rms: 0.2558E-04   max: 0.1142E-03   C at   69  2
       a = 16.000      CL =  1.2078
      Cm = -0.0325     CD =  0.09919   =>   CDf =  0.00356    CDp =  0.09563
 plradd ia,ip,cpol           54           0 -5.18684901E-05

 Point added to stored polar  1
 Point written to save file  hq2511_Re400k.base.pol                          
 Dump file unspecified or not available

.OPERva   c>  
 Polar accumulation disabled

.OPERv   c>  
 XFOIL   c>  
 XFOIL   c>  