
 ===================================================
  XFOIL Version 6.99
  Copyright (C) 2000   Mark Drela, Harold Youngren

  This software comes with ABSOLUTELY NO WARRANTY,
    subject to the GNU General Public License.

  Caveat computor
 ===================================================

 File  xfoil.def  not found

   QUIT    Exit program

  .OPER    Direct operating point(s)
  .MDES    Complex mapping design routine
  .QDES    Surface speed design routine
  .GDES    Geometry design routine

   SAVE f  Write airfoil to labeled coordinate file
   PSAV f  Write airfoil to plain coordinate file
   ISAV f  Write airfoil to ISES coordinate file
   MSAV f  Write airfoil to MSES coordinate file
   REVE    Reverse written-airfoil node ordering

   LOAD f  Read buffer airfoil from coordinate file
   NACA i  Set NACA 4,5-digit airfoil and buffer airfoil
   INTE    Set buffer airfoil by interpolating two airfoils
   NORM    Buffer airfoil normalization toggle
   XYCM rr Change CM reference location, currently  0.25000 0.00000

   BEND    Display structural properties of current airfoil

   PCOP    Set current-airfoil panel nodes directly from buffer airfoil points
   PANE    Set current-airfoil panel nodes ( 160 ) based on curvature
  .PPAR    Show/change paneling

  .PLOP    Plotting options

   WDEF f  Write  current-settings file
   RDEF f  Reread current-settings file
   NAME s  Specify new airfoil name
   NINC    Increment name version number

   Z       Zoom    | (available in all menus)
   U       Unzoom  | 

 XFOIL   c>  
 Labeled airfoil file.  Name:  HQ 3.0/8 AIRFOIL                                

 Number of input coordinate points:  77
 Counterclockwise ordering
 Max thickness =     0.079791  at x =   0.350
 Max camber    =     0.029513  at x =   0.500

  LE  x,y  =  -0.00014   0.00084  |   Chord =   1.00014
  TE  x,y  =   1.00000   0.00000  |

 Current airfoil nodes set from buffer airfoil nodes (  77 )

 WARNING: Poor input coordinate distribution
          Excessive panel angle   68.8  at i =  39
          Repaneling with PANE and/or PPAR suggested
           (doing GDES,CADD before repaneling _may_
            improve excessively coarse LE spacing

 XFOIL   c>  
 XFOIL   c>  
 Sharp trailing edge

 Paneling parameters used...
   Number of panel nodes       160
   Panel bunching parameter    1.000
   TE/LE panel density ratio   0.150
   Refined-area/LE panel density ratio    0.200
   Top    side refined area x/c limits  1.000 1.000
   Bottom side refined area x/c limits  1.000 1.000

 XFOIL   c>  
.OPERi   c>  
 Xtr/c     =  1.0000    top    side
 Xtr/c     =  1.0000    bottom side
 Ncrit     =    9.00   ( 0.070 % turb. level )
 Vacc      =  0.0100

 Klag  =  5.6000     Uxwt  =    1.00
 A     =  6.7000     B     =  0.7500       KCt = 0.01485
 CtiniK=  1.8000     CtiniX=  3.3000

..VPAR   c>  
..VPAR   c>  
.OPERi   c>  
 M  =    0.0000
 Re =    200000

.OPERv   c>  
.OPERv   c>  
.OPERv   c>  
 Polar  1 newly created for accumulation
 Airfoil archived with polar: HQ 3.0/8 AIRFOIL                                

Enter  polar save filename  OR  <return> for no file   s>  
 New polar save file available

Enter  polar dump filename  OR  <return> for no file   s>  
 Polar dump file will NOT be written

 Polar accumulation enabled

.OPERva   c>   Calculating unit vorticity distributions ...
 Calculating wake trajectory ...
 Calculating source influence matrix ...

 Solving BL system ...

 Initializing BL ...
    side            1  ...
 MRCHUE: Inverse mode at  61     Hk =   4.111
 MRCHUE: Inverse mode at  62     Hk =   4.419
 MRCHUE: Inverse mode at  63     Hk =   4.723
 MRCHUE: Inverse mode at  64     Hk =   5.023
 MRCHUE: Inverse mode at  65     Hk =   5.320
 MRCHUE: Inverse mode at  66     Hk =   5.614
 MRCHUE: Inverse mode at  67     Hk =   5.905
 MRCHUE: Inverse mode at  68     Hk =   6.193
 MRCHUE: Inverse mode at  69     Hk =   6.478
 MRCHUE: Inverse mode at  70     Hk =   6.763
 MRCHUE: Inverse mode at  71     Hk =   7.045
 MRCHUE: Inverse mode at  72     Hk =   7.322
 MRCHUE: Inverse mode at  73     Hk =   7.596
 MRCHUE: Inverse mode at  74     Hk =   7.869
 MRCHUE: Inverse mode at  75     Hk =   8.138
 MRCHUE: Inverse mode at  76     Hk =   8.378
 MRCHUE: Inverse mode at  77     Hk =   8.564
 MRCHUE: Inverse mode at  78     Hk =   8.665
    side            2  ...
 MRCHUE: Inverse mode at   7     Hk =   3.824
 MRCHUE: Inverse mode at   8     Hk =   5.079
 MRCHUE: Convergence failed at   9  side 2    Res =  0.5034E+01
 MRCHUE: Inverse mode at  10     Hk =   6.978
 MRCHUE: Inverse mode at  11     Hk =   9.001
 MRCHUE: Inverse mode at  12     Hk =   7.468
 MRCHUE: Inverse mode at  13     Hk =   2.500
 MRCHUE: Inverse mode at  14     Hk =   2.500
 MRCHUE: Inverse mode at  15     Hk =   2.500
 MRCHUE: Inverse mode at  16     Hk =   2.500
 MRCHUE: Inverse mode at  17     Hk =   2.500

 MRCHDU: Convergence failed at  13  side 2    Res =  0.1350E+02
 MRCHDU: Convergence failed at  14  side 2    Res =  0.3945E+03
 MRCHDU: Convergence failed at  15  side 2    Res =  0.2489E+02
 MRCHDU: Convergence failed at  16  side 2    Res =  0.3581E+02
 MRCHDU: Convergence failed at  17  side 2    Res =  0.5779E+02
 MRCHDU: Convergence failed at  18  side 2    Res =  0.5769E+02
 MRCHDU: Convergence failed at  19  side 2    Res =  0.2253E+02
 MRCHDU: Convergence failed at  20  side 2    Res =  0.3922E+02
 MRCHDU: Convergence failed at  21  side 2    Res =  0.6815E+02
 MRCHDU: Convergence failed at  22  side 2    Res =  0.1020E+03
 MRCHDU: Convergence failed at  23  side 2    Res =  0.1975E+03
 MRCHDU: Convergence failed at  24  side 2    Res =  0.1513E+04
 MRCHDU: Convergence failed at  25  side 2    Res =  0.1111E+04
 MRCHDU: Convergence failed at  26  side 2    Res =  0.5558E+03
 MRCHDU: Convergence failed at  27  side 2    Res =  0.1473E+03
 MRCHDU: Convergence failed at  28  side 2    Res =  0.1046E+03
 MRCHDU: Convergence failed at  29  side 2    Res =  0.1012E+03
 MRCHDU: Convergence failed at  30  side 2    Res =  0.1065E+03
 MRCHDU: Convergence failed at  31  side 2    Res =  0.1147E+03
 MRCHDU: Convergence failed at  32  side 2    Res =  0.1220E+03
 MRCHDU: Convergence failed at  33  side 2    Res =  0.1290E+03
 MRCHDU: Convergence failed at  34  side 2    Res =  0.1332E+03
 MRCHDU: Convergence failed at  35  side 2    Res =  0.1390E+03
 MRCHDU: Convergence failed at  36  side 2    Res =  0.1472E+03
 MRCHDU: Convergence failed at  37  side 2    Res =  0.1631E+03
 MRCHDU: Convergence failed at  38  side 2    Res =  0.1861E+03
 MRCHDU: Convergence failed at  39  side 2    Res =  0.2174E+03
 MRCHDU: Convergence failed at  40  side 2    Res =  0.2545E+03
 MRCHDU: Convergence failed at  41  side 2    Res =  0.5790E+02
 MRCHDU: Convergence failed at  42  side 2    Res =  0.2282E+05
 MRCHDU: Convergence failed at  43  side 2    Res =  0.1307E+04
 MRCHDU: Convergence failed at  44  side 2    Res =  0.6626E+03
 MRCHDU: Convergence failed at  45  side 2    Res =  0.4311E+03
 MRCHDU: Convergence failed at  46  side 2    Res =  0.3168E+03
 MRCHDU: Convergence failed at  47  side 2    Res =  0.2548E+03
 MRCHDU: Convergence failed at  48  side 2    Res =  0.2106E+03
 MRCHDU: Convergence failed at  49  side 2    Res =  0.1796E+03
 MRCHDU: Convergence failed at  50  side 2    Res =  0.1553E+03
 MRCHDU: Convergence failed at  51  side 2    Res =  0.1387E+03
 MRCHDU: Convergence failed at  52  side 2    Res =  0.1251E+03
 MRCHDU: Convergence failed at  53  side 2    Res =  0.1554E+03
 MRCHDU: Convergence failed at  54  side 2    Res =  0.1123E+03
 MRCHDU: Convergence failed at  55  side 2    Res =  0.1248E+03
 MRCHDU: Convergence failed at  56  side 2    Res =  0.1397E+03
 MRCHDU: Convergence failed at  57  side 2    Res =  0.1592E+03
 MRCHDU: Convergence failed at  58  side 2    Res =  0.1814E+03
 MRCHDU: Convergence failed at  59  side 2    Res =  0.2099E+03
 MRCHDU: Convergence failed at  60  side 2    Res =  0.2481E+03
 MRCHDU: Convergence failed at  61  side 2    Res =  0.3021E+03
 MRCHDU: Convergence failed at  62  side 2    Res =  0.3834E+03
 MRCHDU: Convergence failed at  63  side 2    Res =  0.5181E+03
 MRCHDU: Convergence failed at  64  side 2    Res =  0.8062E+03
 MRCHDU: Convergence failed at  65  side 2    Res =  0.1637E+04
 MRCHDU: Convergence failed at  66  side 2    Res =  0.1881E+03
 MRCHDU: Convergence failed at  67  side 2    Res =  0.1546E+03
 MRCHDU: Convergence failed at  68  side 2    Res =  0.1338E+03
 MRCHDU: Convergence failed at  69  side 2    Res =  0.1221E+03
 MRCHDU: Convergence failed at  70  side 2    Res =  0.1149E+03
 MRCHDU: Convergence failed at  71  side 2    Res =  0.1042E+03
 MRCHDU: Convergence failed at  72  side 2    Res =  0.9936E+02
 MRCHDU: Convergence failed at  73  side 2    Res =  0.1013E+03
 MRCHDU: Convergence failed at  74  side 2    Res =  0.1042E+03
 MRCHDU: Convergence failed at  75  side 2    Res =  0.9705E+02
 MRCHDU: Convergence failed at  76  side 2    Res =  0.1009E+03
 MRCHDU: Convergence failed at  77  side 2    Res =  0.1222E+03
 MRCHDU: Convergence failed at  78  side 2    Res =  0.1229E+03
 MRCHDU: Convergence failed at  79  side 2    Res =  0.1016E+03
 MRCHDU: Convergence failed at  80  side 2    Res =  0.1012E+03
 MRCHDU: Convergence failed at  81  side 2    Res =  0.1056E+03
 MRCHDU: Convergence failed at  82  side 2    Res =  0.8842E+02
 MRCHDU: Convergence failed at  83  side 2    Res =  0.7023E+02
 MRCHDU: Convergence failed at  84  side 2    Res =  0.4984E+02
 Side 1 forced transition at x/c =  1.0000   78
 Side 2  free  transition at x/c =  0.0329   13

   1   rms: 0.2165E+01   max: 0.9087E+01   D at   86  2   RLX: 0.165
       a = -4.000      CL = -2.2115
      Cm =  0.5138     CD =  0.00484   =>   CDf =  0.00239    CDp =  0.00245

 MRCHDU: Convergence failed at  50  side 2    Res =  0.1766E+00
 MRCHDU: Convergence failed at  51  side 2    Res =  0.1712E+00
 MRCHDU: Convergence failed at  52  side 2    Res =  0.1657E+00
 MRCHDU: Convergence failed at  53  side 2    Res =  0.1599E+00
 MRCHDU: Convergence failed at  54  side 2    Res =  0.1541E+00
 MRCHDU: Convergence failed at  55  side 2    Res =  0.1483E+00
 MRCHDU: Convergence failed at  56  side 2    Res =  0.1428E+00
 MRCHDU: Convergence failed at  57  side 2    Res =  0.1373E+00
 MRCHDU: Convergence failed at  58  side 2    Res =  0.1319E+00
 MRCHDU: Convergence failed at  59  side 2    Res =  0.1272E+00
 MRCHDU: Convergence failed at  60  side 2    Res =  0.1228E+00
 MRCHDU: Convergence failed at  61  side 2    Res =  0.1192E+00
 MRCHDU: Convergence failed at  62  side 2    Res =  0.1160E+00
 MRCHDU: Convergence failed at  63  side 2    Res =  0.1136E+00
 MRCHDU: Convergence failed at  64  side 2    Res =  0.1120E+00
 MRCHDU: Convergence failed at  65  side 2    Res =  0.1116E+00
 MRCHDU: Convergence failed at  66  side 2    Res =  0.1121E+00
 MRCHDU: Convergence failed at  67  side 2    Res =  0.1141E+00
 MRCHDU: Convergence failed at  68  side 2    Res =  0.1173E+00
 MRCHDU: Convergence failed at  69  side 2    Res =  0.1223E+00
 MRCHDU: Convergence failed at  70  side 2    Res =  0.1283E+00
 MRCHDU: Convergence failed at  71  side 2    Res =  0.1346E+00
 MRCHDU: Convergence failed at  72  side 2    Res =  0.1418E+00
 MRCHDU: Convergence failed at  73  side 2    Res =  0.1508E+00
 MRCHDU: Convergence failed at  74  side 2    Res =  0.1609E+00
 MRCHDU: Convergence failed at  75  side 2    Res =  0.1699E+00
 MRCHDU: Convergence failed at  76  side 2    Res =  0.1789E+00
 MRCHDU: Convergence failed at  77  side 2    Res =  0.1897E+00
 MRCHDU: Convergence failed at  78  side 2    Res =  0.1999E+00
 MRCHDU: Convergence failed at  79  side 2    Res =  0.2137E+00
 MRCHDU: Convergence failed at  80  side 2    Res =  0.2247E+00
 MRCHDU: Convergence failed at  81  side 2    Res =  0.2359E+00
 MRCHDU: Convergence failed at  82  side 2    Res =  0.2435E+00
 MRCHDU: Convergence failed at  83  side 2    Res =  0.2449E+00
 MRCHDU: Convergence failed at  84  side 2    Res =  0.2209E+00
 Side 1 forced transition at x/c =  1.0000   78
 Side 2  free  transition at x/c =  0.0277   12

   2   rms: 0.8437E+00   max: 0.6105E+01   T at   12  2   RLX: 0.169
       a = -4.000      CL = -1.3133
      Cm =  0.2239     CD =  0.02236   =>   CDf =  0.00407    CDp =  0.01829

 Side 1 forced transition at x/c =  1.0000   78
 Side 2  free  transition at x/c =  0.0245   12

   3   rms: 0.7042E+00   max: 0.3011E+01   D at   14  2   RLX: 0.252
       a = -4.000      CL = -1.0001
      Cm =  0.1076     CD =  0.03397   =>   CDf =  0.00393    CDp =  0.03003

 Side 1 forced transition at x/c =  1.0000   78
 Side 2  free  transition at x/c =  0.0244   12
 idif Ue xi dudx           1  0.43065774      7.39586353E-03   58.229542    
 Uenew xinew           2  0.13409594      2.30288506E-03

   4   rms: 0.8575E+00   max: 0.3865E+01   D at   15  2   RLX: 0.336
       a = -4.000      CL = -0.9387
      Cm =  0.0429     CD =  0.02931   =>   CDf =  0.00334    CDp =  0.02598

 MRCHDU: Convergence failed at  16  side 2    Res =  0.9578E+02
 MRCHDU: Convergence failed at  17  side 2    Res =  0.4546E+02
 MRCHDU: Convergence failed at  18  side 2    Res =  0.1972E+04
 MRCHDU: Convergence failed at  19  side 2    Res =  0.2454E+03
 MRCHDU: Convergence failed at  20  side 2    Res =  0.1976E+03
 MRCHDU: Convergence failed at  21  side 2    Res =  0.1767E+03
 MRCHDU: Convergence failed at  22  side 2    Res =  0.2252E+03
 MRCHDU: Convergence failed at  23  side 2    Res =  0.4055E+03
 MRCHDU: Convergence failed at  24  side 2    Res =  0.9564E+03
 MRCHDU: Convergence failed at  25  side 2    Res =  0.4392E+03
 MRCHDU: Convergence failed at  26  side 2    Res =  0.8061E+02
 MRCHDU: Convergence failed at  27  side 2    Res =  0.1478E+03
 MRCHDU: Convergence failed at  28  side 2    Res =  0.7707E+03
 MRCHDU: Convergence failed at  29  side 2    Res =  0.4269E+03
 MRCHDU: Convergence failed at  30  side 2    Res =  0.4881E+03
 MRCHDU: Convergence failed at  31  side 2    Res =  0.3266E+03
 MRCHDU: Convergence failed at  32  side 2    Res =  0.3512E+03
 MRCHDU: Convergence failed at  33  side 2    Res =  0.6452E+03
 MRCHDU: Convergence failed at  34  side 2    Res =  0.6452E+03
 MRCHDU: Convergence failed at  35  side 2    Res =  0.7867E+03
 MRCHDU: Convergence failed at  36  side 2    Res =  0.1012E+04
 MRCHDU: Convergence failed at  37  side 2    Res =  0.1417E+04
 MRCHDU: Convergence failed at  38  side 2    Res =  0.2112E+04
 MRCHDU: Convergence failed at  39  side 2    Res =  0.3977E+03
 MRCHDU: Convergence failed at  40  side 2    Res =  0.3370E+03
 MRCHDU: Convergence failed at  41  side 2    Res =  0.2858E+03
 MRCHDU: Convergence failed at  42  side 2    Res =  0.2729E+03
 MRCHDU: Convergence failed at  43  side 2    Res =  0.2617E+03
 MRCHDU: Convergence failed at  44  side 2    Res =  0.1658E+03
 MRCHDU: Convergence failed at  45  side 2    Res =  0.1716E+03
 MRCHDU: Convergence failed at  46  side 2    Res =  0.1779E+03
 MRCHDU: Convergence failed at  47  side 2    Res =  0.2353E+03
 MRCHDU: Convergence failed at  48  side 2    Res =  0.2450E+03
 MRCHDU: Convergence failed at  49  side 2    Res =  0.6489E+03
 MRCHDU: Convergence failed at  50  side 2    Res =  0.2213E+03
 MRCHDU: Convergence failed at  51  side 2    Res =  0.2152E+03
 MRCHDU: Convergence failed at  52  side 2    Res =  0.2097E+03
 MRCHDU: Convergence failed at  53  side 2    Res =  0.3883E+03
 MRCHDU: Convergence failed at  54  side 2    Res =  0.4086E+03
 MRCHDU: Convergence failed at  55  side 2    Res =  0.4300E+03
 MRCHDU: Convergence failed at  56  side 2    Res =  0.3200E+03
 MRCHDU: Convergence failed at  57  side 2    Res =  0.3452E+03
 MRCHDU: Convergence failed at  58  side 2    Res =  0.3650E+03
 MRCHDU: Convergence failed at  59  side 2    Res =  0.3892E+03
 MRCHDU: Convergence failed at  60  side 2    Res =  0.4153E+03
 MRCHDU: Convergence failed at  61  side 2    Res =  0.4433E+03
 MRCHDU: Convergence failed at  62  side 2    Res =  0.4728E+03
 MRCHDU: Convergence failed at  63  side 2    Res =  0.3549E+03
 MRCHDU: Convergence failed at  64  side 2    Res =  0.3843E+03
 MRCHDU: Convergence failed at  65  side 2    Res =  0.4158E+03
 MRCHDU: Convergence failed at  66  side 2    Res =  0.4483E+03
 MRCHDU: Convergence failed at  67  side 2    Res =  0.4795E+03
 MRCHDU: Convergence failed at  68  side 2    Res =  0.5129E+03
 MRCHDU: Convergence failed at  69  side 2    Res =  0.5071E+03
 MRCHDU: Convergence failed at  70  side 2    Res =  0.4915E+03
 MRCHDU: Convergence failed at  71  side 2    Res =  0.4784E+03
 MRCHDU: Convergence failed at  72  side 2    Res =  0.4658E+03
 MRCHDU: Convergence failed at  73  side 2    Res =  0.4536E+03
 MRCHDU: Convergence failed at  74  side 2    Res =  0.4440E+03
 MRCHDU: Convergence failed at  75  side 2    Res =  0.4366E+03
 MRCHDU: Convergence failed at  76  side 2    Res =  0.4274E+03
 MRCHDU: Convergence failed at  77  side 2    Res =  0.4204E+03
 MRCHDU: Convergence failed at  78  side 2    Res =  0.4144E+03
 MRCHDU: Convergence failed at  79  side 2    Res =  0.5503E+03
 MRCHDU: Convergence failed at  80  side 2    Res =  0.5246E+03
 MRCHDU: Convergence failed at  81  side 2    Res =  0.5119E+03
 MRCHDU: Convergence failed at  82  side 2    Res =  0.4988E+03
 MRCHDU: Convergence failed at  83  side 2    Res =  0.4713E+03
 MRCHDU: Convergence failed at  84  side 2    Res =  0.4320E+03
 MRCHDU: Convergence failed at  85  side 2    Res =  0.3828E+03
 Side 1  free  transition at x/c =  0.9845   75
 Side 2  free  transition at x/c =  0.0807   17

   5   rms: 0.1681E+01   max: 0.5054E+01   D at   88  2   RLX: 0.120
       a = -4.000      CL = -3.5152
      Cm =  0.8499     CD =  0.00756   =>   CDf =  0.00138    CDp =  0.00618

 MRCHDU: Convergence failed at  88  side 2    Res =  0.1441E+01
 MRCHDU: Convergence failed at  89  side 2    Res =  0.3637E+01
 MRCHDU: Convergence failed at  90  side 2    Res =  0.1996E+01
 Side 1  free  transition at x/c =  0.9993   77
 Side 2  free  transition at x/c =  0.0817   17

   6   rms: 0.8071E+01   max: 0.9695E+02   T at   17  2   RLX: 0.006
       a = -4.000      CL = -3.0514
      Cm =  0.6883     CD =  0.08572   =>   CDf =  0.00241    CDp =  0.08331

 Side 1 forced transition at x/c =  1.0000   77
 Side 2  free  transition at x/c =  0.0654   16

   7   rms: 0.2621E+01   max: -.1169E+02   D at   76  1   RLX: 0.043
       a = -4.000      CL = -2.9010
      Cm =  0.6560     CD =  0.07866   =>   CDf =  0.00245    CDp =  0.07621

 Side 1 forced transition at x/c =  1.0000   77
 Side 2  free  transition at x/c =  0.0634   16

   8   rms: 0.2104E+01   max: -.1294E+02   D at   76  1   RLX: 0.039
       a = -4.000      CL = -2.7815
      Cm =  0.6227     CD =  0.09228   =>   CDf =  0.00282    CDp =  0.08946

 Side 1 forced transition at x/c =  1.0000   77
 Side 2  free  transition at x/c =  0.0637   16

   9   rms: 0.1330E+01   max: 0.4496E+01   D at   94  2   RLX: 0.114
       a = -4.000      CL = -2.5349
      Cm =  0.5509     CD =  0.10536   =>   CDf =  0.00316    CDp =  0.10220

 MRCHDU: Convergence failed at  99  side 2    Res =  0.1570E+01
 MRCHDU: Convergence failed at 100  side 2    Res =  0.1980E+01
 MRCHDU: Convergence failed at 101  side 2    Res =  0.1411E+01
 MRCHDU: Convergence failed at 102  side 2    Res =  0.3826E+01
 MRCHDU: Convergence failed at 103  side 2    Res =  0.4467E+01
 Side 1 forced transition at x/c =  1.0000   77
 Side 2  free  transition at x/c =  0.0551   15

  10   rms: 0.1159E+01   max: -.4161E+01   T at   16  2   RLX: 0.120
       a = -4.000      CL = -2.2761
      Cm =  0.4822     CD =  0.12721   =>   CDf =  0.00391    CDp =  0.12330

 Side 1 forced transition at x/c =  1.0000   78
 Side 2  free  transition at x/c =  0.0487   14

  11   rms: 0.1163E+01   max: -.5843E+01   D at  106  2   RLX: 0.086
       a = -4.000      CL = -2.1055
      Cm =  0.4345     CD =  0.17800   =>   CDf =  0.00401    CDp =  0.17400

 Side 1 forced transition at x/c =  1.0000   78
 Side 2  free  transition at x/c =  0.0465   14

  12   rms: 0.1108E+01   max: 0.8139E+01   T at   14  2   RLX: 0.084
       a = -4.000      CL = -1.9922
      Cm =  0.3957     CD =  0.22160   =>   CDf =  0.00422    CDp =  0.21738

 Side 1 forced transition at x/c =  1.0000   78
 Side 2  free  transition at x/c =  0.0436   13

  13   rms: 0.7711E+01   max: -.4367E+02   T at   68  2   RLX: 0.011
       a = -4.000      CL = -2.0179
      Cm =  0.4106     CD =  0.38460   =>   CDf =  0.00449    CDp =  0.38011

 MRCHDU: Convergence failed at  83  side 2    Res =  0.5561E-03
 MRCHDU: Convergence failed at  84  side 2    Res =  0.1552E-01
 Side 1 forced transition at x/c =  1.0000   78
 Side 2  free  transition at x/c =  0.0436   13

  14   rms: 0.1835E+01   max: 0.1039E+02   D at  106  2   RLX: 0.144
       a = -4.000      CL = -1.7306
      Cm =  0.3428     CD =  0.44147   =>   CDf =  0.00454    CDp =  0.43693

 MRCHDU: Convergence failed at 100  side 2    Res =  0.3235E+01
 MRCHDU: Convergence failed at 101  side 2    Res =  0.2039E+01
 MRCHDU: Convergence failed at 102  side 2    Res =  0.4524E+01
 MRCHDU: Convergence failed at 103  side 2    Res =  0.1442E+02
 MRCHDU: Convergence failed at 104  side 2    Res =  0.3884E+01
 MRCHDU: Convergence failed at 105  side 2    Res =  0.7720E+01
 MRCHDU: Convergence failed at 106  side 2    Res =  0.3138E+01
 Side 1 forced transition at x/c =  1.0000   78
 Side 2  free  transition at x/c =  0.0436   13

  15   rms: 0.2622E+01   max: 0.1428E+02   T at   69  2   RLX: 0.079
       a = -4.000      CL = -1.5667
      Cm =  0.3016     CD =  0.25964   =>   CDf =  0.00437    CDp =  0.25527

 Side 1 forced transition at x/c =  1.0000   78
 Side 2  free  transition at x/c =  0.0434   13

  16   rms: 0.6772E+00   max: -.2580E+01   T at   83  2   RLX: 0.194
       a = -4.000      CL = -1.3887
      Cm =  0.2462     CD =  0.22910   =>   CDf =  0.00429    CDp =  0.22481

 MRCHDU: Convergence failed at 104  side 2    Res =  0.3984E+02
 Side 1 forced transition at x/c =  1.0000   78
 Side 2  free  transition at x/c =  0.0434   13

  17   rms: 0.5438E+01   max: -.3655E+02   D at  106  2   RLX: 0.014
       a = -4.000      CL = -1.4274
      Cm =  0.2454     CD =  0.34801   =>   CDf =  0.00450    CDp =  0.34351

 Side 1 forced transition at x/c =  1.0000   78
 Side 2  free  transition at x/c =  0.0425   13

  18   rms: 0.9737E+00   max: -.5165E+01   T at  106  2   RLX: 0.097
       a = -4.000      CL = -1.3011
      Cm =  0.2103     CD =  0.29414   =>   CDf =  0.00469    CDp =  0.28946

 Side 1 forced transition at x/c =  1.0000   78
 Side 2  free  transition at x/c =  0.0426   13

  19   rms: 0.6572E+00   max: 0.5845E+01   T at   85  2   RLX: 0.257
       a = -4.000      CL = -0.9917
      Cm =  0.1365     CD =  0.39698   =>   CDf =  0.00476    CDp =  0.39222

 MRCHDU: Convergence failed at  80  side 2    Res =  0.2587E+00
 MRCHDU: Convergence failed at  81  side 2    Res =  0.8182E+00
 MRCHDU: Convergence failed at  82  side 2    Res =  0.2214E+00
 MRCHDU: Convergence failed at  83  side 2    Res =  0.1714E+00
 Side 1 forced transition at x/c =  1.0000   78
 Side 2  free  transition at x/c =  0.0428   13

  20   rms: 0.6234E+02   max: -.3731E+03   D at  106  2   RLX: 0.001
       a = -4.000      CL = -0.9523
      Cm =  0.1218     CD =  0.30856   =>   CDf =  0.00472    CDp =  0.30384

 MRCHDU: Convergence failed at  80  side 2    Res =  0.7324E-01
 MRCHDU: Convergence failed at  81  side 2    Res =  0.6080E-01
 MRCHDU: Convergence failed at  82  side 2    Res =  0.3802E-01
 MRCHDU: Convergence failed at  83  side 2    Res =  0.1563E-01
 MRCHDU: Convergence failed at  84  side 2    Res =  0.8757E-01
 Side 1 forced transition at x/c =  1.0000   78
 Side 2  free  transition at x/c =  0.0428   13

  21   rms: 0.1677E+01   max: 0.1074E+02   D at  106  2   RLX: 0.140
       a = -4.000      CL = -0.7252
      Cm =  0.0862     CD =  0.66592   =>   CDf =  0.00476    CDp =  0.66116

 MRCHDU: Convergence failed at  79  side 2    Res =  0.6340E-01
 MRCHDU: Convergence failed at  80  side 2    Res =  0.4910E-01
 MRCHDU: Convergence failed at  81  side 2    Res =  0.4458E-01
 MRCHDU: Convergence failed at  82  side 2    Res =  0.3144E-01
 MRCHDU: Convergence failed at  83  side 2    Res =  0.1375E-01
 MRCHDU: Convergence failed at  84  side 2    Res =  0.1708E+00
 MRCHDU: Convergence failed at 105  side 2    Res =  0.3194E+01
 Side 1 forced transition at x/c =  1.0000   78
 Side 2  free  transition at x/c =  0.0433   13

  22   rms: 0.1055E+01   max: -.3281E+01   T at   84  2   RLX: 0.152
       a = -4.000      CL = -0.5085
      Cm =  0.0471     CD =  0.43567   =>   CDf =  0.00430    CDp =  0.43137

 MRCHDU: Convergence failed at  80  side 2    Res =  0.3856E-01
 MRCHDU: Convergence failed at  81  side 2    Res =  0.5368E-01
 MRCHDU: Convergence failed at  82  side 2    Res =  0.3322E-01
 MRCHDU: Convergence failed at  83  side 2    Res =  0.1178E-01
 MRCHDU: Convergence failed at  84  side 2    Res =  0.1881E-02
 Side 1 forced transition at x/c =  1.0000   78
 Side 2  free  transition at x/c =  0.0410   13

  23   rms: 0.8348E+00   max: -.5050E+01   T at   84  2   RLX: 0.099
       a = -4.000      CL = -0.4042
      Cm =  0.0195     CD =  0.35269   =>   CDf =  0.00406    CDp =  0.34862

 MRCHDU: Convergence failed at  78  side 2    Res =  0.3473E-01
 MRCHDU: Convergence failed at  80  side 2    Res =  0.1779E+00
 MRCHDU: Convergence failed at  81  side 2    Res =  0.3041E-01
 MRCHDU: Convergence failed at  82  side 2    Res =  0.1376E-01
 MRCHDU: Convergence failed at  83  side 2    Res =  0.9833E-03
 Side 1 forced transition at x/c =  1.0000   79
 Side 2  free  transition at x/c =  0.0409   12

  24   rms: 0.2549E+01   max: -.1801E+02   T at    2  1   RLX: 0.028
       a = -4.000      CL = -0.3763
      Cm =  0.0140     CD =  0.29218   =>   CDf =  0.00382    CDp =  0.28836

 MRCHDU: Convergence failed at  78  side 2    Res =  0.4547E-01
 MRCHDU: Convergence failed at  79  side 2    Res =  0.1255E+00
 MRCHDU: Convergence failed at  80  side 2    Res =  0.1479E+00
 MRCHDU: Convergence failed at  81  side 2    Res =  0.4637E-01
 MRCHDU: Convergence failed at  82  side 2    Res =  0.1017E-01
 MRCHDU: Convergence failed at  83  side 2    Res =  0.5751E-03
 Side 1 forced transition at x/c =  1.0000   79
 Side 2  free  transition at x/c =  0.0408   12

  25   rms: 0.2033E+01   max: -.1896E+02   T at   83  2   RLX: 0.026
       a = -4.000      CL = -0.3522
      Cm =  0.0100     CD =  0.31416   =>   CDf =  0.00375    CDp =  0.31041

 MRCHDU: Convergence failed at  78  side 2    Res =  0.6574E-01
 Side 1 forced transition at x/c =  1.0000   79
 Side 2  free  transition at x/c =  0.0407   12

  26   rms: 0.1670E+01   max: 0.2348E+02   T at   83  2   RLX: 0.054
       a = -4.000      CL = -0.3287
      Cm =  0.0046     CD =  0.15694   =>   CDf =  0.00368    CDp =  0.15326

 MRCHDU: Convergence failed at  78  side 2    Res =  0.3669E-01
 Side 1 forced transition at x/c =  1.0000   79
 Side 2  free  transition at x/c =  0.0408   12

  27   rms: 0.1090E+01   max: -.1685E+02   C at   79  2   RLX: 0.030
       a = -4.000      CL = -0.3179
      Cm =  0.0017     CD =  0.15384   =>   CDf =  0.00363    CDp =  0.15022

 Side 1 forced transition at x/c =  1.0000   79
 Side 2  free  transition at x/c =  0.0409   12

  28   rms: 0.1750E+01   max: -.1717E+02   T at   83  2   RLX: 0.029
       a = -4.000      CL = -0.3090
      Cm = -0.0006     CD =  0.15703   =>   CDf =  0.00360    CDp =  0.15342

 Side 1 forced transition at x/c =  1.0000   79
 Side 2  free  transition at x/c =  0.0410   12

  29   rms: 0.2765E+01   max: -.3155E+02   C at   79  2   RLX: 0.016
       a = -4.000      CL = -0.3040
      Cm = -0.0020     CD =  0.16365   =>   CDf =  0.00358    CDp =  0.16007

 Side 1 forced transition at x/c =  1.0000   79
 Side 2  free  transition at x/c =  0.0411   12

  30   rms: 0.3604E+01   max: -.4392E+02   C at   83  2   RLX: 0.011
       a = -4.000      CL = -0.3007
      Cm = -0.0028     CD =  0.16350   =>   CDf =  0.00357    CDp =  0.15993

 Side 1 forced transition at x/c =  1.0000   79
 Side 2  free  transition at x/c =  0.0411   12

  31   rms: 0.5643E+01   max: -.6557E+02   C at   83  2   RLX: 0.008
       a = -4.000      CL = -0.2988
      Cm = -0.0034     CD =  0.16346   =>   CDf =  0.00356    CDp =  0.15991

 Side 1 forced transition at x/c =  1.0000   79
 Side 2  free  transition at x/c =  0.0412   12

  32   rms: 0.8779E+01   max: -.1012E+03   C at   83  2   RLX: 0.005
       a = -4.000      CL = -0.2974
      Cm = -0.0038     CD =  0.16329   =>   CDf =  0.00355    CDp =  0.15974

 Side 1 forced transition at x/c =  1.0000   79
 Side 2  free  transition at x/c =  0.0412   12

  33   rms: 0.7974E+01   max: -.9200E+02   C at   83  2   RLX: 0.005
       a = -4.000      CL = -0.2957
      Cm = -0.0041     CD =  0.16137   =>   CDf =  0.00355    CDp =  0.15783

 Side 1 forced transition at x/c =  1.0000   79
 Side 2  free  transition at x/c =  0.0412   12

  34   rms: 0.1634E+02   max: -.1867E+03   C at   83  2   RLX: 0.003
       a = -4.000      CL = -0.2948
      Cm = -0.0044     CD =  0.16075   =>   CDf =  0.00354    CDp =  0.15721

 Side 1 forced transition at x/c =  1.0000   79
 Side 2  free  transition at x/c =  0.0412   12

  35   rms: 0.1195E+02   max: -.1365E+03   C at   83  2   RLX: 0.004
       a = -4.000      CL = -0.2938
      Cm = -0.0046     CD =  0.16015   =>   CDf =  0.00354    CDp =  0.15661

 Side 1 forced transition at x/c =  1.0000   79
 Side 2  free  transition at x/c =  0.0412   12

  36   rms: 0.2125E+02   max: -.2405E+03   C at   83  2   RLX: 0.002
       a = -4.000      CL = -0.2931
      Cm = -0.0048     CD =  0.15960   =>   CDf =  0.00353    CDp =  0.15607

 Side 1 forced transition at x/c =  1.0000   79
 Side 2  free  transition at x/c =  0.0412   12

  37   rms: 0.2250E+02   max: -.2540E+03   C at   83  2   RLX: 0.002
       a = -4.000      CL = -0.2927
      Cm = -0.0049     CD =  0.15956   =>   CDf =  0.00353    CDp =  0.15603

 Side 1 forced transition at x/c =  1.0000   79
 Side 2  free  transition at x/c =  0.0412   12

  38   rms: 0.2827E+02   max: -.3167E+03   C at   83  2   RLX: 0.002
       a = -4.000      CL = -0.2923
      Cm = -0.0050     CD =  0.15958   =>   CDf =  0.00353    CDp =  0.15605

 Side 1 forced transition at x/c =  1.0000   79
 Side 2  free  transition at x/c =  0.0412   12

  39   rms: 0.2463E+02   max: -.2767E+03   C at   83  2   RLX: 0.002
       a = -4.000      CL = -0.2917
      Cm = -0.0051     CD =  0.15907   =>   CDf =  0.00353    CDp =  0.15555

 Side 1 forced transition at x/c =  1.0000   79
 Side 2  free  transition at x/c =  0.0412   12

  40   rms: 0.3268E+02   max: -.3645E+03   C at   82  2   RLX: 0.001
       a = -4.000      CL = -0.2915
      Cm = -0.0052     CD =  0.15919   =>   CDf =  0.00352    CDp =  0.15566

 Side 1 forced transition at x/c =  1.0000   79
 Side 2  free  transition at x/c =  0.0412   12

  41   rms: 0.4132E+02   max: -.4608E+03   C at   83  2   RLX: 0.001
       a = -4.000      CL = -0.2912
      Cm = -0.0053     CD =  0.15926   =>   CDf =  0.00352    CDp =  0.15573

 Side 1 forced transition at x/c =  1.0000   79
 Side 2  free  transition at x/c =  0.0413   12

  42   rms: 0.5268E+02   max: -.5872E+03   C at   83  2   RLX: 0.001
       a = -4.000      CL = -0.2910
      Cm = -0.0054     CD =  0.15915   =>   CDf =  0.00352    CDp =  0.15562

 Side 1 forced transition at x/c =  1.0000   79
 Side 2  free  transition at x/c =  0.0413   12

  43   rms: 0.4691E+02   max: -.5221E+03   C at   83  2   RLX: 0.001
       a = -4.000      CL = -0.2907
      Cm = -0.0054     CD =  0.15904   =>   CDf =  0.00352    CDp =  0.15552

 Side 1 forced transition at x/c =  1.0000   79
 Side 2  free  transition at x/c =  0.0413   12

  44   rms: 0.7207E+02   max: -.8018E+03   C at   83  2   RLX: 0.001
       a = -4.000      CL = -0.2905
      Cm = -0.0055     CD =  0.15897   =>   CDf =  0.00352    CDp =  0.15545

 Side 1 forced transition at x/c =  1.0000   79
 Side 2  free  transition at x/c =  0.0413   12

  45   rms: 0.6730E+02   max: -.7495E+03   C at   83  2   RLX: 0.001
       a = -4.000      CL = -0.2904
      Cm = -0.0055     CD =  0.15898   =>   CDf =  0.00352    CDp =  0.15546

 Side 1 forced transition at x/c =  1.0000   79
 Side 2  free  transition at x/c =  0.0413   12

  46   rms: 0.7792E+02   max: -.8688E+03   C at   83  2   RLX: 0.001
       a = -4.000      CL = -0.2902
      Cm = -0.0056     CD =  0.15887   =>   CDf =  0.00352    CDp =  0.15535

 Side 1 forced transition at x/c =  1.0000   79
 Side 2  free  transition at x/c =  0.0413   12

  47   rms: 0.8735E+02   max: -.9724E+03   C at   83  2   RLX: 0.001
       a = -4.000      CL = -0.2900
      Cm = -0.0056     CD =  0.15873   =>   CDf =  0.00352    CDp =  0.15521

 Side 1 forced transition at x/c =  1.0000   79
 Side 2  free  transition at x/c =  0.0413   12

  48   rms: 0.1019E+03   max: -.1133E+04   C at   83  2   RLX: 0.000
       a = -4.000      CL = -0.2899
      Cm = -0.0056     CD =  0.15870   =>   CDf =  0.00352    CDp =  0.15518

 Side 1 forced transition at x/c =  1.0000   79
 Side 2  free  transition at x/c =  0.0413   12

  49   rms: 0.1147E+03   max: -.1278E+04   C at   83  2   RLX: 0.000
       a = -4.000      CL = -0.2898
      Cm = -0.0056     CD =  0.15861   =>   CDf =  0.00352    CDp =  0.15509

 Side 1 forced transition at x/c =  1.0000   79
 Side 2  free  transition at x/c =  0.0413   12

  50   rms: 0.1122E+03   max: -.1248E+04   C at   83  2   RLX: 0.000
       a = -4.000      CL = -0.2897
      Cm = -0.0057     CD =  0.15854   =>   CDf =  0.00352    CDp =  0.15502

 MRCHDU: Convergence failed at  82  side 2    Res =  0.7636E-02
 MRCHDU: Convergence failed at  83  side 2    Res =  0.3163E-02
 Side 1 forced transition at x/c =  1.0000   79
 Side 2  free  transition at x/c =  0.0413   12

  51   rms: 0.1272E+03   max: -.1416E+04   C at   83  2   RLX: 0.000
       a = -4.000      CL = -0.2896
      Cm = -0.0057     CD =  0.15843   =>   CDf =  0.00352    CDp =  0.15492

 MRCHDU: Convergence failed at  81  side 2    Res =  0.2635E-01
 MRCHDU: Convergence failed at  82  side 2    Res =  0.3325E-01
 MRCHDU: Convergence failed at  83  side 2    Res =  0.3182E-02
 Side 1 forced transition at x/c =  1.0000   79
 Side 2  free  transition at x/c =  0.0413   12

  52   rms: 0.9405E+02   max: -.1046E+04   C at   83  2   RLX: 0.000
       a = -4.000      CL = -0.2894
      Cm = -0.0057     CD =  0.15824   =>   CDf =  0.00352    CDp =  0.15472

 MRCHDU: Convergence failed at  78  side 2    Res =  0.1171E-04
 MRCHDU: Convergence failed at  80  side 2    Res =  0.2041E-01
 MRCHDU: Convergence failed at  81  side 2    Res =  0.5754E-01
 MRCHDU: Convergence failed at  82  side 2    Res =  0.3328E-01
 MRCHDU: Convergence failed at  83  side 2    Res =  0.3214E-02
 Side 1 forced transition at x/c =  1.0000   79
 Side 2  free  transition at x/c =  0.0413   12

  53   rms: 0.2052E+03   max: -.2278E+04   C at   83  2   RLX: 0.000
       a = -4.000      CL = -0.2894
      Cm = -0.0057     CD =  0.15822   =>   CDf =  0.00352    CDp =  0.15471

 MRCHDU: Convergence failed at  80  side 2    Res =  0.7218E-01
 MRCHDU: Convergence failed at  81  side 2    Res =  0.5760E-01
 MRCHDU: Convergence failed at  82  side 2    Res =  0.3330E-01
 MRCHDU: Convergence failed at  83  side 2    Res =  0.3213E-02
 Side 1 forced transition at x/c =  1.0000   79
 Side 2  free  transition at x/c =  0.0413   12

  54   rms: 0.2116E+03   max: -.2349E+04   C at   83  2   RLX: 0.000
       a = -4.000      CL = -0.2893
      Cm = -0.0058     CD =  0.15824   =>   CDf =  0.00352    CDp =  0.15473

 MRCHDU: Convergence failed at  79  side 2    Res =  0.4522E-01
 MRCHDU: Convergence failed at  80  side 2    Res =  0.7867E-01
 MRCHDU: Convergence failed at  81  side 2    Res =  0.5764E-01
 MRCHDU: Convergence failed at  82  side 2    Res =  0.3332E-01
 MRCHDU: Convergence failed at  83  side 2    Res =  0.3205E-02
 Side 1 forced transition at x/c =  1.0000   79
 Side 2  free  transition at x/c =  0.0413   12

  55   rms: 0.1279E+03   max: -.1423E+04   C at   83  2   RLX: 0.000
       a = -4.000      CL = -0.2892
      Cm = -0.0058     CD =  0.15809   =>   CDf =  0.00352    CDp =  0.15457

 MRCHDU: Convergence failed at  79  side 2    Res =  0.9647E-01
 MRCHDU: Convergence failed at  80  side 2    Res =  0.7878E-01
 MRCHDU: Convergence failed at  81  side 2    Res =  0.5773E-01
 MRCHDU: Convergence failed at  82  side 2    Res =  0.3338E-01
 MRCHDU: Convergence failed at  83  side 2    Res =  0.3233E-02
 Side 1 forced transition at x/c =  1.0000   79
 Side 2  free  transition at x/c =  0.0413   12

  56   rms: 0.1982E+03   max: -.2199E+04   C at   83  2   RLX: 0.000
       a = -4.000      CL = -0.2891
      Cm = -0.0058     CD =  0.15809   =>   CDf =  0.00352    CDp =  0.15457

 MRCHDU: Convergence failed at  78  side 2    Res =  0.4506E-01
 MRCHDU: Convergence failed at  79  side 2    Res =  0.1029E+00
 MRCHDU: Convergence failed at  80  side 2    Res =  0.1053E+00
 MRCHDU: Convergence failed at  81  side 2    Res =  0.6799E-01
 MRCHDU: Convergence failed at  82  side 2    Res =  0.3296E-01
 MRCHDU: Convergence failed at  83  side 2    Res =  0.3187E-02
 Side 1 forced transition at x/c =  1.0000   79
 Side 2  free  transition at x/c =  0.0413   12

  57   rms: 0.2676E+03   max: -.2976E+04   C at   82  2   RLX: 0.000
       a = -4.000      CL = -0.2891
      Cm = -0.0058     CD =  0.15882   =>   CDf =  0.00352    CDp =  0.15531

 MRCHDU: Convergence failed at  78  side 2    Res =  0.9590E-01
 MRCHDU: Convergence failed at  79  side 2    Res =  0.1647E+00
 MRCHDU: Convergence failed at  80  side 2    Res =  0.1627E+00
 MRCHDU: Convergence failed at  81  side 2    Res =  0.6805E-01
 MRCHDU: Convergence failed at  82  side 2    Res =  0.3297E-01
 MRCHDU: Convergence failed at  83  side 2    Res =  0.3176E-02
 Side 1 forced transition at x/c =  1.0000   79
 Side 2  free  transition at x/c =  0.0413   12

  58   rms: 0.1984E+03   max: -.2208E+04   C at   83  2   RLX: 0.000
       a = -4.000      CL = -0.2890
      Cm = -0.0058     CD =  0.15875   =>   CDf =  0.00352    CDp =  0.15524

 MRCHDU: Convergence failed at  78  side 2    Res =  0.1466E+00
 MRCHDU: Convergence failed at  79  side 2    Res =  0.1469E+00
 MRCHDU: Convergence failed at  80  side 2    Res =  0.1295E+00
 Side 1 forced transition at x/c =  1.0000   79
 Side 2  free  transition at x/c =  0.0413   12

  59   rms: 0.6857E+00   max: -.4526E+01   T at   83  2   RLX: 0.110
       a = -4.000      CL = -0.2587
      Cm = -0.0122     CD =  0.17443   =>   CDf =  0.00352    CDp =  0.17092

 Side 1 forced transition at x/c =  1.0000   79
 Side 2  free  transition at x/c =  0.0416   12

  60   rms: 0.9838E+00   max: -.1774E+02   T at   84  2   RLX: 0.028
       a = -4.000      CL = -0.2516
      Cm = -0.0145     CD =  0.24953   =>   CDf =  0.00339    CDp =  0.24614

 Side 1 forced transition at x/c =  1.0000   79
 Side 2  free  transition at x/c =  0.0417   12

  61   rms: 0.9690E+00   max: -.2145E+02   T at   84  2   RLX: 0.023
       a = -4.000      CL = -0.2484
      Cm = -0.0154     CD =  0.25121   =>   CDf =  0.00335    CDp =  0.24786

 Side 1 forced transition at x/c =  1.0000   79
 Side 2  free  transition at x/c =  0.0418   12

  62   rms: 0.6431E+00   max: -.7719E+01   T at   84  2   RLX: 0.065
       a = -4.000      CL = -0.2428
      Cm = -0.0172     CD =  0.23718   =>   CDf =  0.00332    CDp =  0.23386

 Side 1 forced transition at x/c =  1.0000   79
 Side 2  free  transition at x/c =  0.0421   12

  63   rms: 0.1866E+01   max: -.1808E+02   T at   83  2   RLX: 0.028
       a = -4.000      CL = -0.2429
      Cm = -0.0163     CD =  0.26554   =>   CDf =  0.00326    CDp =  0.26228

 Side 1 forced transition at x/c =  1.0000   79
 Side 2  free  transition at x/c =  0.0422   12

  64   rms: 0.8203E+00   max: -.1240E+02   T at   84  2   RLX: 0.040
       a = -4.000      CL = -0.2378
      Cm = -0.0187     CD =  0.29823   =>   CDf =  0.00319    CDp =  0.29504

 MRCHDU: Convergence failed at  82  side 2    Res =  0.2478E-01
 MRCHDU: Convergence failed at  83  side 2    Res =  0.1472E-03
 Side 1 forced transition at x/c =  1.0000   79
 Side 2  free  transition at x/c =  0.0423   12

  65   rms: 0.7680E+01   max: -.6668E+02   T at   83  2   RLX: 0.007
       a = -4.000      CL = -0.2412
      Cm = -0.0164     CD =  0.27350   =>   CDf =  0.00318    CDp =  0.27032

 Side 1 forced transition at x/c =  1.0000   79
 Side 2  free  transition at x/c =  0.0423   12

  66   rms: 0.1383E+01   max: -.2423E+02   T at   83  2   RLX: 0.021
       a = -4.000      CL = -0.2399
      Cm = -0.0169     CD =  0.32009   =>   CDf =  0.00311    CDp =  0.31697

 Side 1 forced transition at x/c =  1.0000   79
 Side 2  free  transition at x/c =  0.0424   12
 idif Ue xi dudx           1  0.29415458      3.78179550E-03   77.781723    
 Uenew xinew           2  3.25457868E-03  4.18424606E-05

  67   rms: 0.2345E+01   max: 0.3345E+02   C at   82  2   RLX: 0.034
       a = -4.000      CL = -0.2359
      Cm = -0.0193     CD =  0.43972   =>   CDf =  0.00298    CDp =  0.43674

 Side 1 forced transition at x/c =  1.0000   78
 Side 2  free  transition at x/c =  0.0425   13

  68   rms: 0.9551E+00   max: -.1674E+02   T at   85  2   RLX: 0.030
       a = -4.000      CL = -0.2349
      Cm = -0.0199     CD =  0.29728   =>   CDf =  0.00307    CDp =  0.29421

 Side 1 forced transition at x/c =  1.0000   78
 Side 2  free  transition at x/c =  0.0425   13

  69   rms: 0.8864E+00   max: -.1691E+02   T at   85  2   RLX: 0.030
       a = -4.000      CL = -0.2321
      Cm = -0.0211     CD =  0.31591   =>   CDf =  0.00304    CDp =  0.31287

 Side 1 forced transition at x/c =  1.0000   78
 Side 2  free  transition at x/c =  0.0426   13

  70   rms: 0.5891E+01   max: -.1350E+03   T at   83  2   RLX: 0.004
       a = -4.000      CL = -0.2292
      Cm = -0.0220     CD =  0.35136   =>   CDf =  0.00302    CDp =  0.34834

 Side 1 forced transition at x/c =  1.0000   78
 Side 2  free  transition at x/c =  0.0426   13

  71   rms: 0.7589E+01   max: 0.1023E+03   T at   83  2   RLX: 0.006
       a = -4.000      CL = -0.2319
      Cm = -0.0218     CD =  0.40258   =>   CDf =  0.00302    CDp =  0.39956

 Side 1 forced transition at x/c =  1.0000   78
 Side 2  free  transition at x/c =  0.0426   13

  72   rms: 0.1527E+02   max: -.2357E+03   C at   84  2   RLX: 0.002
       a = -4.000      CL = -0.2315
      Cm = -0.0218     CD =  0.50457   =>   CDf =  0.00303    CDp =  0.50154

 Side 1 forced transition at x/c =  1.0000   78
 Side 2  free  transition at x/c =  0.0426   13

  73   rms: 0.6480E+01   max: -.1694E+03   T at   83  2   RLX: 0.003
       a = -4.000      CL = -0.2301
      Cm = -0.0221     CD =  0.59996   =>   CDf =  0.00302    CDp =  0.59694

 Side 1 forced transition at x/c =  1.0000   78
 Side 2  free  transition at x/c =  0.0426   13

  74   rms: 0.1394E+03   max: 0.3089E+04   T at   83  2   RLX: 0.000
       a = -4.000      CL = -0.2303
      Cm = -0.0224     CD =  0.65599   =>   CDf =  0.00302    CDp =  0.65297

 Side 1 forced transition at x/c =  1.0000   78
 Side 2  free  transition at x/c =  0.0426   13

  75   rms: 0.1627E+03   max: -.2586E+04   C at   84  2   RLX: 0.000
       a = -4.000      CL = -0.2306
      Cm = -0.0222     CD =  0.48823   =>   CDf =  0.00303    CDp =  0.48520

 Side 1 forced transition at x/c =  1.0000   78
 Side 2  free  transition at x/c =  0.0426   13

  76   rms: 0.3721E+02   max: 0.5645E+03   C at   83  2   RLX: 0.002
       a = -4.000      CL = -0.2311
      Cm = -0.0223     CD =  0.50277   =>   CDf =  0.00303    CDp =  0.49974

 Side 1 forced transition at x/c =  1.0000   78
 Side 2  free  transition at x/c =  0.0427   13

  77   rms: 0.4998E+02   max: -.7856E+03   C at   84  2   RLX: 0.001
       a = -4.000      CL = -0.2320
      Cm = -0.0220     CD =  0.91728   =>   CDf =  0.00303    CDp =  0.91425

 Side 1 forced transition at x/c =  1.0000   78
 Side 2  free  transition at x/c =  0.0427   13

  78   rms: 0.7860E+03   max: -.1244E+05   C at   84  2   RLX: 0.000
       a = -4.000      CL = -0.2321
      Cm = -0.0220     CD =  1.08132   =>   CDf =  0.00303    CDp =  1.07829

 Side 1 forced transition at x/c =  1.0000   78
 Side 2  free  transition at x/c =  0.0427   13

  79   rms: 0.2469E+03   max: -.3893E+04   C at   84  2   RLX: 0.000
       a = -4.000      CL = -0.2321
      Cm = -0.0220     CD =  1.07116   =>   CDf =  0.00303    CDp =  1.06813

 Side 1 forced transition at x/c =  1.0000   78
 Side 2  free  transition at x/c =  0.0427   13

  80   rms: 0.6143E+03   max: 0.9667E+04   C at   83  2   RLX: 0.000
       a = -4.000      CL = -0.2319
      Cm = -0.0220     CD =  1.05180   =>   CDf =  0.00303    CDp =  1.04877

 Side 1 forced transition at x/c =  1.0000   78
 Side 2  free  transition at x/c =  0.0427   13

  81   rms: 0.2568E+03   max: -.4057E+04   C at   84  2   RLX: 0.000
       a = -4.000      CL = -0.2319
      Cm = -0.0220     CD =  1.02729   =>   CDf =  0.00303    CDp =  1.02426

 Side 1 forced transition at x/c =  1.0000   78
 Side 2  free  transition at x/c =  0.0427   13

  82   rms: 0.8017E+03   max: -.1264E+05   C at   84  2   RLX: 0.000
       a = -4.000      CL = -0.2319
      Cm = -0.0220     CD =  1.02913   =>   CDf =  0.00303    CDp =  1.02610

 Side 1 forced transition at x/c =  1.0000   78
 Side 2  free  transition at x/c =  0.0427   13

  83   rms: 0.1117E+03   max: 0.1773E+04   C at   82  2   RLX: 0.001
       a = -4.000      CL = -0.2328
      Cm = -0.0218     CD =  1.02931   =>   CDf =  0.00303    CDp =  1.02628

 Side 1 forced transition at x/c =  1.0000   78
 Side 2  free  transition at x/c =  0.0427   13

  84   rms: 0.1712E+03   max: -.2714E+04   C at   84  2   RLX: 0.000
       a = -4.000      CL = -0.2330
      Cm = -0.0218     CD =  0.90336   =>   CDf =  0.00303    CDp =  0.90034

 Side 1 forced transition at x/c =  1.0000   78
 Side 2  free  transition at x/c =  0.0427   13

  85   rms: 0.1206E+03   max: 0.1898E+04   C at   83  2   RLX: 0.001
       a = -4.000      CL = -0.2333
      Cm = -0.0218     CD =  0.91405   =>   CDf =  0.00303    CDp =  0.91102

 Side 1 forced transition at x/c =  1.0000   78
 Side 2  free  transition at x/c =  0.0427   13

  86   rms: 0.2632E+03   max: -.4202E+04   C at   84  2   RLX: 0.000
       a = -4.000      CL = -0.2333
      Cm = -0.0218     CD =  0.92205   =>   CDf =  0.00303    CDp =  0.91902

 Side 1 forced transition at x/c =  1.0000   78
 Side 2  free  transition at x/c =  0.0427   13

  87   rms: 0.1785E+03   max: 0.2832E+04   C at   83  2   RLX: 0.001
       a = -4.000      CL = -0.2331
      Cm = -0.0218     CD =  0.94278   =>   CDf =  0.00303    CDp =  0.93975

 Side 1 forced transition at x/c =  1.0000   78
 Side 2  free  transition at x/c =  0.0427   13

  88   rms: 0.1687E+03   max: 0.2697E+04   C at   84  2   RLX: 0.001
       a = -4.000      CL = -0.2330
      Cm = -0.0219     CD =  0.92870   =>   CDf =  0.00303    CDp =  0.92567

 Side 1 forced transition at x/c =  1.0000   78
 Side 2  free  transition at x/c =  0.0427   13

  89   rms: 0.1007E+03   max: -.1606E+04   C at   84  2   RLX: 0.000
       a = -4.000      CL = -0.2329
      Cm = -0.0219     CD =  0.91690   =>   CDf =  0.00303    CDp =  0.91387

 Side 1 forced transition at x/c =  1.0000   78
 Side 2  free  transition at x/c =  0.0427   13

  90   rms: 0.5604E+03   max: 0.8898E+04   C at   83  2   RLX: 0.000
       a = -4.000      CL = -0.2329
      Cm = -0.0219     CD =  0.93538   =>   CDf =  0.00303    CDp =  0.93236

 Side 1 forced transition at x/c =  1.0000   78
 Side 2  free  transition at x/c =  0.0427   13

  91   rms: 0.1233E+03   max: -.1970E+04   C at   84  2   RLX: 0.000
       a = -4.000      CL = -0.2329
      Cm = -0.0219     CD =  0.90430   =>   CDf =  0.00303    CDp =  0.90127

 Side 1 forced transition at x/c =  1.0000   78
 Side 2  free  transition at x/c =  0.0427   13

  92   rms: 0.2864E+03   max: -.4546E+04   C at   84  2   RLX: 0.000
       a = -4.000      CL = -0.2328
      Cm = -0.0219     CD =  0.89827   =>   CDf =  0.00303    CDp =  0.89524

 Side 1 forced transition at x/c =  1.0000   78
 Side 2  free  transition at x/c =  0.0427   13

  93   rms: 0.2358E+03   max: 0.3730E+04   C at   83  2   RLX: 0.000
       a = -4.000      CL = -0.2326
      Cm = -0.0220     CD =  0.91820   =>   CDf =  0.00303    CDp =  0.91517

 Side 1 forced transition at x/c =  1.0000   78
 Side 2  free  transition at x/c =  0.0427   13

  94   rms: 0.1765E+02   max: 0.2793E+03   C at   83  2   RLX: 0.005
       a = -4.000      CL = -0.2296
      Cm = -0.0227     CD =  0.97265   =>   CDf =  0.00303    CDp =  0.96962

 Side 1 forced transition at x/c =  1.0000   78
 Side 2  free  transition at x/c =  0.0427   13

  95   rms: 0.7257E+02   max: 0.1359E+04   T at   83  2   RLX: 0.001
       a = -4.000      CL = -0.2309
      Cm = -0.0225     CD =  1.01805   =>   CDf =  0.00303    CDp =  1.01503

 Side 1 forced transition at x/c =  1.0000   78
 Side 2  free  transition at x/c =  0.0427   13

  96   rms: 0.4389E+04   max: 0.6975E+05   C at   84  2   RLX: 0.000
       a = -4.000      CL = -0.2308
      Cm = -0.0225     CD =  1.17269   =>   CDf =  0.00302    CDp =  1.16967

 Side 1 forced transition at x/c =  1.0000   78
 Side 2  free  transition at x/c =  0.0427   13

  97   rms: 0.7910E+03   max: -.1251E+05   C at   84  2   RLX: 0.000
       a = -4.000      CL = -0.2307
      Cm = -0.0225     CD =  1.17509   =>   CDf =  0.00302    CDp =  1.17207

 Side 1 forced transition at x/c =  1.0000   78
 Side 2  free  transition at x/c =  0.0427   13

  98   rms: 0.1136E+04   max: -.1807E+05   C at   83  2   RLX: 0.000
       a = -4.000      CL = -0.2308
      Cm = -0.0225     CD =  1.14520   =>   CDf =  0.00302    CDp =  1.14217

 Side 1 forced transition at x/c =  1.0000   78
 Side 2  free  transition at x/c =  0.0427   13

  99   rms: 0.3668E+04   max: -.5788E+05   C at   84  2   RLX: 0.000
       a = -4.000      CL = -0.2308
      Cm = -0.0225     CD =  1.23830   =>   CDf =  0.00302    CDp =  1.23528

 Side 1 forced transition at x/c =  1.0000   78
 Side 2  free  transition at x/c =  0.0427   13

 100   rms: 0.1447E+05   max: -.2280E+06   C at   84  2   RLX: 0.000
       a = -4.000      CL = -0.2308
      Cm = -0.0225     CD =  1.24908   =>   CDf =  0.00302    CDp =  1.24606

 Side 1 forced transition at x/c =  1.0000   78
 Side 2  free  transition at x/c =  0.0427   13

 101   rms: 0.1354E+05   max: 0.2129E+06   C at   84  2   RLX: 0.000
       a = -4.000      CL = -0.2307
      Cm = -0.0225     CD =  1.25315   =>   CDf =  0.00302    CDp =  1.25013

 Side 1 forced transition at x/c =  1.0000   78
 Side 2  free  transition at x/c =  0.0427   13

 102   rms: 0.4814E+03   max: 0.7071E+04   C at   82  2   RLX: 0.000
       a = -4.000      CL = -0.2313
      Cm = -0.0224     CD =  1.15988   =>   CDf =  0.00302    CDp =  1.15686

 Side 1 forced transition at x/c =  1.0000   78
 Side 2  free  transition at x/c =  0.0427   13

 103   rms: 0.4917E+02   max: 0.7819E+03   C at   83  2   RLX: 0.002
       a = -4.000      CL = -0.2313
      Cm = -0.0225     CD =  0.73008   =>   CDf =  0.00302    CDp =  0.72706

 Side 1 forced transition at x/c =  1.0000   78
 Side 2  free  transition at x/c =  0.0427   13

 104   rms: 0.1692E+02   max: 0.2707E+03   C at   83  2   RLX: 0.006
       a = -4.000      CL = -0.2315
      Cm = -0.0226     CD =  0.91455   =>   CDf =  0.00302    CDp =  0.91153

 Side 1 forced transition at x/c =  1.0000   78
 Side 2  free  transition at x/c =  0.0427   13

 105   rms: 0.4582E+01   max: 0.1056E+03   T at   84  2   RLX: 0.013
       a = -4.000      CL = -0.2327
      Cm = -0.0225     CD =  0.82605   =>   CDf =  0.00302    CDp =  0.82303

 Side 1 forced transition at x/c =  1.0000   78
 Side 2  free  transition at x/c =  0.0427   13

 106   rms: 0.6118E+01   max: 0.1378E+03   T at   83  2   RLX: 0.011
       a = -4.000      CL = -0.2343
      Cm = -0.0224     CD =  0.38516   =>   CDf =  0.00301    CDp =  0.38215

 Side 1 forced transition at x/c =  1.0000   78
 Side 2  free  transition at x/c =  0.0428   13

 107   rms: 0.3505E+01   max: -.5129E+02   T at   82  2   RLX: 0.010
       a = -4.000      CL = -0.2324
      Cm = -0.0231     CD =  0.35244   =>   CDf =  0.00300    CDp =  0.34944

 Side 1 forced transition at x/c =  1.0000   78
 Side 2  free  transition at x/c =  0.0428   13

 108   rms: 0.4444E+01   max: 0.1171E+03   T at   82  2   RLX: 0.013
       a = -4.000      CL = -0.2291
      Cm = -0.0240     CD =  0.35847   =>   CDf =  0.00300    CDp =  0.35547

 Side 1 forced transition at x/c =  1.0000   78
 Side 2  free  transition at x/c =  0.0428   13

 109   rms: 0.1318E+02   max: -.2114E+03   C at   84  2   RLX: 0.002
       a = -4.000      CL = -0.2282
      Cm = -0.0243     CD =  0.32300   =>   CDf =  0.00299    CDp =  0.32001

 Side 1 forced transition at x/c =  1.0000   78
 Side 2  free  transition at x/c =  0.0428   13

 110   rms: 0.1646E+02   max: 0.2620E+03   C at   83  2   RLX: 0.006
       a = -4.000      CL = -0.2280
      Cm = -0.0245     CD =  0.32384   =>   CDf =  0.00299    CDp =  0.32085

 Side 1 forced transition at x/c =  1.0000   78
 Side 2  free  transition at x/c =  0.0428   13

 111   rms: 0.1123E+02   max: 0.1803E+03   C at   83  2   RLX: 0.008
       a = -4.000      CL = -0.2276
      Cm = -0.0250     CD =  0.33899   =>   CDf =  0.00299    CDp =  0.33600

 Side 1 forced transition at x/c =  1.0000   78
 Side 2  free  transition at x/c =  0.0428   13

 112   rms: 0.1794E+01   max: -.2565E+02   C at   84  2   RLX: 0.019
       a = -4.000      CL = -0.2270
      Cm = -0.0253     CD =  0.33774   =>   CDf =  0.00299    CDp =  0.33475

 Side 1 forced transition at x/c =  1.0000   78
 Side 2  free  transition at x/c =  0.0429   13

 113   rms: 0.9720E+00   max: -.1503E+02   T at   85  2   RLX: 0.033
       a = -4.000      CL = -0.2267
      Cm = -0.0258     CD =  0.36778   =>   CDf =  0.00297    CDp =  0.36481

 Side 1  free  transition at x/c =  0.9960   78
 Side 2  free  transition at x/c =  0.0429   13

 114   rms: 0.1030E+01   max: 0.2141E+02   T at   85  2   RLX: 0.063
       a = -4.000      CL = -0.2153
      Cm = -0.0304     CD =  0.31324   =>   CDf =  0.00294    CDp =  0.31030

 Side 1  free  transition at x/c =  0.9948   77
 Side 2  free  transition at x/c =  0.0430   13

 115   rms: 0.8373E+00   max: 0.1703E+02   T at   85  2   RLX: 0.088
       a = -4.000      CL = -0.2058
      Cm = -0.0355     CD =  0.24971   =>   CDf =  0.00293    CDp =  0.24678

 Side 1  free  transition at x/c =  0.9934   77
 Side 2  free  transition at x/c =  0.0432   13

 116   rms: 0.1190E+01   max: 0.1705E+02   T at   85  2   RLX: 0.034
       a = -4.000      CL = -0.2030
      Cm = -0.0375     CD =  0.30409   =>   CDf =  0.00292    CDp =  0.30116

 Side 1  free  transition at x/c =  0.9928   77
 Side 2  free  transition at x/c =  0.0432   13

 117   rms: 0.1732E+01   max: 0.2541E+02   T at   84  2   RLX: 0.054
       a = -4.000      CL = -0.2073
      Cm = -0.0387     CD =  0.39801   =>   CDf =  0.00292    CDp =  0.39509

 Side 1  free  transition at x/c =  0.9947   77
 Side 2  free  transition at x/c =  0.0433   13

 118   rms: 0.7636E+00   max: 0.1524E+02   T at   85  2   RLX: 0.098
       a = -4.000      CL = -0.2035
      Cm = -0.0434     CD =  0.18001   =>   CDf =  0.00291    CDp =  0.17710

 Side 1  free  transition at x/c =  0.9936   77
 Side 2  free  transition at x/c =  0.0434   13

 119   rms: 0.7327E+00   max: 0.1417E+02   T at   85  2   RLX: 0.106
       a = -4.000      CL = -0.2002
      Cm = -0.0493     CD =  0.16449   =>   CDf =  0.00291    CDp =  0.16158

 Side 1  free  transition at x/c =  0.9923   77
 Side 2  free  transition at x/c =  0.0435   13

 120   rms: 0.6694E+00   max: 0.1256E+02   T at   85  2   RLX: 0.119
       a = -4.000      CL = -0.2085
      Cm = -0.0553     CD =  0.14870   =>   CDf =  0.00290    CDp =  0.14580

 Side 1  free  transition at x/c =  0.9925   77
 Side 2  free  transition at x/c =  0.0436   13

 121   rms: 0.6202E+00   max: 0.1077E+02   T at   85  2   RLX: 0.139
       a = -4.000      CL = -0.2297
      Cm = -0.0614     CD =  0.13387   =>   CDf =  0.00295    CDp =  0.13093

 Side 1  free  transition at x/c =  0.9927   77
 Side 2  free  transition at x/c =  0.0433   13

 122   rms: 0.5167E+00   max: 0.8787E+01   T at   85  2   RLX: 0.171
       a = -4.000      CL = -0.2306
      Cm = -0.0735     CD =  0.13002   =>   CDf =  0.00309    CDp =  0.12693

 Side 1  free  transition at x/c =  0.9932   77
 Side 2  free  transition at x/c =  0.0430   13

 123   rms: 0.4818E+00   max: 0.6694E+01   T at   85  2   RLX: 0.224
       a = -4.000      CL = -0.2625
      Cm = -0.0758     CD =  0.11598   =>   CDf =  0.00321    CDp =  0.11277

 Side 1  free  transition at x/c =  0.9953   78
 Side 2  free  transition at x/c =  0.0429   13

 124   rms: 0.7791E+00   max: 0.1440E+02   T at   84  2   RLX: 0.104
       a = -4.000      CL = -0.2677
      Cm = -0.0783     CD =  0.10594   =>   CDf =  0.00323    CDp =  0.10271

 Side 1  free  transition at x/c =  0.9937   77
 Side 2  free  transition at x/c =  0.0428   13

 125   rms: 0.1112E+01   max: 0.1410E+02   T at   84  2   RLX: 0.105
       a = -4.000      CL = -0.2441
      Cm = -0.0859     CD =  0.06402   =>   CDf =  0.00330    CDp =  0.06072

 Side 1  free  transition at x/c =  0.9834   76
 Side 2  free  transition at x/c =  0.0430   13

 126   rms: 0.3780E+00   max: 0.1501E+01   T at   85  2   RLX: 0.387
       a = -4.000      CL = -0.3259
      Cm = -0.0751     CD =  0.07049   =>   CDf =  0.00347    CDp =  0.06702

 Side 1  free  transition at x/c =  0.9920   77
 Side 2  free  transition at x/c =  0.0382   13

 127   rms: 0.1395E+01   max: -.9961E+01   C at   84  2   RLX: 0.050
       a = -4.000      CL = -0.2932
      Cm = -0.0829     CD =  0.05773   =>   CDf =  0.00355    CDp =  0.05418

 Side 1  free  transition at x/c =  0.9828   76
 Side 2  free  transition at x/c =  0.0391   13

 128   rms: 0.5680E+00   max: 0.6065E+01   T at   84  2   RLX: 0.225
       a = -4.000      CL = -0.2950
      Cm = -0.0786     CD =  0.03970   =>   CDf =  0.00353    CDp =  0.03618

 Side 1  free  transition at x/c =  0.9695   75
 Side 2  free  transition at x/c =  0.0400   13

 129   rms: 0.3408E+00   max: 0.2302E+01   T at   84  2   RLX: 0.424
       a = -4.000      CL = -0.3645
      Cm = -0.0623     CD =  0.05247   =>   CDf =  0.00355    CDp =  0.04892

 Side 1  free  transition at x/c =  0.9784   76
 Side 2  free  transition at x/c =  0.0362   13

 130   rms: 0.2269E+00   max: -.1083E+01   D at  100  2   RLX: 0.462
       a = -4.000      CL = -0.3976
      Cm = -0.0497     CD =  0.05315   =>   CDf =  0.00343    CDp =  0.04971

 Side 1  free  transition at x/c =  0.9732   75
 Side 2  free  transition at x/c =  0.0353   13

 131   rms: 0.2407E+00   max: -.1243E+01   D at  101  2   RLX: 0.402
       a = -4.000      CL = -0.4632
      Cm = -0.0293     CD =  0.05826   =>   CDf =  0.00357    CDp =  0.05469

 Side 1  free  transition at x/c =  0.9602   74
 Side 2  free  transition at x/c =  0.0327   13

 132   rms: 0.1390E+01   max: -.1539E+02   T at   74  1   RLX: 0.032
       a = -4.000      CL = -0.4514
      Cm = -0.0318     CD =  0.05452   =>   CDf =  0.00333    CDp =  0.05119

 Side 1  free  transition at x/c =  0.9746   76
 Side 2  free  transition at x/c =  0.0333   13

 133   rms: 0.7923E+00   max: -.5087E+01   D at  101  2   RLX: 0.098
       a = -4.000      CL = -0.5026
      Cm = -0.0228     CD =  0.05146   =>   CDf =  0.00331    CDp =  0.04814

 Side 1  free  transition at x/c =  0.9775   76
 Side 2  free  transition at x/c =  0.0316   13
 idif Ue xi dudx           1  0.32895473      5.75375557E-03   57.172176    
 Uenew xinew           2  3.77780646E-02  6.60777092E-04

 134   rms: 0.9433E+00   max: -.4605E+01   D at  101  2   RLX: 0.109
       a = -4.000      CL = -0.5485
      Cm = -0.0177     CD =  0.05152   =>   CDf =  0.00292    CDp =  0.04860

 MRCHDU: Convergence failed at  74  side 2    Res =  0.1508E+01
 MRCHDU: Convergence failed at  75  side 2    Res =  0.1408E+01
 MRCHDU: Convergence failed at  76  side 2    Res =  0.1390E+01
 MRCHDU: Convergence failed at  77  side 2    Res =  0.1443E+01
 MRCHDU: Convergence failed at  78  side 2    Res =  0.1647E+01
 MRCHDU: Convergence failed at  79  side 2    Res =  0.1731E+01
 MRCHDU: Convergence failed at  80  side 2    Res =  0.1789E+01
 MRCHDU: Convergence failed at  81  side 2    Res =  0.1900E+01
 MRCHDU: Convergence failed at  82  side 2    Res =  0.1626E+01
 MRCHDU: Convergence failed at  83  side 2    Res =  0.2792E+01
 MRCHDU: Convergence failed at  84  side 2    Res =  0.3326E+01
 MRCHDU: Convergence failed at 100  side 2    Res =  0.8400E+00
 Side 1  free  transition at x/c =  0.9733   74
 Side 2  free  transition at x/c =  0.0309   14

 135   rms: 0.4538E+00   max: 0.3064E+01   T at   74  1   RLX: 0.250
       a = -4.000      CL = -0.5941
      Cm = -0.0049     CD =  0.06719   =>   CDf =  0.00288    CDp =  0.06431

 Side 1  free  transition at x/c =  0.9559   73
 Side 2  free  transition at x/c =  0.0309   13

 136   rms: 0.3420E+00   max: 0.2289E+01   T at   73  1   RLX: 0.445
       a = -4.000      CL = -0.5316
      Cm = -0.0187     CD =  0.06515   =>   CDf =  0.00326    CDp =  0.06189

 Side 1  free  transition at x/c =  0.9322   71
 Side 2  free  transition at x/c =  0.0310   14

 137   rms: 0.1884E+01   max: -.6282E+01   T at   14  2   RLX: 0.080
       a = -4.000      CL = -0.5434
      Cm = -0.0224     CD =  0.02889   =>   CDf =  0.00430    CDp =  0.02458

 MRCHDU: Convergence failed at  19  side 2    Res =  0.4349E+01
 MRCHDU: Convergence failed at  20  side 2    Res =  0.3434E+01
 MRCHDU: Convergence failed at  21  side 2    Res =  0.2901E+01
 MRCHDU: Convergence failed at  22  side 2    Res =  0.3094E+01
 MRCHDU: Convergence failed at  23  side 2    Res =  0.3221E+01
 MRCHDU: Convergence failed at  24  side 2    Res =  0.4407E+01
 MRCHDU: Convergence failed at  25  side 2    Res =  0.5518E+01
 MRCHDU: Convergence failed at  26  side 2    Res =  0.6557E+01
 MRCHDU: Convergence failed at  27  side 2    Res =  0.7694E+01
 MRCHDU: Convergence failed at  28  side 2    Res =  0.1008E+02
 MRCHDU: Convergence failed at  29  side 2    Res =  0.1019E+02
 MRCHDU: Convergence failed at  30  side 2    Res =  0.1010E+02
 MRCHDU: Convergence failed at  31  side 2    Res =  0.1055E+02
 MRCHDU: Convergence failed at  32  side 2    Res =  0.1097E+02
 MRCHDU: Convergence failed at  33  side 2    Res =  0.1129E+02
 MRCHDU: Convergence failed at  34  side 2    Res =  0.1153E+02
 MRCHDU: Convergence failed at  35  side 2    Res =  0.1095E+02
 MRCHDU: Convergence failed at  36  side 2    Res =  0.1116E+02
 MRCHDU: Convergence failed at  37  side 2    Res =  0.1130E+02
 MRCHDU: Convergence failed at  38  side 2    Res =  0.1152E+02
 MRCHDU: Convergence failed at  39  side 2    Res =  0.1164E+02
 MRCHDU: Convergence failed at  40  side 2    Res =  0.1178E+02
 MRCHDU: Convergence failed at  41  side 2    Res =  0.1195E+02
 MRCHDU: Convergence failed at  42  side 2    Res =  0.1188E+02
 MRCHDU: Convergence failed at  43  side 2    Res =  0.1208E+02
 MRCHDU: Convergence failed at  44  side 2    Res =  0.1186E+02
 MRCHDU: Convergence failed at  45  side 2    Res =  0.1222E+02
 MRCHDU: Convergence failed at  46  side 2    Res =  0.1255E+02
 MRCHDU: Convergence failed at  47  side 2    Res =  0.1240E+02
 MRCHDU: Convergence failed at  48  side 2    Res =  0.1205E+02
 MRCHDU: Convergence failed at  49  side 2    Res =  0.1222E+02
 MRCHDU: Convergence failed at  50  side 2    Res =  0.1240E+02
 MRCHDU: Convergence failed at  51  side 2    Res =  0.1258E+02
 MRCHDU: Convergence failed at  52  side 2    Res =  0.1272E+02
 MRCHDU: Convergence failed at  53  side 2    Res =  0.1426E+02
 MRCHDU: Convergence failed at  54  side 2    Res =  0.1483E+02
 MRCHDU: Convergence failed at  55  side 2    Res =  0.1528E+02
 MRCHDU: Convergence failed at  56  side 2    Res =  0.1772E+02
 MRCHDU: Convergence failed at  57  side 2    Res =  0.2691E+02
 MRCHDU: Convergence failed at  58  side 2    Res =  0.3470E+02
 MRCHDU: Convergence failed at  59  side 2    Res =  0.2285E+02
 MRCHDU: Convergence failed at  60  side 2    Res =  0.1334E+02
 MRCHDU: Convergence failed at  61  side 2    Res =  0.1292E+02
 MRCHDU: Convergence failed at  62  side 2    Res =  0.1014E+02
 MRCHDU: Convergence failed at  63  side 2    Res =  0.1131E+02
 MRCHDU: Convergence failed at  64  side 2    Res =  0.1220E+02
 MRCHDU: Convergence failed at  65  side 2    Res =  0.1395E+02
 MRCHDU: Convergence failed at  66  side 2    Res =  0.1118E+02
 MRCHDU: Convergence failed at  67  side 2    Res =  0.1401E+02
 MRCHDU: Convergence failed at  68  side 2    Res =  0.1362E+02
 MRCHDU: Convergence failed at  69  side 2    Res =  0.2405E+02
 MRCHDU: Convergence failed at  70  side 2    Res =  0.1701E+02
 MRCHDU: Convergence failed at  71  side 2    Res =  0.1508E+02
 MRCHDU: Convergence failed at  72  side 2    Res =  0.1411E+02
 MRCHDU: Convergence failed at  73  side 2    Res =  0.1289E+02
 MRCHDU: Convergence failed at  74  side 2    Res =  0.1226E+02
 MRCHDU: Convergence failed at  75  side 2    Res =  0.1170E+02
 MRCHDU: Convergence failed at  76  side 2    Res =  0.1127E+02
 MRCHDU: Convergence failed at  77  side 2    Res =  0.1079E+02
 MRCHDU: Convergence failed at  78  side 2    Res =  0.1066E+02
 MRCHDU: Convergence failed at  79  side 2    Res =  0.1146E+02
 MRCHDU: Convergence failed at  80  side 2    Res =  0.1454E+02
 MRCHDU: Convergence failed at  81  side 2    Res =  0.1683E+02
 MRCHDU: Convergence failed at  82  side 2    Res =  0.1608E+02
 MRCHDU: Convergence failed at  83  side 2    Res =  0.1839E+02
 MRCHDU: Convergence failed at  84  side 2    Res =  0.2123E+02
 MRCHDU: Convergence failed at  85  side 2    Res =  0.2595E+02
 Side 1  free  transition at x/c =  0.9339   71
 Side 2  free  transition at x/c =  0.0332   14

 138   rms: 0.1062E+01   max: -.5397E+01   T at   71  1   RLX: 0.093
       a = -4.000      CL = -1.4385
      Cm =  0.2975     CD =  0.01538   =>   CDf =  0.00229    CDp =  0.01309

 Side 1  free  transition at x/c =  0.9477   73
 Side 2  free  transition at x/c =  0.0352   14

 139   rms: 0.7197E+00   max: 0.1835E+01   D at  107  2   RLX: 0.269
       a = -4.000      CL = -1.0372
      Cm =  0.1781     CD =  0.01023   =>   CDf =  0.01059    CDp = -0.00036

 Side 1  free  transition at x/c =  0.9510   74
 Side 2  free  transition at x/c =  0.0387   13

 140   rms: 0.4357E+01   max: 0.5519E+02   T at  105  2   RLX: 0.027
       a = -4.000      CL = -0.9839
      Cm =  0.1646     CD =  0.00134   =>   CDf =  0.00822    CDp = -0.00689

 MRCHDU: Convergence failed at 105  side 2    Res =  0.9457E+01
 MRCHDU: Convergence failed at 106  side 2    Res =  0.1738E+01
 Side 1  free  transition at x/c =  0.9481   74
 Side 2  free  transition at x/c =  0.0404   13

 141   rms: 0.4767E+00   max: 0.8872E+00   D at   98  2   RLX: 0.409
       a = -4.000      CL = -0.6438
      Cm =  0.0612     CD =  0.02347   =>   CDf =  0.00785    CDp =  0.01562

 Side 1  free  transition at x/c =  0.9544   74
 Side 2  free  transition at x/c =  0.0393   13

 142   rms: 0.2905E+00   max: 0.1178E+00   U at  106  2   RLX: 0.798
       a = -4.000      CL = -0.2607
      Cm = -0.0491     CD =  0.03018   =>   CDf =  0.00634    CDp =  0.02384

 Side 1  free  transition at x/c =  0.9696   75
 Side 2  free  transition at x/c =  0.0632   15

 143   rms: 0.3502E+00   max: 0.1610E+01   D at   15  2   RLX: 0.932
       a = -4.000      CL = -0.1761
      Cm = -0.0744     CD =  0.03150   =>   CDf =  0.00669    CDp =  0.02481

 MRCHDU: Convergence failed at  22  side 2    Res =  0.1750E+01
 MRCHDU: Convergence failed at  23  side 2    Res =  0.9625E+00
 MRCHDU: Convergence failed at  24  side 2    Res =  0.1124E+01
 MRCHDU: Convergence failed at  25  side 2    Res =  0.2791E+01
 MRCHDU: Convergence failed at  26  side 2    Res =  0.4885E+01
 MRCHDU: Convergence failed at  27  side 2    Res =  0.1574E+02
 MRCHDU: Convergence failed at  28  side 2    Res =  0.1143E+02
 MRCHDU: Convergence failed at  29  side 2    Res =  0.5170E+01
 MRCHDU: Convergence failed at  30  side 2    Res =  0.3594E+01
 MRCHDU: Convergence failed at  31  side 2    Res =  0.2816E+01
 MRCHDU: Convergence failed at  32  side 2    Res =  0.2408E+01
 MRCHDU: Convergence failed at  33  side 2    Res =  0.2168E+01
 MRCHDU: Convergence failed at  34  side 2    Res =  0.2000E+01
 MRCHDU: Convergence failed at  35  side 2    Res =  0.1895E+01
 MRCHDU: Convergence failed at  36  side 2    Res =  0.1835E+01
 MRCHDU: Convergence failed at  37  side 2    Res =  0.1743E+01
 MRCHDU: Convergence failed at  38  side 2    Res =  0.1739E+01
 MRCHDU: Convergence failed at  39  side 2    Res =  0.1751E+01
 MRCHDU: Convergence failed at  40  side 2    Res =  0.1908E+01
 MRCHDU: Convergence failed at  41  side 2    Res =  0.2048E+01
 MRCHDU: Convergence failed at  42  side 2    Res =  0.2195E+01
 MRCHDU: Convergence failed at  43  side 2    Res =  0.2345E+01
 MRCHDU: Convergence failed at  44  side 2    Res =  0.2496E+01
 MRCHDU: Convergence failed at  45  side 2    Res =  0.2651E+01
 MRCHDU: Convergence failed at  46  side 2    Res =  0.2802E+01
 MRCHDU: Convergence failed at  47  side 2    Res =  0.2952E+01
 MRCHDU: Convergence failed at  48  side 2    Res =  0.3097E+01
 MRCHDU: Convergence failed at  49  side 2    Res =  0.3235E+01
 MRCHDU: Convergence failed at  50  side 2    Res =  0.3363E+01
 MRCHDU: Convergence failed at  51  side 2    Res =  0.3483E+01
 MRCHDU: Convergence failed at  52  side 2    Res =  0.3591E+01
 MRCHDU: Convergence failed at  53  side 2    Res =  0.3685E+01
 MRCHDU: Convergence failed at  54  side 2    Res =  0.3771E+01
 MRCHDU: Convergence failed at  55  side 2    Res =  0.3840E+01
 MRCHDU: Convergence failed at  56  side 2    Res =  0.3726E+01
 MRCHDU: Convergence failed at  57  side 2    Res =  0.3771E+01
 MRCHDU: Convergence failed at  58  side 2    Res =  0.3810E+01
 MRCHDU: Convergence failed at  59  side 2    Res =  0.3847E+01
 MRCHDU: Convergence failed at  60  side 2    Res =  0.3877E+01
 MRCHDU: Convergence failed at  61  side 2    Res =  0.3907E+01
 MRCHDU: Convergence failed at  62  side 2    Res =  0.3932E+01
 MRCHDU: Convergence failed at  63  side 2    Res =  0.3955E+01
 MRCHDU: Convergence failed at  64  side 2    Res =  0.3977E+01
 MRCHDU: Convergence failed at  65  side 2    Res =  0.3999E+01
 MRCHDU: Convergence failed at  66  side 2    Res =  0.4024E+01
 MRCHDU: Convergence failed at  67  side 2    Res =  0.3633E+01
 MRCHDU: Convergence failed at  68  side 2    Res =  0.3663E+01
 MRCHDU: Convergence failed at  69  side 2    Res =  0.3705E+01
 MRCHDU: Convergence failed at  70  side 2    Res =  0.3758E+01
 MRCHDU: Convergence failed at  71  side 2    Res =  0.3810E+01
 MRCHDU: Convergence failed at  72  side 2    Res =  0.3885E+01
 MRCHDU: Convergence failed at  73  side 2    Res =  0.3989E+01
 MRCHDU: Convergence failed at  74  side 2    Res =  0.4683E+01
 MRCHDU: Convergence failed at  75  side 2    Res =  0.4846E+01
 MRCHDU: Convergence failed at  76  side 2    Res =  0.5081E+01
 MRCHDU: Convergence failed at  77  side 2    Res =  0.5419E+01
 MRCHDU: Convergence failed at  78  side 2    Res =  0.5727E+01
 MRCHDU: Convergence failed at  79  side 2    Res =  0.5979E+01
 MRCHDU: Convergence failed at  80  side 2    Res =  0.6391E+01
 MRCHDU: Convergence failed at  81  side 2    Res =  0.8509E+01
 MRCHDU: Convergence failed at  82  side 2    Res =  0.9152E+01
 MRCHDU: Convergence failed at  83  side 2    Res =  0.9203E+01
 MRCHDU: Convergence failed at  84  side 2    Res =  0.6519E+01
 Side 1  free  transition at x/c =  0.9701   75
 Side 2  free  transition at x/c =  0.0586   15

 144   rms: 0.2902E+00   max: 0.4016E+00   D at   92  2   RLX: 0.850
       a = -4.000      CL = -0.2384
      Cm = -0.0404     CD =  0.03241   =>   CDf =  0.00303    CDp =  0.02938

 Side 1  free  transition at x/c =  0.9888   77
 Side 2  free  transition at x/c =  0.0595   15

 145   rms: 0.9391E-01   max: 0.4328E+00   T at   77  1
       a = -4.000      CL = -0.1567
      Cm = -0.0777     CD =  0.03235   =>   CDf =  0.00515    CDp =  0.02719

 Side 1  free  transition at x/c =  0.9771   76
 Side 2  free  transition at x/c =  0.0606   15

 146   rms: 0.3396E-01   max: 0.2287E+00   T at   76  1
       a = -4.000      CL = -0.1704
      Cm = -0.0744     CD =  0.03332   =>   CDf =  0.00459    CDp =  0.02873

 Side 1  free  transition at x/c =  0.9711   75
 Side 2  free  transition at x/c =  0.0597   15

 147   rms: 0.2081E-01   max: -.9231E-01   D at   75  1
       a = -4.000      CL = -0.1697
      Cm = -0.0744     CD =  0.03320   =>   CDf =  0.00468    CDp =  0.02852

 Side 1  free  transition at x/c =  0.9718   75
 Side 2  free  transition at x/c =  0.0601   15

 148   rms: 0.1607E-02   max: 0.6809E-02   T at   75  1
       a = -4.000      CL = -0.1700
      Cm = -0.0744     CD =  0.03324   =>   CDf =  0.00475    CDp =  0.02849

 Side 1  free  transition at x/c =  0.9716   75
 Side 2  free  transition at x/c =  0.0601   15

 149   rms: 0.4025E-04   max: -.3383E-03   T at   15  2
       a = -4.000      CL = -0.1700
      Cm = -0.0744     CD =  0.03324   =>   CDf =  0.00476    CDp =  0.02848
 plradd ia,ip,cpol            1           0 -4.85328019E-05

 Point added to stored polar  1
 Point written to save file  hq308_Re200k.base.pol                           
 Dump file unspecified or not available
 Calculating wake trajectory ...
 Calculating source influence matrix ...

 Solving BL system ...

 Side 1  free  transition at x/c =  0.9716   75
 Side 2  free  transition at x/c =  0.0601   15

   1   rms: 0.1434E+00   max: -.1468E+01   T at   15  2   RLX: 0.340
       a = -3.500      CL = -0.1548
      Cm = -0.0750     CD =  0.03137   =>   CDf =  0.00476    CDp =  0.02661

 Side 1  free  transition at x/c =  0.9672   75
 Side 2  free  transition at x/c =  0.0611   15

   2   rms: 0.1854E+00   max: -.1192E+01   T at   15  2   RLX: 0.420
       a = -3.500      CL = -0.1417
      Cm = -0.0770     CD =  0.03358   =>   CDf =  0.00418    CDp =  0.02941

 Side 1  free  transition at x/c =  0.9651   75
 Side 2  free  transition at x/c =  0.0647   15

   3   rms: 0.1821E+00   max: -.1245E+01   T at   15  2   RLX: 0.401
       a = -3.500      CL = -0.1275
      Cm = -0.0785     CD =  0.03398   =>   CDf =  0.00418    CDp =  0.02981

 Side 1  free  transition at x/c =  0.9641   75
 Side 2  free  transition at x/c =  0.0658   15

   4   rms: 0.1626E+00   max: -.5960E+00   D at   15  2   RLX: 0.839
       a = -3.500      CL = -0.1026
      Cm = -0.0800     CD =  0.03007   =>   CDf =  0.00428    CDp =  0.02579

 Side 1  free  transition at x/c =  0.9629   75
 Side 2  free  transition at x/c =  0.0694   15

   5   rms: 0.1243E+00   max: -.4744E+00   D at   31  2
       a = -3.500      CL = -0.0854
      Cm = -0.0793     CD =  0.03203   =>   CDf =  0.00472    CDp =  0.02731

 Side 1  free  transition at x/c =  0.9625   75
 Side 2  free  transition at x/c =  0.0703   15

   6   rms: 0.3372E+00   max: 0.1269E+01   D at   19  2
       a = -3.500      CL = -0.0898
      Cm = -0.0783     CD =  0.03199   =>   CDf =  0.00617    CDp =  0.02583

 Side 1  free  transition at x/c =  0.9623   75
 Side 2  free  transition at x/c =  0.0888   17

   7   rms: 0.4189E+00   max: 0.2349E+01   D at   17  2   RLX: 0.638
       a = -3.500      CL = -0.0934
      Cm = -0.0805     CD =  0.02407   =>   CDf =  0.00694    CDp =  0.01713

 Side 1  free  transition at x/c =  0.9626   75
 Side 2  free  transition at x/c =  0.0895   17

   8   rms: 0.2169E+00   max: 0.8879E+00   D at   20  2
       a = -3.500      CL = -0.0976
      Cm = -0.0798     CD =  0.02843   =>   CDf =  0.00608    CDp =  0.02235

 Side 1  free  transition at x/c =  0.9631   75
 Side 2  free  transition at x/c =  0.0798   16

   9   rms: 0.3429E-01   max: -.4442E+00   D at   16  2
       a = -3.500      CL = -0.0994
      Cm = -0.0791     CD =  0.02873   =>   CDf =  0.00503    CDp =  0.02370

 Side 1  free  transition at x/c =  0.9634   75
 Side 2  free  transition at x/c =  0.0752   16

  10   rms: 0.5042E-01   max: -.4021E+00   D at   16  2
       a = -3.500      CL = -0.1002
      Cm = -0.0792     CD =  0.02802   =>   CDf =  0.00504    CDp =  0.02298

 Side 1  free  transition at x/c =  0.9635   75
 Side 2  free  transition at x/c =  0.0765   16

  11   rms: 0.1537E-01   max: -.8900E-01   T at   16  2
       a = -3.500      CL = -0.1000
      Cm = -0.0793     CD =  0.02780   =>   CDf =  0.00523    CDp =  0.02257

 Side 1  free  transition at x/c =  0.9636   75
 Side 2  free  transition at x/c =  0.0774   16

  12   rms: 0.2238E-02   max: -.9719E-02   T at   16  2
       a = -3.500      CL = -0.0999
      Cm = -0.0793     CD =  0.02779   =>   CDf =  0.00528    CDp =  0.02251

 Side 1  free  transition at x/c =  0.9636   75
 Side 2  free  transition at x/c =  0.0775   16

  13   rms: 0.2298E-04   max: -.1240E-03   T at   16  2
       a = -3.500      CL = -0.0999
      Cm = -0.0793     CD =  0.02779   =>   CDf =  0.00529    CDp =  0.02250
 plradd ia,ip,cpol            2           0 -4.85328019E-05

 Point added to stored polar  1
 Point written to save file  hq308_Re200k.base.pol                           
 Dump file unspecified or not available
 Calculating wake trajectory ...
 Calculating source influence matrix ...

 Solving BL system ...

 Side 1  free  transition at x/c =  0.9636   75
 Side 2  free  transition at x/c =  0.0775   16

   1   rms: 0.1467E+00   max: -.2058E+01   T at   16  2   RLX: 0.243
       a = -3.000      CL = -0.0810
      Cm = -0.0806     CD =  0.02678   =>   CDf =  0.00534    CDp =  0.02143

 Side 1  free  transition at x/c =  0.9622   76
 Side 2  free  transition at x/c =  0.0861   16

   2   rms: 0.2472E+00   max: -.2035E+01   D at    2  1   RLX: 0.246
       a = -3.000      CL = -0.0682
      Cm = -0.0819     CD =  0.02667   =>   CDf =  0.00542    CDp =  0.02124

 Side 1  free  transition at x/c =  0.9615   76
 Side 2  free  transition at x/c =  0.0877   16

   3   rms: 0.1688E+00   max: -.1176E+01   T at   16  2   RLX: 0.425
       a = -3.000      CL = -0.0512
      Cm = -0.0835     CD =  0.02633   =>   CDf =  0.00515    CDp =  0.02118

 Side 1  free  transition at x/c =  0.9605   75
 Side 2  free  transition at x/c =  0.0913   16

   4   rms: 0.1255E+00   max: 0.7808E+00   T at   75  1   RLX: 0.904
       a = -3.000      CL = -0.0729
      Cm = -0.0752     CD =  0.02514   =>   CDf =  0.00508    CDp =  0.02006

 Side 1  free  transition at x/c =  0.9414   74
 Side 2  free  transition at x/c =  0.0928   16

   5   rms: 0.1176E+00   max: -.1466E+01   T at   16  2   RLX: 0.341
       a = -3.000      CL = -0.0502
      Cm = -0.0785     CD =  0.02674   =>   CDf =  0.00554    CDp =  0.02120

 TRCHEK2: N2 convergence failed.
 x:  0.20419  0.21792  0.21792  N:  8.840  9.000  9.051  Nx:  15.251   dN: 0.505E-01
 MRCHDU: Convergence failed at  27  side 2    Res =  0.6195E+02
 MRCHDU: Convergence failed at  28  side 2    Res =  0.2174E+03
 MRCHDU: Convergence failed at  29  side 2    Res =  0.6724E+02
 MRCHDU: Convergence failed at  30  side 2    Res =  0.6161E+02
 MRCHDU: Convergence failed at  31  side 2    Res =  0.1971E+03
 MRCHDU: Convergence failed at  32  side 2    Res =  0.6534E+02
 MRCHDU: Convergence failed at  33  side 2    Res =  0.3326E+03
 MRCHDU: Convergence failed at  34  side 2    Res =  0.3715E+03
 MRCHDU: Convergence failed at  35  side 2    Res =  0.1762E+03
 MRCHDU: Convergence failed at  36  side 2    Res =  0.6903E+02
 MRCHDU: Convergence failed at  37  side 2    Res =  0.1223E+04
 MRCHDU: Convergence failed at  38  side 2    Res =  0.2164E+03
 MRCHDU: Convergence failed at  39  side 2    Res =  0.2057E+03
[...]
 MRCHDU: Convergence failed at  17  side 1    Res =  0.6884E+00
 Side 1  free  transition at x/c =  0.0230   12
 Side 2 forced transition at x/c =  1.0000   76

 115   rms: 0.4515E+03   max: -.2337E+04   C at   80  1   RLX: 0.000
       a = 14.250      CL =  0.9987
      Cm = -0.1021     CD =  1.95702   =>   CDf =  0.00578    CDp =  1.95124

 MRCHDU: Convergence failed at  15  side 1    Res =  0.2525E+01
 MRCHDU: Convergence failed at  16  side 1    Res =  0.4550E-01
 MRCHDU: Convergence failed at  17  side 1    Res =  0.6886E+00
 Side 1  free  transition at x/c =  0.0230   12
 Side 2 forced transition at x/c =  1.0000   76

 116   rms: 0.4568E+04   max: 0.2472E+05   C at   81  1   RLX: 0.000
       a = 14.250      CL =  0.9987
      Cm = -0.1022     CD =  1.95708   =>   CDf =  0.00578    CDp =  1.95130

 MRCHDU: Convergence failed at  15  side 1    Res =  0.2499E+01
 MRCHDU: Convergence failed at  16  side 1    Res =  0.4440E-01
 MRCHDU: Convergence failed at  17  side 1    Res =  0.6885E+00
 Side 1  free  transition at x/c =  0.0230   12
 Side 2 forced transition at x/c =  1.0000   76

 117   rms: 0.7091E+02   max: -.3992E+03   C at   17  1   RLX: 0.001
       a = 14.250      CL =  0.9984
      Cm = -0.1021     CD =  1.93627   =>   CDf =  0.00578    CDp =  1.93048

 MRCHDU: Convergence failed at  15  side 1    Res =  0.2523E+01
 MRCHDU: Convergence failed at  16  side 1    Res =  0.5011E-01
 MRCHDU: Convergence failed at  17  side 1    Res =  0.6889E+00
 Side 1  free  transition at x/c =  0.0230   12
 Side 2 forced transition at x/c =  1.0000   76

 118   rms: 0.1954E+03   max: -.1276E+04   C at   17  1   RLX: 0.000
       a = 14.250      CL =  0.9987
      Cm = -0.1022     CD =  1.95197   =>   CDf =  0.00578    CDp =  1.94619

 MRCHDU: Convergence failed at  15  side 1    Res =  0.2579E+01
 MRCHDU: Convergence failed at  16  side 1    Res =  0.5305E-01
 MRCHDU: Convergence failed at  17  side 1    Res =  0.6894E+00
 Side 1  free  transition at x/c =  0.0230   12
 Side 2 forced transition at x/c =  1.0000   76

 119   rms: 0.7081E+03   max: -.3650E+04   C at   80  1   RLX: 0.000
       a = 14.250      CL =  0.9991
      Cm = -0.1024     CD =  1.96386   =>   CDf =  0.00578    CDp =  1.95808

 MRCHDU: Convergence failed at  15  side 1    Res =  0.2611E+01
 MRCHDU: Convergence failed at  16  side 1    Res =  0.5437E-01
 MRCHDU: Convergence failed at  17  side 1    Res =  0.6897E+00
 Side 1  free  transition at x/c =  0.0230   12
 Side 2 forced transition at x/c =  1.0000   76

 120   rms: 0.3566E+04   max: 0.1940E+05   C at   82  1   RLX: 0.000
       a = 14.250      CL =  0.9992
      Cm = -0.1025     CD =  1.96449   =>   CDf =  0.00578    CDp =  1.95870

 MRCHDU: Convergence failed at  15  side 1    Res =  0.2585E+01
 MRCHDU: Convergence failed at  16  side 1    Res =  0.5335E-01
 MRCHDU: Convergence failed at  17  side 1    Res =  0.6895E+00
 Side 1  free  transition at x/c =  0.0230   12
 Side 2 forced transition at x/c =  1.0000   76

 121   rms: 0.6519E+03   max: -.8855E+04   C at   17  1   RLX: 0.000
       a = 14.250      CL =  0.9989
      Cm = -0.1023     CD =  1.96067   =>   CDf =  0.00578    CDp =  1.95488

 MRCHDU: Convergence failed at  15  side 1    Res =  0.2610E+01
 MRCHDU: Convergence failed at  16  side 1    Res =  0.5508E-01
 MRCHDU: Convergence failed at  17  side 1    Res =  0.6898E+00
 Side 1  free  transition at x/c =  0.0230   12
 Side 2 forced transition at x/c =  1.0000   76

 122   rms: 0.1148E+03   max: -.5836E+03   C at   79  1   RLX: 0.001
       a = 14.250      CL =  0.9994
      Cm = -0.1025     CD =  1.96132   =>   CDf =  0.00578    CDp =  1.95553

 MRCHDU: Convergence failed at  15  side 1    Res =  0.2628E+01
 MRCHDU: Convergence failed at  16  side 1    Res =  0.5876E-01
 MRCHDU: Convergence failed at  17  side 1    Res =  0.6901E+00
 Side 1  free  transition at x/c =  0.0230   12
 Side 2 forced transition at x/c =  1.0000   76

 123   rms: 0.6193E+03   max: -.3198E+04   C at   80  1   RLX: 0.000
       a = 14.250      CL =  0.9994
      Cm = -0.1025     CD =  1.97207   =>   CDf =  0.00578    CDp =  1.96629

 MRCHDU: Convergence failed at  15  side 1    Res =  0.2651E+01
 MRCHDU: Convergence failed at  16  side 1    Res =  0.5996E-01
 MRCHDU: Convergence failed at  17  side 1    Res =  0.6904E+00
 Side 1  free  transition at x/c =  0.0230   12
 Side 2 forced transition at x/c =  1.0000   76

 124   rms: 0.5768E+04   max: 0.3112E+05   C at   81  1   RLX: 0.000
       a = 14.250      CL =  0.9995
      Cm = -0.1026     CD =  1.97176   =>   CDf =  0.00578    CDp =  1.96598

 MRCHDU: Convergence failed at  15  side 1    Res =  0.2622E+01
 MRCHDU: Convergence failed at  16  side 1    Res =  0.5875E-01
 MRCHDU: Convergence failed at  17  side 1    Res =  0.6902E+00
 Side 1  free  transition at x/c =  0.0230   12
 Side 2 forced transition at x/c =  1.0000   76

 125   rms: 0.7161E+04   max: -.3598E+05   C at   79  1   RLX: 0.000
       a = 14.250      CL =  0.9992
      Cm = -0.1024     CD =  1.98310   =>   CDf =  0.00578    CDp =  1.97732

 MRCHDU: Convergence failed at  15  side 1    Res =  0.2627E+01
 MRCHDU: Convergence failed at  16  side 1    Res =  0.6020E-01
 MRCHDU: Convergence failed at  17  side 1    Res =  0.6905E+00
 Side 1  free  transition at x/c =  0.0230   12
 Side 2 forced transition at x/c =  1.0000   76

 126   rms: 0.2989E+03   max: -.1537E+04   C at   80  1   RLX: 0.000
       a = 14.250      CL =  0.9998
      Cm = -0.1026     CD =  1.98476   =>   CDf =  0.00578    CDp =  1.97898

 MRCHDU: Convergence failed at  15  side 1    Res =  0.2641E+01
 MRCHDU: Convergence failed at  16  side 1    Res =  0.6191E-01
 MRCHDU: Convergence failed at  17  side 1    Res =  0.6907E+00
 Side 1  free  transition at x/c =  0.0230   12
 Side 2 forced transition at x/c =  1.0000   76

 127   rms: 0.7509E+04   max: -.3998E+05   C at   81  1   RLX: 0.000
       a = 14.250      CL =  1.0000
      Cm = -0.1026     CD =  1.99173   =>   CDf =  0.00578    CDp =  1.98594

 MRCHDU: Convergence failed at  15  side 1    Res =  0.2660E+01
 MRCHDU: Convergence failed at  16  side 1    Res =  0.6250E-01
 MRCHDU: Convergence failed at  17  side 1    Res =  0.6908E+00
 Side 1  free  transition at x/c =  0.0230   12
 Side 2 forced transition at x/c =  1.0000   76

 128   rms: 0.1484E+04   max: 0.8386E+04   C at   82  1   RLX: 0.000
       a = 14.250      CL =  1.0001
      Cm = -0.1027     CD =  1.98964   =>   CDf =  0.00578    CDp =  1.98385

 MRCHDU: Convergence failed at  15  side 1    Res =  0.2630E+01
 MRCHDU: Convergence failed at  16  side 1    Res =  0.6188E-01
 MRCHDU: Convergence failed at  17  side 1    Res =  0.6907E+00
 Side 1  free  transition at x/c =  0.0230   12
 Side 2 forced transition at x/c =  1.0000   76

 129   rms: 0.3953E+03   max: 0.2474E+04   C at   17  1   RLX: 0.000
       a = 14.250      CL =  0.9997
      Cm = -0.1025     CD =  1.98636   =>   CDf =  0.00578    CDp =  1.98058

 MRCHDU: Convergence failed at  15  side 1    Res =  0.2577E+01
 MRCHDU: Convergence failed at  16  side 1    Res =  0.6113E-01
 MRCHDU: Convergence failed at  17  side 1    Res =  0.6904E+00
 Side 1  free  transition at x/c =  0.0230   12
 Side 2 forced transition at x/c =  1.0000   76

 130   rms: 0.2918E+04   max: -.1539E+05   C at   81  1   RLX: 0.000
       a = 14.250      CL =  0.9993
      Cm = -0.1023     CD =  1.98185   =>   CDf =  0.00578    CDp =  1.97607

 MRCHDU: Convergence failed at  15  side 1    Res =  0.2582E+01
 MRCHDU: Convergence failed at  16  side 1    Res =  0.6194E-01
 MRCHDU: Convergence failed at  17  side 1    Res =  0.6905E+00
 Side 1  free  transition at x/c =  0.0230   12
 Side 2 forced transition at x/c =  1.0000   76

 131   rms: 0.1445E+04   max: 0.8087E+04   C at   83  1   RLX: 0.000
       a = 14.250      CL =  0.9994
      Cm = -0.1024     CD =  1.97998   =>   CDf =  0.00578    CDp =  1.97419

 MRCHDU: Convergence failed at  15  side 1    Res =  0.2554E+01
 MRCHDU: Convergence failed at  16  side 1    Res =  0.6131E-01
 MRCHDU: Convergence failed at  17  side 1    Res =  0.6903E+00
 Side 1  free  transition at x/c =  0.0230   12
 Side 2 forced transition at x/c =  1.0000   76

 132   rms: 0.2383E+03   max: -.1205E+04   C at   79  1   RLX: 0.000
       a = 14.250      CL =  0.9991
      Cm = -0.1022     CD =  1.97484   =>   CDf =  0.00578    CDp =  1.96906

 MRCHDU: Convergence failed at  15  side 1    Res =  0.2563E+01
 MRCHDU: Convergence failed at  16  side 1    Res =  0.6375E-01
 MRCHDU: Convergence failed at  17  side 1    Res =  0.6906E+00
 Side 1  free  transition at x/c =  0.0230   12
 Side 2 forced transition at x/c =  1.0000   76

 133   rms: 0.1168E+04   max: -.6073E+04   C at   80  1   RLX: 0.000
       a = 14.250      CL =  0.9993
      Cm = -0.1023     CD =  1.98344   =>   CDf =  0.00578    CDp =  1.97766

 MRCHDU: Convergence failed at  15  side 1    Res =  0.2588E+01
 MRCHDU: Convergence failed at  16  side 1    Res =  0.6488E-01
 MRCHDU: Convergence failed at  17  side 1    Res =  0.6909E+00
 Side 1  free  transition at x/c =  0.0230   12
 Side 2 forced transition at x/c =  1.0000   76

 134   rms: 0.2467E+04   max: 0.1354E+05   C at   82  1   RLX: 0.000
       a = 14.250      CL =  0.9994
      Cm = -0.1024     CD =  1.98317   =>   CDf =  0.00578    CDp =  1.97739

 MRCHDU: Convergence failed at  15  side 1    Res =  0.2555E+01
 MRCHDU: Convergence failed at  16  side 1    Res =  0.6369E-01
 MRCHDU: Convergence failed at  17  side 1    Res =  0.6906E+00
 Side 1  free  transition at x/c =  0.0230   12
 Side 2 forced transition at x/c =  1.0000   76

 135   rms: 0.1779E+03   max: -.8937E+03   C at   79  1   RLX: 0.001
       a = 14.250      CL =  0.9991
      Cm = -0.1022     CD =  1.97547   =>   CDf =  0.00578    CDp =  1.96968

 MRCHDU: Convergence failed at  15  side 1    Res =  0.2564E+01
 MRCHDU: Convergence failed at  16  side 1    Res =  0.6687E-01
 MRCHDU: Convergence failed at  17  side 1    Res =  0.6910E+00
 Side 1  free  transition at x/c =  0.0230   12
 Side 2 forced transition at x/c =  1.0000   76

 136   rms: 0.5833E+03   max: -.3013E+04   C at   80  1   RLX: 0.000
       a = 14.250      CL =  0.9993
      Cm = -0.1023     CD =  1.98473   =>   CDf =  0.00578    CDp =  1.97895

 MRCHDU: Convergence failed at  15  side 1    Res =  0.2588E+01
 MRCHDU: Convergence failed at  16  side 1    Res =  0.6823E-01
 MRCHDU: Convergence failed at  17  side 1    Res =  0.6912E+00
 Side 1  free  transition at x/c =  0.0230   12
 Side 2 forced transition at x/c =  1.0000   76

 137   rms: 0.6613E+04   max: 0.3566E+05   C at   81  1   RLX: 0.000
       a = 14.250      CL =  0.9994
      Cm = -0.1023     CD =  1.98494   =>   CDf =  0.00578    CDp =  1.97916

 MRCHDU: Convergence failed at  15  side 1    Res =  0.2548E+01
 MRCHDU: Convergence failed at  16  side 1    Res =  0.6640E-01
 MRCHDU: Convergence failed at  17  side 1    Res =  0.6908E+00
 Side 1  free  transition at x/c =  0.0230   12
 Side 2 forced transition at x/c =  1.0000   76

 138   rms: 0.1491E+03   max: -.7983E+03   C at   17  1   RLX: 0.001
       a = 14.250      CL =  0.9989
      Cm = -0.1021     CD =  1.97555   =>   CDf =  0.00578    CDp =  1.96976

 MRCHDU: Convergence failed at  15  side 1    Res =  0.2573E+01
 MRCHDU: Convergence failed at  16  side 1    Res =  0.7070E-01
 MRCHDU: Convergence failed at  17  side 1    Res =  0.6913E+00
 Side 1  free  transition at x/c =  0.0230   12
 Side 2 forced transition at x/c =  1.0000   76

 139   rms: 0.3416E+03   max: -.1739E+04   C at   80  1   RLX: 0.000
       a = 14.250      CL =  0.9994
      Cm = -0.1023     CD =  1.98878   =>   CDf =  0.00578    CDp =  1.98299

 MRCHDU: Convergence failed at  15  side 1    Res =  0.2604E+01
 MRCHDU: Convergence failed at  16  side 1    Res =  0.7272E-01
 MRCHDU: Convergence failed at  17  side 1    Res =  0.6918E+00
 Side 1  free  transition at x/c =  0.0230   12
 Side 2 forced transition at x/c =  1.0000   76

 140   rms: 0.2488E+04   max: -.1311E+05   C at   81  1   RLX: 0.000
       a = 14.250      CL =  0.9996
      Cm = -0.1024     CD =  1.99647   =>   CDf =  0.00578    CDp =  1.99069

 MRCHDU: Convergence failed at  15  side 1    Res =  0.2628E+01
 MRCHDU: Convergence failed at  16  side 1    Res =  0.7367E-01
 MRCHDU: Convergence failed at  17  side 1    Res =  0.6920E+00
 Side 1  free  transition at x/c =  0.0230   12
 Side 2 forced transition at x/c =  1.0000   76

 141   rms: 0.1897E+04   max: 0.1054E+05   C at   82  1   RLX: 0.000
       a = 14.250      CL =  0.9998
      Cm = -0.1025     CD =  1.99605   =>   CDf =  0.00578    CDp =  1.99027

 MRCHDU: Convergence failed at  15  side 1    Res =  0.2579E+01
 MRCHDU: Convergence failed at  16  side 1    Res =  0.7195E-01
 MRCHDU: Convergence failed at  17  side 1    Res =  0.6916E+00
 Side 1  free  transition at x/c =  0.0230   12
 Side 2 forced transition at x/c =  1.0000   76

 142   rms: 0.3021E+03   max: -.1543E+04   C at   79  1   RLX: 0.000
       a = 14.250      CL =  0.9992
      Cm = -0.1022     CD =  1.98720   =>   CDf =  0.00578    CDp =  1.98141

 MRCHDU: Convergence failed at  15  side 1    Res =  0.2573E+01
 MRCHDU: Convergence failed at  16  side 1    Res =  0.7366E-01
 MRCHDU: Convergence failed at  17  side 1    Res =  0.6917E+00
 Side 1  free  transition at x/c =  0.0230   12
 Side 2 forced transition at x/c =  1.0000   76

 143   rms: 0.1452E+04   max: -.7484E+04   C at   81  1   RLX: 0.000
       a = 14.250      CL =  0.9993
      Cm = -0.1022     CD =  1.99276   =>   CDf =  0.00578    CDp =  1.98698

 MRCHDU: Convergence failed at  15  side 1    Res =  0.2603E+01
 MRCHDU: Convergence failed at  16  side 1    Res =  0.7510E-01
 MRCHDU: Convergence failed at  17  side 1    Res =  0.6920E+00
 Side 1  free  transition at x/c =  0.0230   12
 Side 2 forced transition at x/c =  1.0000   76

 144   rms: 0.2684E+04   max: 0.1471E+05   C at   82  1   RLX: 0.000
       a = 14.250      CL =  0.9995
      Cm = -0.1024     CD =  1.99447   =>   CDf =  0.00578    CDp =  1.98869

 MRCHDU: Convergence failed at  15  side 1    Res =  0.2555E+01
 MRCHDU: Convergence failed at  16  side 1    Res =  0.7309E-01
 MRCHDU: Convergence failed at  17  side 1    Res =  0.6915E+00
 Side 1  free  transition at x/c =  0.0230   12
 Side 2 forced transition at x/c =  1.0000   76

 145   rms: 0.2267E+03   max: -.1138E+04   C at   17  1   RLX: 0.000
       a = 14.250      CL =  0.9989
      Cm = -0.1021     CD =  1.98417   =>   CDf =  0.00578    CDp =  1.97839

 MRCHDU: Convergence failed at  15  side 1    Res =  0.2580E+01
 MRCHDU: Convergence failed at  16  side 1    Res =  0.7667E-01
 MRCHDU: Convergence failed at  17  side 1    Res =  0.6920E+00
 Side 1  free  transition at x/c =  0.0230   12
 Side 2 forced transition at x/c =  1.0000   76

 146   rms: 0.7919E+03   max: -.4070E+04   C at   80  1   RLX: 0.000
       a = 14.250      CL =  0.9994
      Cm = -0.1023     CD =  1.99729   =>   CDf =  0.00578    CDp =  1.99150

 MRCHDU: Convergence failed at  15  side 1    Res =  0.2612E+01
 MRCHDU: Convergence failed at  16  side 1    Res =  0.7816E-01
 MRCHDU: Convergence failed at  17  side 1    Res =  0.6924E+00
 Side 1  free  transition at x/c =  0.0230   12
 Side 2 forced transition at x/c =  1.0000   76

 147   rms: 0.1585E+05   max: 0.8511E+05   C at   81  1   RLX: 0.000
       a = 14.250      CL =  0.9996
      Cm = -0.1024     CD =  1.99915   =>   CDf =  0.00578    CDp =  1.99337

 MRCHDU: Convergence failed at  15  side 1    Res =  0.2558E+01
 MRCHDU: Convergence failed at  16  side 1    Res =  0.7554E-01
 MRCHDU: Convergence failed at  17  side 1    Res =  0.6917E+00
 Side 1  free  transition at x/c =  0.0230   12
 Side 2 forced transition at x/c =  1.0000   76

 148   rms: 0.1589E+03   max: -.7688E+03   C at   17  1   RLX: 0.001
       a = 14.250      CL =  0.9989
      Cm = -0.1021     CD =  1.98629   =>   CDf =  0.00578    CDp =  1.98050

 MRCHDU: Convergence failed at  15  side 1    Res =  0.2581E+01
 MRCHDU: Convergence failed at  16  side 1    Res =  0.8012E-01
 MRCHDU: Convergence failed at  17  side 1    Res =  0.6924E+00
 Side 1  free  transition at x/c =  0.0230   12
 Side 2 forced transition at x/c =  1.0000   76

 149   rms: 0.4700E+03   max: -.2322E+04   C at   80  1   RLX: 0.000
       a = 14.250      CL =  0.9994
      Cm = -0.1022     CD =  2.00060   =>   CDf =  0.00578    CDp =  1.99482

 MRCHDU: Convergence failed at  15  side 1    Res =  0.2630E+01
 MRCHDU: Convergence failed at  16  side 1    Res =  0.8275E-01
 MRCHDU: Convergence failed at  17  side 1    Res =  0.6931E+00
 Side 1  free  transition at x/c =  0.0230   12
 Side 2 forced transition at x/c =  1.0000   76

 150   rms: 0.4193E+04   max: -.2206E+05   C at   81  1   RLX: 0.000
       a = 14.250      CL =  0.9998
      Cm = -0.1025     CD =  2.01159   =>   CDf =  0.00578    CDp =  2.00580

 MRCHDU: Convergence failed at  15  side 1    Res =  0.2663E+01
 MRCHDU: Convergence failed at  16  side 1    Res =  0.8389E-01
 MRCHDU: Convergence failed at  17  side 1    Res =  0.6935E+00
 Side 1  free  transition at x/c =  0.0230   12
 Side 2 forced transition at x/c =  1.0000   76

 151   rms: 0.2089E+04   max: 0.1170E+05   C at   82  1   RLX: 0.000
       a = 14.250      CL =  1.0001
      Cm = -0.1026     CD =  2.01302   =>   CDf =  0.00578    CDp =  2.00724

 MRCHDU: Convergence failed at  15  side 1    Res =  0.2610E+01
 MRCHDU: Convergence failed at  16  side 1    Res =  0.8189E-01
 MRCHDU: Convergence failed at  17  side 1    Res =  0.6929E+00
 Side 1  free  transition at x/c =  0.0230   12
 Side 2 forced transition at x/c =  1.0000   76

 152   rms: 0.3472E+03   max: -.1775E+04   C at   79  1   RLX: 0.000
       a = 14.250      CL =  0.9994
      Cm = -0.1023     CD =  2.00295   =>   CDf =  0.00578    CDp =  1.99717

 MRCHDU: Convergence failed at  15  side 1    Res =  0.2611E+01
 MRCHDU: Convergence failed at  16  side 1    Res =  0.8375E-01
 MRCHDU: Convergence failed at  17  side 1    Res =  0.6930E+00
 Side 1  free  transition at x/c =  0.0230   12
 Side 2 forced transition at x/c =  1.0000   76

 153   rms: 0.1723E+04   max: -.8887E+04   C at   81  1   RLX: 0.000
       a = 14.250      CL =  0.9996
      Cm = -0.1023     CD =  2.00942   =>   CDf =  0.00578    CDp =  2.00364

 MRCHDU: Convergence failed at  15  side 1    Res =  0.2644E+01
 MRCHDU: Convergence failed at  16  side 1    Res =  0.8529E-01
 MRCHDU: Convergence failed at  17  side 1    Res =  0.6935E+00
 Side 1  free  transition at x/c =  0.0230   12
 Side 2 forced transition at x/c =  1.0000   76

 154   rms: 0.3087E+04   max: 0.1699E+05   C at   82  1   RLX: 0.000
       a = 14.250      CL =  0.9999
      Cm = -0.1025     CD =  2.01258   =>   CDf =  0.00578    CDp =  2.00680

 MRCHDU: Convergence failed at  15  side 1    Res =  0.2587E+01
 MRCHDU: Convergence failed at  16  side 1    Res =  0.8280E-01
 MRCHDU: Convergence failed at  17  side 1    Res =  0.6928E+00
 Side 1  free  transition at x/c =  0.0230   12
 Side 2 forced transition at x/c =  1.0000   76

 155   rms: 0.2233E+03   max: -.1127E+04   C at   79  1   RLX: 0.000
       a = 14.250      CL =  0.9992
      Cm = -0.1021     CD =  1.99925   =>   CDf =  0.00578    CDp =  1.99347
 VISCAL:  Convergence failed
 Calculating wake trajectory ...
 Calculating source influence matrix ...

 Solving BL system ...

 MRCHDU: Convergence failed at  15  side 1    Res =  0.2593E+01
 MRCHDU: Convergence failed at  16  side 1    Res =  0.8569E-01
 MRCHDU: Convergence failed at  17  side 1    Res =  0.6931E+00
 Side 1  free  transition at x/c =  0.0230   12
 Side 2 forced transition at x/c =  1.0000   76

   1   rms: 0.1401E+04   max: -.7079E+04   C at   80  1   RLX: 0.000
       a = 14.500      CL =  0.9983
      Cm = -0.1022     CD =  2.00960   =>   CDf =  0.00578    CDp =  2.00382

 MRCHDU: Convergence failed at  15  side 1    Res =  0.2634E+01
 MRCHDU: Convergence failed at  16  side 1    Res =  0.8756E-01

[TIMEOUT]
