
 ===================================================
  XFOIL Version 6.99
  Copyright (C) 2000   Mark Drela, Harold Youngren

  This software comes with ABSOLUTELY NO WARRANTY,
    subject to the GNU General Public License.

  Caveat computor
 ===================================================

 File  xfoil.def  not found

   QUIT    Exit program

  .OPER    Direct operating point(s)
  .MDES    Complex mapping design routine
  .QDES    Surface speed design routine
  .GDES    Geometry design routine

   SAVE f  Write airfoil to labeled coordinate file
   PSAV f  Write airfoil to plain coordinate file
   ISAV f  Write airfoil to ISES coordinate file
   MSAV f  Write airfoil to MSES coordinate file
   REVE    Reverse written-airfoil node ordering

   LOAD f  Read buffer airfoil from coordinate file
   NACA i  Set NACA 4,5-digit airfoil and buffer airfoil
   INTE    Set buffer airfoil by interpolating two airfoils
   NORM    Buffer airfoil normalization toggle
   XYCM rr Change CM reference location, currently  0.25000 0.00000

   BEND    Display structural properties of current airfoil

   PCOP    Set current-airfoil panel nodes directly from buffer airfoil points
   PANE    Set current-airfoil panel nodes ( 160 ) based on curvature
  .PPAR    Show/change paneling

  .PLOP    Plotting options

   WDEF f  Write  current-settings file
   RDEF f  Reread current-settings file
   NAME s  Specify new airfoil name
   NINC    Increment name version number

   Z       Zoom    | (available in all menus)
   U       Unzoom  | 

 XFOIL   c>  
 Labeled airfoil file.  Name:  HQ 3.0/10 AIRFOIL                               

 Number of input coordinate points:  77
 Counterclockwise ordering
 Max thickness =     0.099851  at x =   0.350
 Max camber    =     0.029443  at x =   0.500

  LE  x,y  =  -0.00011   0.00093  |   Chord =   1.00011
  TE  x,y  =   1.00000   0.00000  |

 Current airfoil nodes set from buffer airfoil nodes (  77 )

 WARNING: Poor input coordinate distribution
          Excessive panel angle   55.9  at i =  39
          Repaneling with PANE and/or PPAR suggested
           (doing GDES,CADD before repaneling _may_
            improve excessively coarse LE spacing

 XFOIL   c>  
 XFOIL   c>  
 Sharp trailing edge

 Paneling parameters used...
   Number of panel nodes       160
   Panel bunching parameter    1.000
   TE/LE panel density ratio   0.150
   Refined-area/LE panel density ratio    0.200
   Top    side refined area x/c limits  1.000 1.000
   Bottom side refined area x/c limits  1.000 1.000

 XFOIL   c>  
.OPERi   c>  
 Xtr/c     =  1.0000    top    side
 Xtr/c     =  1.0000    bottom side
 Ncrit     =    9.00   ( 0.070 % turb. level )
 Vacc      =  0.0100

 Klag  =  5.6000     Uxwt  =    1.00
 A     =  6.7000     B     =  0.7500       KCt = 0.01485
 CtiniK=  1.8000     CtiniX=  3.3000

..VPAR   c>  
..VPAR   c>  
.OPERi   c>  
 M  =    0.0000
 Re =    150000

.OPERv   c>  
.OPERv   c>  
.OPERv   c>  
 Polar  1 newly created for accumulation
 Airfoil archived with polar: HQ 3.0/10 AIRFOIL                               

Enter  polar save filename  OR  <return> for no file   s>  
 New polar save file available

Enter  polar dump filename  OR  <return> for no file   s>  
 Polar dump file will NOT be written

 Polar accumulation enabled

.OPERva   c>   Calculating unit vorticity distributions ...
 Calculating wake trajectory ...
 Calculating source influence matrix ...

 Solving BL system ...

 Initializing BL ...
    side            1  ...
 MRCHUE: Inverse mode at  56     Hk =   3.800
 MRCHUE: Inverse mode at  57     Hk =   4.094
 MRCHUE: Inverse mode at  58     Hk =   4.382
 MRCHUE: Inverse mode at  59     Hk =   4.666
 MRCHUE: Inverse mode at  60     Hk =   4.945
 MRCHUE: Inverse mode at  61     Hk =   5.220
 MRCHUE: Inverse mode at  62     Hk =   5.491
 MRCHUE: Inverse mode at  63     Hk =   5.760
 MRCHUE: Inverse mode at  64     Hk =   6.027
 MRCHUE: Inverse mode at  65     Hk =   6.292
 MRCHUE: Inverse mode at  66     Hk =   6.555
 MRCHUE: Inverse mode at  67     Hk =   6.816
 MRCHUE: Inverse mode at  68     Hk =   7.075
 MRCHUE: Inverse mode at  69     Hk =   7.329
 MRCHUE: Inverse mode at  70     Hk =   7.581
 MRCHUE: Inverse mode at  71     Hk =   7.830
 MRCHUE: Inverse mode at  72     Hk =   8.077
 MRCHUE: Inverse mode at  73     Hk =   8.326
 MRCHUE: Inverse mode at  74     Hk =   8.573
 MRCHUE: Inverse mode at  75     Hk =   8.792
 MRCHUE: Inverse mode at  76     Hk =   8.967
 MRCHUE: Inverse mode at  77     Hk =   9.063
    side            2  ...
 MRCHUE: Inverse mode at  11     Hk =   3.995
 MRCHUE: Inverse mode at  12     Hk =   4.767
 MRCHUE: Inverse mode at  13     Hk =   5.621
 MRCHUE: Inverse mode at  14     Hk =   6.603
 MRCHUE: Inverse mode at  15     Hk =   7.765
 MRCHUE: Inverse mode at  16     Hk =   8.992
 MRCHUE: Inverse mode at  17     Hk =  10.173
 MRCHUE: Inverse mode at  18     Hk =   7.603
 MRCHUE: Inverse mode at  19     Hk =   4.176
 MRCHUE: Inverse mode at  20     Hk =   2.500
 MRCHUE: Inverse mode at  21     Hk =   2.500
 MRCHUE: Inverse mode at  22     Hk =   2.500

 Side 1 forced transition at x/c =  1.0000   77
 Side 2  free  transition at x/c =  0.0613   18

   1   rms: 0.6108E+00   max: 0.6479E+01   T at   18  2   RLX: 0.229
       a = -4.000      CL = -0.1288
      Cm = -0.1047     CD =  0.01402   =>   CDf =  0.00721    CDp =  0.00681

 MRCHDU: Convergence failed at  18  side 2    Res =  0.6883E+01
 MRCHDU: Convergence failed at  19  side 2    Res =  0.2892E+02
 MRCHDU: Convergence failed at  20  side 2    Res =  0.3268E+02
 MRCHDU: Convergence failed at  21  side 2    Res =  0.2207E+02
 MRCHDU: Convergence failed at  22  side 2    Res =  0.3825E+02
 MRCHDU: Convergence failed at  23  side 2    Res =  0.3899E+02
 MRCHDU: Convergence failed at  24  side 2    Res =  0.4126E+02
 MRCHDU: Convergence failed at  25  side 2    Res =  0.3447E+02
 MRCHDU: Convergence failed at  26  side 2    Res =  0.3066E+02
 MRCHDU: Convergence failed at  27  side 2    Res =  0.2754E+02
 MRCHDU: Convergence failed at  28  side 2    Res =  0.3437E+02
 MRCHDU: Convergence failed at  29  side 2    Res =  0.4442E+02
 MRCHDU: Convergence failed at  30  side 2    Res =  0.4761E+02
 MRCHDU: Convergence failed at  31  side 2    Res =  0.2479E+02
 MRCHDU: Convergence failed at  32  side 2    Res =  0.2886E+02
 MRCHDU: Convergence failed at  33  side 2    Res =  0.3353E+02
 MRCHDU: Convergence failed at  34  side 2    Res =  0.6196E+02
 MRCHDU: Convergence failed at  35  side 2    Res =  0.5325E+03
 MRCHDU: Convergence failed at  36  side 2    Res =  0.5911E+02
 MRCHDU: Convergence failed at  37  side 2    Res =  0.3790E+02
 MRCHDU: Convergence failed at  38  side 2    Res =  0.2812E+02
 MRCHDU: Convergence failed at  39  side 2    Res =  0.2821E+02
 MRCHDU: Convergence failed at  40  side 2    Res =  0.2887E+02
 MRCHDU: Convergence failed at  41  side 2    Res =  0.2998E+02
 MRCHDU: Convergence failed at  42  side 2    Res =  0.3107E+02
 MRCHDU: Convergence failed at  43  side 2    Res =  0.2875E+02
 MRCHDU: Convergence failed at  44  side 2    Res =  0.3266E+02
 MRCHDU: Convergence failed at  45  side 2    Res =  0.3443E+02
 MRCHDU: Convergence failed at  46  side 2    Res =  0.2871E+02
 MRCHDU: Convergence failed at  47  side 2    Res =  0.3708E+02
 MRCHDU: Convergence failed at  48  side 2    Res =  0.5131E+02
 MRCHDU: Convergence failed at  49  side 2    Res =  0.2680E+02
 MRCHDU: Convergence failed at  50  side 2    Res =  0.2949E+02
 MRCHDU: Convergence failed at  51  side 2    Res =  0.6359E+02
 MRCHDU: Convergence failed at  52  side 2    Res =  0.6021E+02
 MRCHDU: Convergence failed at  53  side 2    Res =  0.3326E+02
 MRCHDU: Convergence failed at  54  side 2    Res =  0.1392E+03
 MRCHDU: Convergence failed at  55  side 2    Res =  0.7014E+02
 MRCHDU: Convergence failed at  56  side 2    Res =  0.7855E+02
 MRCHDU: Convergence failed at  57  side 2    Res =  0.7306E+02
 MRCHDU: Convergence failed at  58  side 2    Res =  0.8492E+02
 MRCHDU: Convergence failed at  59  side 2    Res =  0.1015E+03
 MRCHDU: Convergence failed at  60  side 2    Res =  0.9352E+02
 MRCHDU: Convergence failed at  61  side 2    Res =  0.7009E+02
 MRCHDU: Convergence failed at  62  side 2    Res =  0.1347E+03
 MRCHDU: Convergence failed at  63  side 2    Res =  0.2410E+03
 MRCHDU: Convergence failed at  64  side 2    Res =  0.1982E+03
 MRCHDU: Convergence failed at  65  side 2    Res =  0.5069E+03
 MRCHDU: Convergence failed at  66  side 2    Res =  0.1457E+04
 MRCHDU: Convergence failed at  67  side 2    Res =  0.1399E+04
 MRCHDU: Convergence failed at  68  side 2    Res =  0.5121E+03
 MRCHDU: Convergence failed at  69  side 2    Res =  0.3378E+03
 MRCHDU: Convergence failed at  70  side 2    Res =  0.2704E+03
 MRCHDU: Convergence failed at  71  side 2    Res =  0.2408E+03
 MRCHDU: Convergence failed at  72  side 2    Res =  0.2064E+03
 MRCHDU: Convergence failed at  73  side 2    Res =  0.3736E+03
 MRCHDU: Convergence failed at  74  side 2    Res =  0.4338E+03
 MRCHDU: Convergence failed at  75  side 2    Res =  0.2304E+03
 MRCHDU: Convergence failed at  76  side 2    Res =  0.2051E+03
 MRCHDU: Convergence failed at  77  side 2    Res =  0.2004E+03
 MRCHDU: Convergence failed at  78  side 2    Res =  0.4315E+03
 MRCHDU: Convergence failed at  79  side 2    Res =  0.9296E+02
 MRCHDU: Convergence failed at  80  side 2    Res =  0.4139E+03
 MRCHDU: Convergence failed at  81  side 2    Res =  0.1125E+03
 MRCHDU: Convergence failed at  82  side 2    Res =  0.1003E+03
 MRCHDU: Convergence failed at  83  side 2    Res =  0.1121E+03
 MRCHDU: Convergence failed at  84  side 2    Res =  0.1663E+03
 MRCHDU: Convergence failed at  85  side 2    Res =  0.9353E+02
 Side 1 forced transition at x/c =  1.0000   77
 Side 2  free  transition at x/c =  0.0481   17

   2   rms: 0.1050E+01   max: 0.5403E+01   D at   88  2   RLX: 0.278
       a = -4.000      CL = -1.1270
      Cm =  0.2391     CD =  0.00861   =>   CDf =  0.00313    CDp =  0.00548

 MRCHDU: Convergence failed at  88  side 2    Res =  0.4264E+01
 MRCHDU: Convergence failed at  89  side 2    Res =  0.2063E+01
 MRCHDU: Convergence failed at  90  side 2    Res =  0.1174E+01
 Side 1 forced transition at x/c =  1.0000   77
 Side 2  free  transition at x/c =  0.0501   17

   3   rms: 0.7533E+00   max: 0.5378E+01   T at   17  2   RLX: 0.265
       a = -4.000      CL = -0.7649
      Cm =  0.0914     CD =  0.03846   =>   CDf =  0.00392    CDp =  0.03454

 Side 1 forced transition at x/c =  1.0000   77
 Side 2  free  transition at x/c =  0.0885   20

   4   rms: 0.4282E+00   max: 0.4415E+01   T at   20  2   RLX: 0.340
       a = -4.000      CL = -0.6665
      Cm =  0.0441     CD =  0.04572   =>   CDf =  0.00337    CDp =  0.04235

 Side 1  free  transition at x/c =  0.9898   76
 Side 2  free  transition at x/c =  0.0834   20

   5   rms: 0.3890E+00   max: 0.1100E+01   T at   76  1   RLX: 0.525
       a = -4.000      CL = -0.4596
      Cm = -0.0309     CD =  0.04489   =>   CDf =  0.00330    CDp =  0.04159

 Side 1  free  transition at x/c =  0.9725   75
 Side 2  free  transition at x/c =  0.0909   20

   6   rms: 0.9264E+00   max: -.1497E+02   T at   20  2   RLX: 0.033
       a = -4.000      CL = -0.4534
      Cm = -0.0479     CD =  0.05245   =>   CDf =  0.00342    CDp =  0.04903

 Side 1  free  transition at x/c =  0.9702   74
 Side 2  free  transition at x/c =  0.1257   23
 idif Ue xi dudx           1  0.23597969      4.46140766E-03   52.893551    
 Uenew xinew           2  1.93765014E-02  3.66330147E-04

   7   rms: 0.8592E+00   max: 0.8931E+01   T at   23  2   RLX: 0.168
       a = -4.000      CL = -0.4474
      Cm = -0.0585     CD =  0.04564   =>   CDf =  0.00337    CDp =  0.04227

 MRCHDU: Convergence failed at  28  side 2    Res =  0.1741E+01
 MRCHDU: Convergence failed at  29  side 2    Res =  0.2132E+02
 MRCHDU: Convergence failed at  30  side 2    Res =  0.4139E+01
 MRCHDU: Convergence failed at  31  side 2    Res =  0.2910E+01
 MRCHDU: Convergence failed at  32  side 2    Res =  0.2542E+01
 MRCHDU: Convergence failed at  33  side 2    Res =  0.2498E+01
 MRCHDU: Convergence failed at  34  side 2    Res =  0.2699E+01
 MRCHDU: Convergence failed at  35  side 2    Res =  0.3096E+01
 MRCHDU: Convergence failed at  36  side 2    Res =  0.3783E+01
 MRCHDU: Convergence failed at  37  side 2    Res =  0.4449E+01
 MRCHDU: Convergence failed at  38  side 2    Res =  0.4725E+01
 MRCHDU: Convergence failed at  39  side 2    Res =  0.3069E+01
 MRCHDU: Convergence failed at  42  side 2    Res =  0.3873E+01
 MRCHDU: Convergence failed at  43  side 2    Res =  0.2756E+01
 MRCHDU: Convergence failed at  44  side 2    Res =  0.2430E+01
 MRCHDU: Convergence failed at  45  side 2    Res =  0.2312E+01
 MRCHDU: Convergence failed at  46  side 2    Res =  0.2258E+01
 MRCHDU: Convergence failed at  47  side 2    Res =  0.2238E+01
 MRCHDU: Convergence failed at  48  side 2    Res =  0.2227E+01
 MRCHDU: Convergence failed at  49  side 2    Res =  0.2223E+01
 MRCHDU: Convergence failed at  50  side 2    Res =  0.2211E+01
 MRCHDU: Convergence failed at  51  side 2    Res =  0.2194E+01
 MRCHDU: Convergence failed at  52  side 2    Res =  0.2174E+01
 MRCHDU: Convergence failed at  53  side 2    Res =  0.2145E+01
 MRCHDU: Convergence failed at  54  side 2    Res =  0.2096E+01
 MRCHDU: Convergence failed at  55  side 2    Res =  0.2040E+01
 MRCHDU: Convergence failed at  56  side 2    Res =  0.1981E+01
 MRCHDU: Convergence failed at  57  side 2    Res =  0.1913E+01
 MRCHDU: Convergence failed at  58  side 2    Res =  0.1828E+01
 MRCHDU: Convergence failed at  59  side 2    Res =  0.1734E+01
 MRCHDU: Convergence failed at  60  side 2    Res =  0.1633E+01
 MRCHDU: Convergence failed at  61  side 2    Res =  0.2077E+01
 MRCHDU: Convergence failed at  62  side 2    Res =  0.2130E+01
 MRCHDU: Convergence failed at  63  side 2    Res =  0.2171E+01
 MRCHDU: Convergence failed at  64  side 2    Res =  0.2207E+01
 MRCHDU: Convergence failed at  65  side 2    Res =  0.2240E+01
 MRCHDU: Convergence failed at  66  side 2    Res =  0.2260E+01
 MRCHDU: Convergence failed at  67  side 2    Res =  0.2313E+01
 MRCHDU: Convergence failed at  68  side 2    Res =  0.2351E+01
 MRCHDU: Convergence failed at  69  side 2    Res =  0.2389E+01
 MRCHDU: Convergence failed at  70  side 2    Res =  0.2462E+01
 MRCHDU: Convergence failed at  71  side 2    Res =  0.2513E+01
 MRCHDU: Convergence failed at  72  side 2    Res =  0.2577E+01
 MRCHDU: Convergence failed at  73  side 2    Res =  0.2647E+01
 MRCHDU: Convergence failed at  74  side 2    Res =  0.2727E+01
 MRCHDU: Convergence failed at  75  side 2    Res =  0.2796E+01
 MRCHDU: Convergence failed at  76  side 2    Res =  0.2852E+01
 MRCHDU: Convergence failed at  77  side 2    Res =  0.2936E+01
 MRCHDU: Convergence failed at  78  side 2    Res =  0.3003E+01
 MRCHDU: Convergence failed at  79  side 2    Res =  0.3038E+01
 MRCHDU: Convergence failed at  80  side 2    Res =  0.3070E+01
 MRCHDU: Convergence failed at  81  side 2    Res =  0.3133E+01
 MRCHDU: Convergence failed at  82  side 2    Res =  0.3167E+01
 MRCHDU: Convergence failed at  83  side 2    Res =  0.3179E+01
 MRCHDU: Convergence failed at  84  side 2    Res =  0.3303E+01
 MRCHDU: Convergence failed at  85  side 2    Res =  0.3517E+01
 MRCHDU: Convergence failed at  86  side 2    Res =  0.4077E+01
 Side 1  free  transition at x/c =  0.9576   72
 Side 2  free  transition at x/c =  0.1085   22

   8   rms: 0.6405E+00   max: 0.2210E+01   D at   24  2   RLX: 0.262
       a = -4.000      CL = -0.9229
      Cm =  0.1602     CD =  0.02220   =>   CDf =  0.00673    CDp =  0.01546

 Side 1  free  transition at x/c =  0.9593   74
 Side 2  free  transition at x/c =  0.1082   21

   9   rms: 0.4524E+00   max: -.2690E+01   T at   22  2   RLX: 0.186
       a = -4.000      CL = -0.7644
      Cm =  0.1092     CD =  0.02043   =>   CDf =  0.00934    CDp =  0.01109

 Side 1  free  transition at x/c =  0.9587   74
 Side 2  free  transition at x/c =  0.1069   21

  10   rms: 0.6645E+00   max: 0.1094E+02   T at   21  2   RLX: 0.089
       a = -4.000      CL = -0.7119
      Cm =  0.0900     CD =  0.02227   =>   CDf =  0.00809    CDp =  0.01418

 Side 1  free  transition at x/c =  0.9588   74
 Side 2  free  transition at x/c =  0.0984   21

  11   rms: 0.3395E+00   max: -.1337E+01   T at   21  2   RLX: 0.374
       a = -4.000      CL = -0.5024
      Cm =  0.0230     CD =  0.02830   =>   CDf =  0.00751    CDp =  0.02079

 Side 1  free  transition at x/c =  0.9574   73
 Side 2  free  transition at x/c =  0.1044   21

  12   rms: 0.2041E+00   max: 0.8906E+00   T at   22  2   RLX: 0.596
       a = -4.000      CL = -0.3237
      Cm = -0.0338     CD =  0.03301   =>   CDf =  0.00629    CDp =  0.02672

 Side 1  free  transition at x/c =  0.9502   73
 Side 2  free  transition at x/c =  0.1282   23

  13   rms: 0.1322E+00   max: 0.5892E+00   D at   31  2
       a = -4.000      CL = -0.1921
      Cm = -0.0760     CD =  0.03015   =>   CDf =  0.00703    CDp =  0.02312

 MRCHDU: Convergence failed at  31  side 2    Res =  0.2924E+01
 MRCHDU: Convergence failed at  32  side 2    Res =  0.1933E+01
 MRCHDU: Convergence failed at  33  side 2    Res =  0.1553E+01
 MRCHDU: Convergence failed at  34  side 2    Res =  0.1442E+01
 MRCHDU: Convergence failed at  35  side 2    Res =  0.1754E+01
 MRCHDU: Convergence failed at  36  side 2    Res =  0.2442E+01
 MRCHDU: Convergence failed at  37  side 2    Res =  0.3478E+01
 MRCHDU: Convergence failed at  38  side 2    Res =  0.5402E+01
 MRCHDU: Convergence failed at  39  side 2    Res =  0.1050E+02
 MRCHDU: Convergence failed at  40  side 2    Res =  0.6280E+02
 MRCHDU: Convergence failed at  41  side 2    Res =  0.1224E+02
 MRCHDU: Convergence failed at  42  side 2    Res =  0.7966E+01
 MRCHDU: Convergence failed at  43  side 2    Res =  0.6241E+01
 MRCHDU: Convergence failed at  44  side 2    Res =  0.5386E+01
 MRCHDU: Convergence failed at  45  side 2    Res =  0.4898E+01
 MRCHDU: Convergence failed at  46  side 2    Res =  0.4629E+01
 MRCHDU: Convergence failed at  47  side 2    Res =  0.4383E+01
 MRCHDU: Convergence failed at  48  side 2    Res =  0.4297E+01
 MRCHDU: Convergence failed at  49  side 2    Res =  0.4267E+01
 MRCHDU: Convergence failed at  50  side 2    Res =  0.4286E+01
 MRCHDU: Convergence failed at  51  side 2    Res =  0.4342E+01
 MRCHDU: Convergence failed at  52  side 2    Res =  0.4438E+01
 MRCHDU: Convergence failed at  53  side 2    Res =  0.4577E+01
 MRCHDU: Convergence failed at  54  side 2    Res =  0.6311E+01
 MRCHDU: Convergence failed at  55  side 2    Res =  0.6714E+01
 MRCHDU: Convergence failed at  56  side 2    Res =  0.7193E+01
 MRCHDU: Convergence failed at  57  side 2    Res =  0.7758E+01
 MRCHDU: Convergence failed at  58  side 2    Res =  0.9444E+01
 MRCHDU: Convergence failed at  59  side 2    Res =  0.1038E+02
 MRCHDU: Convergence failed at  60  side 2    Res =  0.1143E+02
 MRCHDU: Convergence failed at  61  side 2    Res =  0.1265E+02
 MRCHDU: Convergence failed at  62  side 2    Res =  0.1404E+02
 MRCHDU: Convergence failed at  63  side 2    Res =  0.1568E+02
 MRCHDU: Convergence failed at  64  side 2    Res =  0.1773E+02
 MRCHDU: Convergence failed at  65  side 2    Res =  0.2008E+02
 MRCHDU: Convergence failed at  66  side 2    Res =  0.6000E+02
 MRCHDU: Convergence failed at  67  side 2    Res =  0.8835E+02
 MRCHDU: Convergence failed at  68  side 2    Res =  0.1473E+03
 MRCHDU: Convergence failed at  69  side 2    Res =  0.3016E+03
 MRCHDU: Convergence failed at  70  side 2    Res =  0.9145E+03
 MRCHDU: Convergence failed at  71  side 2    Res =  0.4338E+04
 MRCHDU: Convergence failed at  72  side 2    Res =  0.2919E+04
 MRCHDU: Convergence failed at  73  side 2    Res =  0.4906E+04
 MRCHDU: Convergence failed at  74  side 2    Res =  0.3254E+03
 MRCHDU: Convergence failed at  75  side 2    Res =  0.1239E+03
 MRCHDU: Convergence failed at  76  side 2    Res =  0.8746E+02
 MRCHDU: Convergence failed at  77  side 2    Res =  0.6078E+02
 MRCHDU: Convergence failed at  78  side 2    Res =  0.3767E+02
 MRCHDU: Convergence failed at  79  side 2    Res =  0.1639E+02
 MRCHDU: Convergence failed at  80  side 2    Res =  0.1548E+02
 MRCHDU: Convergence failed at  81  side 2    Res =  0.1410E+02
 MRCHDU: Convergence failed at  82  side 2    Res =  0.1228E+02
 MRCHDU: Convergence failed at  83  side 2    Res =  0.1129E+02
 MRCHDU: Convergence failed at  84  side 2    Res =  0.1111E+02
 MRCHDU: Convergence failed at  85  side 2    Res =  0.2745E+02
 Side 1  free  transition at x/c =  0.9517   73
 Side 2  free  transition at x/c =  0.0712   19

  14   rms: 0.3055E+00   max: -.1984E+01   T at   19  2   RLX: 0.252
       a = -4.000      CL = -0.4578
      Cm =  0.0444     CD =  0.03968   =>   CDf =  0.00341    CDp =  0.03627

 Side 1  free  transition at x/c =  0.9562   73
 Side 2  free  transition at x/c =  0.0711   19

  15   rms: 0.2342E+00   max: 0.2336E+00   D at  102  2   RLX: 0.612
       a = -4.000      CL = -0.2873
      Cm = -0.0281     CD =  0.03407   =>   CDf =  0.00681    CDp =  0.02725

 Side 1  free  transition at x/c =  0.9506   73
 Side 2  free  transition at x/c =  0.0633   18

  16   rms: 0.3721E+00   max: -.6545E+01   T at   18  2   RLX: 0.076
       a = -4.000      CL = -0.2705
      Cm = -0.0306     CD =  0.03553   =>   CDf =  0.00599    CDp =  0.02954

 Side 1  free  transition at x/c =  0.9505   73
 Side 2  free  transition at x/c =  0.0603   18

  17   rms: 0.1209E+00   max: -.7750E+00   D at   18  2   RLX: 0.645
       a = -4.000      CL = -0.2068
      Cm = -0.0575     CD =  0.03561   =>   CDf =  0.00578    CDp =  0.02984

 Side 1  free  transition at x/c =  0.9516   73
 Side 2  free  transition at x/c =  0.0560   18

  18   rms: 0.1789E+00   max: -.2395E+01   T at   18  2   RLX: 0.209
       a = -4.000      CL = -0.1981
      Cm = -0.0604     CD =  0.03610   =>   CDf =  0.00570    CDp =  0.03040

 Side 1  free  transition at x/c =  0.9520   73
 Side 2  free  transition at x/c =  0.0590   18

  19   rms: 0.2060E+00   max: 0.2127E+01   T at   18  2   RLX: 0.627
       a = -4.000      CL = -0.1797
      Cm = -0.0684     CD =  0.03414   =>   CDf =  0.00531    CDp =  0.02883

 Side 1  free  transition at x/c =  0.9525   73
 Side 2  free  transition at x/c =  0.0505   17

  20   rms: 0.2195E+00   max: 0.1479E+01   T at   17  2   RLX: 0.797
       a = -4.000      CL = -0.1773
      Cm = -0.0733     CD =  0.02560   =>   CDf =  0.00609    CDp =  0.01951

 Side 1  free  transition at x/c =  0.9548   73
 Side 2  free  transition at x/c =  0.0449   17

  21   rms: 0.2415E+00   max: -.8343E+00   D at   26  2   RLX: 0.599
       a = -4.000      CL = -0.1715
      Cm = -0.0738     CD =  0.02678   =>   CDf =  0.00595    CDp =  0.02083

 Side 1  free  transition at x/c =  0.9555   73
 Side 2  free  transition at x/c =  0.0433   17

  22   rms: 0.1219E+00   max: -.5317E+00   D at   23  2   RLX: 0.940
       a = -4.000      CL = -0.1656
      Cm = -0.0740     CD =  0.02362   =>   CDf =  0.00683    CDp =  0.01679

 Side 1  free  transition at x/c =  0.9575   73
 Side 2  free  transition at x/c =  0.0434   17

  23   rms: 0.1095E-01   max: -.9197E-01   D at   23  2
       a = -4.000      CL = -0.1632
      Cm = -0.0746     CD =  0.02375   =>   CDf =  0.00744    CDp =  0.01631

 Side 1  free  transition at x/c =  0.9584   74
 Side 2  free  transition at x/c =  0.0439   17

  24   rms: 0.2027E-02   max: 0.2108E-01   D at   73  1
       a = -4.000      CL = -0.1634
      Cm = -0.0746     CD =  0.02378   =>   CDf =  0.00748    CDp =  0.01629

 Side 1  free  transition at x/c =  0.9583   74
 Side 2  free  transition at x/c =  0.0439   17

  25   rms: 0.5069E-04   max: -.4171E-03   D at   18  2
       a = -4.000      CL = -0.1634
      Cm = -0.0746     CD =  0.02378   =>   CDf =  0.00748    CDp =  0.01629
 plradd ia,ip,cpol            1           0  3.82778264E-04

 Point added to stored polar  1
 Point written to save file  hq3010_Re150k.base.pol                          
 Dump file unspecified or not available
 Calculating wake trajectory ...
 Calculating source influence matrix ...

 Solving BL system ...

 Side 1  free  transition at x/c =  0.9583   74
 Side 2  free  transition at x/c =  0.0439   17

   1   rms: 0.1486E+00   max: -.1454E+01   T at   17  2   RLX: 0.344
       a = -3.500      CL = -0.1363
      Cm = -0.0767     CD =  0.02282   =>   CDf =  0.00748    CDp =  0.01534

 Side 1  free  transition at x/c =  0.9570   73
 Side 2  free  transition at x/c =  0.0470   17

   2   rms: 0.1381E+00   max: 0.7964E+00   T at   73  1   RLX: 0.982
       a = -3.500      CL = -0.1477
      Cm = -0.0675     CD =  0.02165   =>   CDf =  0.00717    CDp =  0.01448

 Side 1  free  transition at x/c =  0.9353   72
 Side 2  free  transition at x/c =  0.0472   17

   3   rms: 0.8249E-01   max: -.4105E+00   T at   72  1
       a = -3.500      CL = -0.0949
      Cm = -0.0766     CD =  0.02061   =>   CDf =  0.00773    CDp =  0.01287

 Side 1  free  transition at x/c =  0.9514   73
 Side 2  free  transition at x/c =  0.0505   17

   4   rms: 0.1837E-01   max: 0.1305E+00   D at   75  1
       a = -3.500      CL = -0.1009
      Cm = -0.0756     CD =  0.02094   =>   CDf =  0.00790    CDp =  0.01304

 Side 1  free  transition at x/c =  0.9477   73
 Side 2  free  transition at x/c =  0.0502   17

   5   rms: 0.2348E-02   max: -.1238E-01   D at   73  1
       a = -3.500      CL = -0.1000
      Cm = -0.0757     CD =  0.02090   =>   CDf =  0.00788    CDp =  0.01302

 Side 1  free  transition at x/c =  0.9480   73
 Side 2  free  transition at x/c =  0.0503   17

   6   rms: 0.5526E-04   max: 0.4714E-03   D at   18  2
       a = -3.500      CL = -0.1000
      Cm = -0.0758     CD =  0.02090   =>   CDf =  0.00788    CDp =  0.01302
 plradd ia,ip,cpol            2           0  3.82778264E-04

 Point added to stored polar  1
 Point written to save file  hq3010_Re150k.base.pol                          
 Dump file unspecified or not available
 Calculating wake trajectory ...
 Calculating source influence matrix ...

 Solving BL system ...

 Side 1  free  transition at x/c =  0.9480   73
 Side 2  free  transition at x/c =  0.0503   17

   1   rms: 0.1568E+00   max: -.7060E+00   T at   17  2   RLX: 0.708
       a = -3.000      CL = -0.0459
      Cm = -0.0780     CD =  0.01897   =>   CDf =  0.00797    CDp =  0.01100

 MRCHDU: Convergence failed at  18  side 2    Res =  0.4186E+02
 MRCHDU: Convergence failed at  19  side 2    Res =  0.6744E+01
 MRCHDU: Convergence failed at  20  side 2    Res =  0.2779E+02
 MRCHDU: Convergence failed at  21  side 2    Res =  0.1327E+02
 MRCHDU: Convergence failed at  22  side 2    Res =  0.1313E+02
 MRCHDU: Convergence failed at  23  side 2    Res =  0.1560E+02
 MRCHDU: Convergence failed at  24  side 2    Res =  0.1847E+02
 MRCHDU: Convergence failed at  25  side 2    Res =  0.2277E+02
 MRCHDU: Convergence failed at  26  side 2    Res =  0.3324E+02
 MRCHDU: Convergence failed at  27  side 2    Res =  0.6241E+02
 MRCHDU: Convergence failed at  28  side 2    Res =  0.6677E+04
 MRCHDU: Convergence failed at  29  side 2    Res =  0.5517E+02
 MRCHDU: Convergence failed at  30  side 2    Res =  0.5201E+02
 MRCHDU: Convergence failed at  31  side 2    Res =  0.4865E+02
 MRCHDU: Convergence failed at  32  side 2    Res =  0.4401E+02
 MRCHDU: Convergence failed at  33  side 2    Res =  0.4082E+02
 MRCHDU: Convergence failed at  34  side 2    Res =  0.3916E+02
 MRCHDU: Convergence failed at  35  side 2    Res =  0.3768E+02
 MRCHDU: Convergence failed at  36  side 2    Res =  0.3734E+02
 MRCHDU: Convergence failed at  37  side 2    Res =  0.3617E+02
 MRCHDU: Convergence failed at  38  side 2    Res =  0.3450E+02
 MRCHDU: Convergence failed at  39  side 2    Res =  0.3444E+02
 MRCHDU: Convergence failed at  40  side 2    Res =  0.3292E+02
 MRCHDU: Convergence failed at  41  side 2    Res =  0.3047E+02
 MRCHDU: Convergence failed at  42  side 2    Res =  0.2856E+02
 MRCHDU: Convergence failed at  43  side 2    Res =  0.2743E+02
 MRCHDU: Convergence failed at  44  side 2    Res =  0.2567E+02
 MRCHDU: Convergence failed at  45  side 2    Res =  0.2462E+02
 MRCHDU: Convergence failed at  46  side 2    Res =  0.2353E+02
 MRCHDU: Convergence failed at  47  side 2    Res =  0.2222E+02
 MRCHDU: Convergence failed at  48  side 2    Res =  0.2105E+02
 MRCHDU: Convergence failed at  49  side 2    Res =  0.2007E+02
 MRCHDU: Convergence failed at  50  side 2    Res =  0.1920E+02
 MRCHDU: Convergence failed at  51  side 2    Res =  0.1557E+02
 MRCHDU: Convergence failed at  52  side 2    Res =  0.2275E+02
 MRCHDU: Convergence failed at  53  side 2    Res =  0.2254E+02
 MRCHDU: Convergence failed at  54  side 2    Res =  0.2031E+02
 MRCHDU: Convergence failed at  55  side 2    Res =  0.2174E+02
 MRCHDU: Convergence failed at  56  side 2    Res =  0.3198E+02
 MRCHDU: Convergence failed at  57  side 2    Res =  0.3156E+02
 MRCHDU: Convergence failed at  58  side 2    Res =  0.3223E+02
 MRCHDU: Convergence failed at  59  side 2    Res =  0.3305E+02
 MRCHDU: Convergence failed at  60  side 2    Res =  0.3397E+02
 MRCHDU: Convergence failed at  61  side 2    Res =  0.3480E+02
 MRCHDU: Convergence failed at  62  side 2    Res =  0.3611E+02
 MRCHDU: Convergence failed at  63  side 2    Res =  0.4252E+02
 MRCHDU: Convergence failed at  64  side 2    Res =  0.2653E+03
 MRCHDU: Convergence failed at  65  side 2    Res =  0.2304E+02
 MRCHDU: Convergence failed at  66  side 2    Res =  0.2121E+02
 MRCHDU: Convergence failed at  67  side 2    Res =  0.5657E+02
 MRCHDU: Convergence failed at  68  side 2    Res =  0.5623E+02
 MRCHDU: Convergence failed at  69  side 2    Res =  0.5854E+02
 MRCHDU: Convergence failed at  70  side 2    Res =  0.2375E+02
 MRCHDU: Convergence failed at  71  side 2    Res =  0.2230E+02
 MRCHDU: Convergence failed at  72  side 2    Res =  0.2313E+02
 MRCHDU: Convergence failed at  73  side 2    Res =  0.6257E+02
 MRCHDU: Convergence failed at  74  side 2    Res =  0.5181E+02
 MRCHDU: Convergence failed at  75  side 2    Res =  0.5145E+02
 MRCHDU: Convergence failed at  76  side 2    Res =  0.5050E+02
 MRCHDU: Convergence failed at  77  side 2    Res =  0.4845E+02
 MRCHDU: Convergence failed at  78  side 2    Res =  0.2197E+02
 MRCHDU: Convergence failed at  79  side 2    Res =  0.2060E+02
 MRCHDU: Convergence failed at  80  side 2    Res =  0.3075E+02
 MRCHDU: Convergence failed at  81  side 2    Res =  0.6808E+02
 MRCHDU: Convergence failed at  82  side 2    Res =  0.4733E+02
 MRCHDU: Convergence failed at  83  side 2    Res =  0.1070E+03
 MRCHDU: Convergence failed at  84  side 2    Res =  0.4856E+02
 Side 1  free  transition at x/c =  0.9438   73
 Side 2  free  transition at x/c =  0.0653   17

   2   rms: 0.1003E+01   max: -.1054E+02   T at   17  2   RLX: 0.047
       a = -3.000      CL = -0.7563
      Cm =  0.1675     CD =  0.01224   =>   CDf =  0.00312    CDp =  0.00911

 MRCHDU: Convergence failed at  23  side 2    Res =  0.2292E+00
 MRCHDU: Convergence failed at  24  side 2    Res =  0.2968E+00
 MRCHDU: Convergence failed at  25  side 2    Res =  0.2909E+00
 MRCHDU: Convergence failed at  26  side 2    Res =  0.2835E+00
 MRCHDU: Convergence failed at  27  side 2    Res =  0.2745E+00
 MRCHDU: Convergence failed at  28  side 2    Res =  0.2637E+00
 MRCHDU: Convergence failed at  29  side 2    Res =  0.2509E+00
 MRCHDU: Convergence failed at  30  side 2    Res =  0.2411E+00
 MRCHDU: Convergence failed at  31  side 2    Res =  0.2285E+00
 MRCHDU: Convergence failed at  32  side 2    Res =  0.2182E+00
 MRCHDU: Convergence failed at  33  side 2    Res =  0.2041E+00
 MRCHDU: Convergence failed at  34  side 2    Res =  0.1899E+00
 MRCHDU: Convergence failed at  35  side 2    Res =  0.1779E+00
 MRCHDU: Convergence failed at  36  side 2    Res =  0.1597E+00
 MRCHDU: Convergence failed at  37  side 2    Res =  0.1353E+00
 MRCHDU: Convergence failed at  38  side 2    Res =  0.1101E+00
 MRCHDU: Convergence failed at  39  side 2    Res =  0.8619E-01
 MRCHDU: Convergence failed at  64  side 2    Res =  0.2461E+00
 MRCHDU: Convergence failed at  65  side 2    Res =  0.2424E+00
 MRCHDU: Convergence failed at  66  side 2    Res =  0.2387E+00
 MRCHDU: Convergence failed at  67  side 2    Res =  0.2351E+00
 MRCHDU: Convergence failed at  68  side 2    Res =  0.2317E+00
 MRCHDU: Convergence failed at  69  side 2    Res =  0.2288E+00
 MRCHDU: Convergence failed at  70  side 2    Res =  0.2263E+00
 MRCHDU: Convergence failed at  71  side 2    Res =  0.2236E+00
 MRCHDU: Convergence failed at  72  side 2    Res =  0.2204E+00
 MRCHDU: Convergence failed at  73  side 2    Res =  0.2186E+00
 MRCHDU: Convergence failed at  74  side 2    Res =  0.2182E+00
 MRCHDU: Convergence failed at  75  side 2    Res =  0.2162E+00
 MRCHDU: Convergence failed at  76  side 2    Res =  0.2131E+00
 MRCHDU: Convergence failed at  77  side 2    Res =  0.2122E+00
 MRCHDU: Convergence failed at  78  side 2    Res =  0.2119E+00
 MRCHDU: Convergence failed at  79  side 2    Res =  0.2092E+00
 MRCHDU: Convergence failed at  80  side 2    Res =  0.2077E+00
 MRCHDU: Convergence failed at  81  side 2    Res =  0.2076E+00
 MRCHDU: Convergence failed at  82  side 2    Res =  0.1957E+00
 MRCHDU: Convergence failed at  83  side 2    Res =  0.1713E+00
 MRCHDU: Convergence failed at  84  side 2    Res =  0.1065E+00
 Side 1  free  transition at x/c =  0.9484   74
 Side 2  free  transition at x/c =  0.0772   18
 idif Ue xi dudx           1  0.21164437      3.56972218E-03   59.288750    
 Uenew xinew           2  1.59166176E-02  2.68459320E-04

   3   rms: 0.3774E+00   max: -.1126E+01   D at   26  2   RLX: 0.444
       a = -3.000      CL = -0.2271
      Cm = -0.0141     CD =  0.02938   =>   CDf =  0.00379    CDp =  0.02559

 Side 1  free  transition at x/c =  0.9444   72
 Side 2  free  transition at x/c =  0.0695   19

   4   rms: 0.3193E+01   max: -.1902E+02   D at   19  2   RLX: 0.026
       a = -3.000      CL = -0.2436
      Cm = -0.0116     CD =  0.03528   =>   CDf =  0.00503    CDp =  0.03025

 MRCHDU: Convergence failed at  19  side 2    Res =  0.3224E+02
 MRCHDU: Convergence failed at  20  side 2    Res =  0.7200E+01
 MRCHDU: Convergence failed at  21  side 2    Res =  0.6422E+01
 MRCHDU: Convergence failed at  22  side 2    Res =  0.6480E+01
 MRCHDU: Convergence failed at  23  side 2    Res =  0.1049E+02
 MRCHDU: Convergence failed at  24  side 2    Res =  0.1909E+02
 MRCHDU: Convergence failed at  25  side 2    Res =  0.9959E+02
 MRCHDU: Convergence failed at  26  side 2    Res =  0.2532E+02
 MRCHDU: Convergence failed at  27  side 2    Res =  0.2632E+02
 MRCHDU: Convergence failed at  28  side 2    Res =  0.7699E+01
 MRCHDU: Convergence failed at  29  side 2    Res =  0.6937E+01
 MRCHDU: Convergence failed at  30  side 2    Res =  0.6476E+01
 MRCHDU: Convergence failed at  31  side 2    Res =  0.6312E+01
 MRCHDU: Convergence failed at  32  side 2    Res =  0.5945E+01
 MRCHDU: Convergence failed at  33  side 2    Res =  0.5816E+01
 MRCHDU: Convergence failed at  34  side 2    Res =  0.5473E+01
 MRCHDU: Convergence failed at  35  side 2    Res =  0.2393E+02
 MRCHDU: Convergence failed at  36  side 2    Res =  0.2687E+02
 MRCHDU: Convergence failed at  37  side 2    Res =  0.3096E+02
 MRCHDU: Convergence failed at  38  side 2    Res =  0.3743E+02
 MRCHDU: Convergence failed at  39  side 2    Res =  0.4699E+02
 MRCHDU: Convergence failed at  40  side 2    Res =  0.3158E+01
 MRCHDU: Convergence failed at  41  side 2    Res =  0.2430E+01
 MRCHDU: Convergence failed at  42  side 2    Res =  0.5866E+00
 MRCHDU: Convergence failed at  43  side 2    Res =  0.1971E+01
 MRCHDU: Convergence failed at  44  side 2    Res =  0.4297E+01
 MRCHDU: Convergence failed at  45  side 2    Res =  0.6613E+01
 MRCHDU: Convergence failed at  46  side 2    Res =  0.8607E+01
 MRCHDU: Convergence failed at  47  side 2    Res =  0.9808E+01
 MRCHDU: Convergence failed at  48  side 2    Res =  0.9763E+01
 MRCHDU: Convergence failed at  49  side 2    Res =  0.9614E+01
 MRCHDU: Convergence failed at  50  side 2    Res =  0.9200E+01
 MRCHDU: Convergence failed at  51  side 2    Res =  0.8686E+01
 MRCHDU: Convergence failed at  52  side 2    Res =  0.7988E+01
 MRCHDU: Convergence failed at  53  side 2    Res =  0.7560E+01
 MRCHDU: Convergence failed at  54  side 2    Res =  0.6828E+01
 MRCHDU: Convergence failed at  55  side 2    Res =  0.6528E+01
 MRCHDU: Convergence failed at  56  side 2    Res =  0.5960E+01
 MRCHDU: Convergence failed at  57  side 2    Res =  0.5766E+01
 MRCHDU: Convergence failed at  58  side 2    Res =  0.1068E+02
 MRCHDU: Convergence failed at  59  side 2    Res =  0.1223E+02
 MRCHDU: Convergence failed at  60  side 2    Res =  0.1565E+02
 MRCHDU: Convergence failed at  61  side 2    Res =  0.2263E+02
 MRCHDU: Convergence failed at  62  side 2    Res =  0.3234E+02
 MRCHDU: Convergence failed at  63  side 2    Res =  0.4042E+02
 MRCHDU: Convergence failed at  64  side 2    Res =  0.1635E+02
 MRCHDU: Convergence failed at  65  side 2    Res =  0.9530E+01
 MRCHDU: Convergence failed at  66  side 2    Res =  0.9915E+01
 MRCHDU: Convergence failed at  67  side 2    Res =  0.1042E+02
 MRCHDU: Convergence failed at  68  side 2    Res =  0.1099E+02
 MRCHDU: Convergence failed at  69  side 2    Res =  0.1139E+02
 MRCHDU: Convergence failed at  70  side 2    Res =  0.1190E+02
 MRCHDU: Convergence failed at  71  side 2    Res =  0.1227E+02
 MRCHDU: Convergence failed at  72  side 2    Res =  0.1260E+02
 MRCHDU: Convergence failed at  73  side 2    Res =  0.1295E+02
 MRCHDU: Convergence failed at  74  side 2    Res =  0.1327E+02
 MRCHDU: Convergence failed at  75  side 2    Res =  0.1362E+02
 MRCHDU: Convergence failed at  76  side 2    Res =  0.1393E+02
 MRCHDU: Convergence failed at  77  side 2    Res =  0.1420E+02
 MRCHDU: Convergence failed at  78  side 2    Res =  0.1446E+02
 MRCHDU: Convergence failed at  79  side 2    Res =  0.1477E+02
 MRCHDU: Convergence failed at  80  side 2    Res =  0.1514E+02
 MRCHDU: Convergence failed at  81  side 2    Res =  0.1561E+02
 MRCHDU: Convergence failed at  82  side 2    Res =  0.1605E+02
 MRCHDU: Convergence failed at  83  side 2    Res =  0.1630E+02
 MRCHDU: Convergence failed at  84  side 2    Res =  0.1643E+02
 MRCHDU: Convergence failed at  85  side 2    Res =  0.1848E+02
 Side 1  free  transition at x/c =  0.9370   72
 Side 2  free  transition at x/c =  0.0663   18

   5   rms: 0.5606E+00   max: 0.8322E+00   D at   89  2   RLX: 0.380
       a = -3.000      CL = -0.5984
      Cm =  0.1010     CD =  0.01240   =>   CDf =  0.00300    CDp =  0.00941

 Side 1  free  transition at x/c =  0.9449   73
 Side 2  free  transition at x/c =  0.0934   20

   6   rms: 0.3603E+00   max: -.3099E+00   U at   85  2   RLX: 0.873
       a = -3.000      CL = -0.0884
      Cm = -0.0606     CD =  0.01614   =>   CDf =  0.01101    CDp =  0.00513

 MRCHDU: Convergence failed at  20  side 2    Res =  0.4040E+01
 Side 1  free  transition at x/c =  0.9434   73
 Side 2  free  transition at x/c =  0.0886   19

   7   rms: 0.8921E-01   max: 0.8799E+00   T at   19  2
       a = -3.000      CL = -0.0540
      Cm = -0.0742     CD =  0.01829   =>   CDf =  0.00810    CDp =  0.01018

 MRCHDU: Convergence failed at  19  side 2    Res =  0.2060E+02
 MRCHDU: Convergence failed at  20  side 2    Res =  0.9558E+01
 MRCHDU: Convergence failed at  21  side 2    Res =  0.8520E+01
 MRCHDU: Convergence failed at  22  side 2    Res =  0.9512E+01
 MRCHDU: Convergence failed at  23  side 2    Res =  0.1074E+02
 MRCHDU: Convergence failed at  24  side 2    Res =  0.1274E+02
 MRCHDU: Convergence failed at  25  side 2    Res =  0.4530E+01
 MRCHDU: Convergence failed at  26  side 2    Res =  0.4874E+01
 MRCHDU: Convergence failed at  27  side 2    Res =  0.1786E+02
 MRCHDU: Convergence failed at  28  side 2    Res =  0.2110E+02
 MRCHDU: Convergence failed at  29  side 2    Res =  0.2510E+02
 MRCHDU: Convergence failed at  30  side 2    Res =  0.3075E+02
 MRCHDU: Convergence failed at  31  side 2    Res =  0.3846E+02
 MRCHDU: Convergence failed at  32  side 2    Res =  0.4463E+02
 MRCHDU: Convergence failed at  33  side 2    Res =  0.5743E+02
 MRCHDU: Convergence failed at  34  side 2    Res =  0.7199E+02
 MRCHDU: Convergence failed at  35  side 2    Res =  0.1135E+03
 MRCHDU: Convergence failed at  36  side 2    Res =  0.1481E+03
 MRCHDU: Convergence failed at  37  side 2    Res =  0.4551E+03
 MRCHDU: Convergence failed at  38  side 2    Res =  0.6183E+03
 MRCHDU: Convergence failed at  39  side 2    Res =  0.2037E+03
 MRCHDU: Convergence failed at  40  side 2    Res =  0.1323E+03
 MRCHDU: Convergence failed at  41  side 2    Res =  0.9149E+02
 MRCHDU: Convergence failed at  42  side 2    Res =  0.7264E+02
 MRCHDU: Convergence failed at  43  side 2    Res =  0.5770E+02
 MRCHDU: Convergence failed at  44  side 2    Res =  0.5041E+02
 MRCHDU: Convergence failed at  45  side 2    Res =  0.4252E+02
 MRCHDU: Convergence failed at  46  side 2    Res =  0.3869E+02
 MRCHDU: Convergence failed at  47  side 2    Res =  0.3371E+02
 MRCHDU: Convergence failed at  48  side 2    Res =  0.3100E+02
 MRCHDU: Convergence failed at  49  side 2    Res =  0.2786E+02
 MRCHDU: Convergence failed at  50  side 2    Res =  0.2617E+02
 MRCHDU: Convergence failed at  51  side 2    Res =  0.2464E+02
 MRCHDU: Convergence failed at  52  side 2    Res =  0.2270E+02
 MRCHDU: Convergence failed at  53  side 2    Res =  0.2216E+02
 MRCHDU: Convergence failed at  54  side 2    Res =  0.2060E+02
 MRCHDU: Convergence failed at  55  side 2    Res =  0.1919E+02
 MRCHDU: Convergence failed at  56  side 2    Res =  0.1802E+02
 MRCHDU: Convergence failed at  57  side 2    Res =  0.1700E+02
 MRCHDU: Convergence failed at  58  side 2    Res =  0.1317E+02
 MRCHDU: Convergence failed at  59  side 2    Res =  0.1365E+02
 MRCHDU: Convergence failed at  60  side 2    Res =  0.1608E+02
 MRCHDU: Convergence failed at  61  side 2    Res =  0.1673E+02
 MRCHDU: Convergence failed at  62  side 2    Res =  0.1742E+02
 MRCHDU: Convergence failed at  63  side 2    Res =  0.1815E+02
 MRCHDU: Convergence failed at  64  side 2    Res =  0.1890E+02
 MRCHDU: Convergence failed at  65  side 2    Res =  0.1969E+02
 MRCHDU: Convergence failed at  66  side 2    Res =  0.2050E+02
 MRCHDU: Convergence failed at  67  side 2    Res =  0.2131E+02
 MRCHDU: Convergence failed at  68  side 2    Res =  0.2210E+02
 MRCHDU: Convergence failed at  69  side 2    Res =  0.2286E+02
 MRCHDU: Convergence failed at  70  side 2    Res =  0.2357E+02
 MRCHDU: Convergence failed at  71  side 2    Res =  0.2425E+02
 MRCHDU: Convergence failed at  72  side 2    Res =  0.2785E+02
 MRCHDU: Convergence failed at  73  side 2    Res =  0.2939E+02
 MRCHDU: Convergence failed at  74  side 2    Res =  0.3117E+02
 MRCHDU: Convergence failed at  75  side 2    Res =  0.1817E+02
 MRCHDU: Convergence failed at  76  side 2    Res =  0.2247E+02
 MRCHDU: Convergence failed at  77  side 2    Res =  0.1750E+03
 MRCHDU: Convergence failed at  78  side 2    Res =  0.9553E+02
 MRCHDU: Convergence failed at  79  side 2    Res =  0.1701E+02
 MRCHDU: Convergence failed at  80  side 2    Res =  0.1823E+02
 MRCHDU: Convergence failed at  81  side 2    Res =  0.2339E+02
 MRCHDU: Convergence failed at  82  side 2    Res =  0.3131E+02
 MRCHDU: Convergence failed at  83  side 2    Res =  0.4271E+02
 MRCHDU: Convergence failed at  84  side 2    Res =  0.2193E+02
 Side 1  free  transition at x/c =  0.9331   73
 Side 2  free  transition at x/c =  0.0741   18

   8   rms: 0.4293E+00   max: 0.1202E+01   D at   88  2   RLX: 0.434
       a = -3.000      CL = -0.3739
      Cm =  0.0522     CD =  0.01598   =>   CDf =  0.00318    CDp =  0.01280

 MRCHDU: Convergence failed at  36  side 2    Res =  0.2966E-01
 MRCHDU: Convergence failed at  70  side 2    Res =  0.3758E-01
 MRCHDU: Convergence failed at  71  side 2    Res =  0.2491E-03
 MRCHDU: Convergence failed at  89  side 2    Res =  0.1186E+01
 MRCHDU: Convergence failed at  90  side 2    Res =  0.4136E+01
 MRCHDU: Convergence failed at  91  side 2    Res =  0.4860E+01
 Side 1  free  transition at x/c =  0.9454   74
 Side 2  free  transition at x/c =  0.0871   19

   9   rms: 0.3845E+00   max: -.1462E+01   D at   24  2   RLX: 0.342
       a = -3.000      CL = -0.1251
      Cm = -0.0354     CD =  0.03650   =>   CDf =  0.00452    CDp =  0.03199

 MRCHDU: Convergence failed at  24  side 2    Res =  0.9006E-02
 MRCHDU: Convergence failed at  36  side 2    Res =  0.1076E+00
 MRCHDU: Convergence failed at  37  side 2    Res =  0.3963E+00
 MRCHDU: Convergence failed at  70  side 2    Res =  0.5701E+00
 MRCHDU: Convergence failed at  71  side 2    Res =  0.9877E+00
 MRCHDU: Convergence failed at  72  side 2    Res =  0.3958E+00
 MRCHDU: Convergence failed at  73  side 2    Res =  0.3861E+00
 MRCHDU: Convergence failed at  74  side 2    Res =  0.3684E+00
 MRCHDU: Convergence failed at  75  side 2    Res =  0.3516E+00
 MRCHDU: Convergence failed at  76  side 2    Res =  0.3353E+00
 MRCHDU: Convergence failed at  77  side 2    Res =  0.3196E+00
 MRCHDU: Convergence failed at  78  side 2    Res =  0.3029E+00
 MRCHDU: Convergence failed at  79  side 2    Res =  0.2863E+00
 MRCHDU: Convergence failed at  80  side 2    Res =  0.2701E+00
 MRCHDU: Convergence failed at  81  side 2    Res =  0.2542E+00
 MRCHDU: Convergence failed at  82  side 2    Res =  0.2397E+00
 MRCHDU: Convergence failed at  83  side 2    Res =  0.2271E+00
 MRCHDU: Convergence failed at  84  side 2    Res =  0.2108E+00
 Side 1  free  transition at x/c =  0.9447   74
 Side 2  free  transition at x/c =  0.0806   18
 idif Ue xi dudx           1  0.19751430      3.33523750E-03   59.220459    
 Uenew xinew           2  2.01199413E-03  3.39746475E-05

  10   rms: 0.8366E+00   max: 0.7264E+01   T at   18  2   RLX: 0.085
       a = -3.000      CL =  0.0178
      Cm = -0.1043     CD =  0.04233   =>   CDf =  0.00385    CDp =  0.03848

 MRCHDU: Convergence failed at  25  side 2    Res =  0.1943E-01
 Side 1  free  transition at x/c =  0.9423   72
 Side 2  free  transition at x/c =  0.0708   19

  11   rms: 0.9924E+01   max: 0.1299E+03   T at    2  2   RLX: 0.009
       a = -3.000      CL =  0.0072
      Cm = -0.1033     CD =  0.05128   =>   CDf =  0.00390    CDp =  0.04738

 MRCHDU: Convergence failed at  25  side 2    Res =  0.1444E+00
 MRCHDU: Convergence failed at  26  side 2    Res =  0.2797E+00
 Side 1  free  transition at x/c =  0.9349   72
 Side 2  free  transition at x/c =  0.0671   18

  12   rms: 0.5610E+00   max: 0.4588E+01   T at   18  2   RLX: 0.156
       a = -3.000      CL =  0.0228
      Cm = -0.1135     CD =  0.03950   =>   CDf =  0.00466    CDp =  0.03484

 Side 1  free  transition at x/c =  0.9290   71
 Side 2  free  transition at x/c =  0.0565   18

  13   rms: 0.6617E+02   max: -.4174E+03   D at   27  2   RLX: 0.001
       a = -3.000      CL =  0.0081
      Cm = -0.1101     CD =  0.04073   =>   CDf =  0.00469    CDp =  0.03605

 MRCHDU: Convergence failed at  18  side 2    Res =  0.5819E+01
 MRCHDU: Convergence failed at  19  side 2    Res =  0.8626E+01
 MRCHDU: Convergence failed at  20  side 2    Res =  0.3251E+02
 MRCHDU: Convergence failed at  21  side 2    Res =  0.4361E+02
 MRCHDU: Convergence failed at  22  side 2    Res =  0.5916E+02
 MRCHDU: Convergence failed at  23  side 2    Res =  0.3070E+02
 MRCHDU: Convergence failed at  24  side 2    Res =  0.5645E+03
 MRCHDU: Convergence failed at  25  side 2    Res =  0.3308E+03
 MRCHDU: Convergence failed at  26  side 2    Res =  0.6228E+02
 MRCHDU: Convergence failed at  27  side 2    Res =  0.2526E+02
 MRCHDU: Convergence failed at  28  side 2    Res =  0.2617E+02
 MRCHDU: Convergence failed at  29  side 2    Res =  0.3829E+02
 MRCHDU: Convergence failed at  30  side 2    Res =  0.5927E+02
 MRCHDU: Convergence failed at  31  side 2    Res =  0.5170E+02
 MRCHDU: Convergence failed at  32  side 2    Res =  0.8602E+02
 MRCHDU: Convergence failed at  33  side 2    Res =  0.1977E+03
 MRCHDU: Convergence failed at  34  side 2    Res =  0.5629E+05
 MRCHDU: Convergence failed at  35  side 2    Res =  0.5423E+02
 MRCHDU: Convergence failed at  36  side 2    Res =  0.3818E+02
 MRCHDU: Convergence failed at  37  side 2    Res =  0.5644E+02
 MRCHDU: Convergence failed at  38  side 2    Res =  0.7570E+02
 MRCHDU: Convergence failed at  39  side 2    Res =  0.6058E+02
 MRCHDU: Convergence failed at  40  side 2    Res =  0.3182E+03
 MRCHDU: Convergence failed at  41  side 2    Res =  0.2977E+03
 MRCHDU: Convergence failed at  42  side 2    Res =  0.2340E+02
 MRCHDU: Convergence failed at  43  side 2    Res =  0.2790E+02
 MRCHDU: Convergence failed at  44  side 2    Res =  0.7483E+02
 MRCHDU: Convergence failed at  45  side 2    Res =  0.2342E+03
 MRCHDU: Convergence failed at  46  side 2    Res =  0.6133E+03
 MRCHDU: Convergence failed at  47  side 2    Res =  0.2276E+03
 MRCHDU: Convergence failed at  48  side 2    Res =  0.4906E+02
 MRCHDU: Convergence failed at  49  side 2    Res =  0.5699E+02
 MRCHDU: Convergence failed at  50  side 2    Res =  0.5657E+02
 MRCHDU: Convergence failed at  51  side 2    Res =  0.5538E+02
 MRCHDU: Convergence failed at  52  side 2    Res =  0.5333E+02
 MRCHDU: Convergence failed at  53  side 2    Res =  0.5081E+02
 MRCHDU: Convergence failed at  54  side 2    Res =  0.4785E+02
 MRCHDU: Convergence failed at  55  side 2    Res =  0.4487E+02
 MRCHDU: Convergence failed at  56  side 2    Res =  0.2903E+02
 MRCHDU: Convergence failed at  57  side 2    Res =  0.2916E+02
 MRCHDU: Convergence failed at  58  side 2    Res =  0.2921E+02
 MRCHDU: Convergence failed at  59  side 2    Res =  0.2931E+02
 MRCHDU: Convergence failed at  60  side 2    Res =  0.2971E+02
 MRCHDU: Convergence failed at  61  side 2    Res =  0.3039E+02
 MRCHDU: Convergence failed at  62  side 2    Res =  0.3123E+02
 MRCHDU: Convergence failed at  63  side 2    Res =  0.3230E+02
 MRCHDU: Convergence failed at  64  side 2    Res =  0.3344E+02
 MRCHDU: Convergence failed at  65  side 2    Res =  0.2732E+02
 MRCHDU: Convergence failed at  66  side 2    Res =  0.2852E+02
 MRCHDU: Convergence failed at  67  side 2    Res =  0.2952E+02
 MRCHDU: Convergence failed at  68  side 2    Res =  0.4739E+02
 MRCHDU: Convergence failed at  69  side 2    Res =  0.5228E+02
 MRCHDU: Convergence failed at  70  side 2    Res =  0.2640E+02
 MRCHDU: Convergence failed at  71  side 2    Res =  0.2697E+02
 MRCHDU: Convergence failed at  72  side 2    Res =  0.2761E+02
 MRCHDU: Convergence failed at  73  side 2    Res =  0.2837E+02
 MRCHDU: Convergence failed at  74  side 2    Res =  0.2900E+02
 MRCHDU: Convergence failed at  75  side 2    Res =  0.2945E+02
 MRCHDU: Convergence failed at  76  side 2    Res =  0.3015E+02
 MRCHDU: Convergence failed at  77  side 2    Res =  0.3110E+02
 MRCHDU: Convergence failed at  78  side 2    Res =  0.3176E+02
 MRCHDU: Convergence failed at  79  side 2    Res =  0.3228E+02
 MRCHDU: Convergence failed at  80  side 2    Res =  0.3316E+02
 MRCHDU: Convergence failed at  81  side 2    Res =  0.3386E+02
 MRCHDU: Convergence failed at  82  side 2    Res =  0.3435E+02
 MRCHDU: Convergence failed at  83  side 2    Res =  0.3381E+02
 MRCHDU: Convergence failed at  84  side 2    Res =  0.3873E+02
 MRCHDU: Convergence failed at  85  side 2    Res =  0.6247E+02
 Side 1  free  transition at x/c =  0.9220   71
 Side 2  free  transition at x/c =  0.0529   17

  14   rms: 0.6944E+00   max: -.2168E+01   T at   17  2   RLX: 0.231
       a = -3.000      CL = -0.9305
      Cm =  0.2042     CD =  0.01329   =>   CDf =  0.00285    CDp =  0.01044

 MRCHDU: Convergence failed at  24  side 2    Res =  0.3762E+00
 MRCHDU: Convergence failed at  25  side 2    Res =  0.3030E+00
 MRCHDU: Convergence failed at  26  side 2    Res =  0.3524E-01
 Side 1  free  transition at x/c =  0.9333   72
 Side 2  free  transition at x/c =  0.0636   18

  15   rms: 0.4448E+00   max: -.1954E+01   T at   18  2   RLX: 0.256
       a = -3.000      CL = -0.3975
      Cm =  0.0526     CD =  0.04250   =>   CDf =  0.00402    CDp =  0.03849

 MRCHDU: Convergence failed at  26  side 2    Res =  0.2523E+00
 MRCHDU: Convergence failed at  27  side 2    Res =  0.1086E+01
 MRCHDU: Convergence failed at  28  side 2    Res =  0.1573E+00
 MRCHDU: Convergence failed at  29  side 2    Res =  0.6790E-01
 Side 1  free  transition at x/c =  0.9440   72
 Side 2  free  transition at x/c =  0.0809   19

  16   rms: 0.1776E+01   max: 0.1845E+02   D at   29  2   RLX: 0.044
       a = -3.000      CL = -0.3006
      Cm =  0.0338     CD =  0.04172   =>   CDf =  0.00403    CDp =  0.03769

 Side 1  free  transition at x/c =  0.9427   72
 Side 2  free  transition at x/c =  0.0692   19

  17   rms: 0.1398E+01   max: -.1051E+02   T at   19  2   RLX: 0.048
       a = -3.000      CL = -0.2318
      Cm =  0.0224     CD =  0.04363   =>   CDf =  0.00400    CDp =  0.03962

 Side 1  free  transition at x/c =  0.9514   74
 Side 2  free  transition at x/c =  0.0765   18

  18   rms: 0.4338E+00   max: -.4382E+01   T at   18  2   RLX: 0.114
       a = -3.000      CL = -0.1940
      Cm =  0.0103     CD =  0.04240   =>   CDf =  0.00380    CDp =  0.03860

 Side 1  free  transition at x/c =  0.9538   74
 Side 2  free  transition at x/c =  0.0843   19

  19   rms: 0.3806E+00   max: -.2604E+01   T at   19  2   RLX: 0.192
       a = -3.000      CL = -0.1168
      Cm = -0.0168     CD =  0.03955   =>   CDf =  0.00398    CDp =  0.03557

 Side 1  free  transition at x/c =  0.9572   74
 Side 2  free  transition at x/c =  0.0933   19

  20   rms: 0.5468E+00   max: 0.3973E+01   T at   19  2   RLX: 0.168
       a = -3.000      CL = -0.0990
      Cm = -0.0287     CD =  0.03784   =>   CDf =  0.00406    CDp =  0.03379

 Side 1  free  transition at x/c =  0.9605   75
 Side 2  free  transition at x/c =  0.0884   19

  21   rms: 0.4419E+00   max: -.3496E+01   T at   19  2   RLX: 0.143
       a = -3.000      CL = -0.0847
      Cm = -0.0339     CD =  0.04098   =>   CDf =  0.00390    CDp =  0.03708

 Side 1  free  transition at x/c =  0.9611   75
 Side 2  free  transition at x/c =  0.0955   19

  22   rms: 0.1038E+01   max: 0.1015E+02   T at   19  2   RLX: 0.052
       a = -3.000      CL = -0.0727
      Cm = -0.0413     CD =  0.04014   =>   CDf =  0.00409    CDp =  0.03606

 Side 1  free  transition at x/c =  0.9594   75
 Side 2  free  transition at x/c =  0.0883   19

  23   rms: 0.4221E+00   max: -.2236E+01   T at   19  2   RLX: 0.224
       a = -3.000      CL = -0.0333
      Cm = -0.0525     CD =  0.03885   =>   CDf =  0.00388    CDp =  0.03497

 Side 1  free  transition at x/c =  0.9599   75
 Side 2  free  transition at x/c =  0.0955   19

  24   rms: 0.5291E+00   max: -.5066E+01   T at   20  2   RLX: 0.099
       a = -3.000      CL = -0.0249
      Cm = -0.0577     CD =  0.04016   =>   CDf =  0.00411    CDp =  0.03604

 Side 1  free  transition at x/c =  0.9593   75
 Side 2  free  transition at x/c =  0.0934   19

  25   rms: 0.4844E+00   max: -.3359E+01   T at   19  2   RLX: 0.149
       a = -3.000      CL = -0.0029
      Cm = -0.0630     CD =  0.04034   =>   CDf =  0.00403    CDp =  0.03631

 Side 1  free  transition at x/c =  0.9600   75
 Side 2  free  transition at x/c =  0.0988   20

  26   rms: 0.5683E+00   max: -.3468E+01   T at   20  2   RLX: 0.144
       a = -3.000      CL =  0.0374
      Cm = -0.0728     CD =  0.03736   =>   CDf =  0.00452    CDp =  0.03284

 Side 1  free  transition at x/c =  0.9611   75
 Side 2  free  transition at x/c =  0.1044   20

  27   rms: 0.8668E+00   max: -.3216E+01   D at   60  2   RLX: 0.137
       a = -3.000      CL =  0.0774
      Cm = -0.0783     CD =  0.03756   =>   CDf =  0.00489    CDp =  0.03266

 MRCHDU: Convergence failed at  60  side 2    Res =  0.4810E-01
 Side 1  free  transition at x/c =  0.9648   75
 Side 2  free  transition at x/c =  0.1064   20

  28   rms: 0.4858E+00   max: 0.1752E+01   D at   29  2   RLX: 0.391
       a = -3.000      CL = -0.0309
      Cm = -0.0749     CD =  0.03592   =>   CDf =  0.00587    CDp =  0.03006

 MRCHDU: Convergence failed at  57  side 2    Res =  0.4485E+02
 MRCHDU: Convergence failed at  58  side 2    Res =  0.2893E+01
 MRCHDU: Convergence failed at  60  side 2    Res =  0.4767E-02
 Side 1  free  transition at x/c =  0.9476   74
 Side 2  free  transition at x/c =  0.0945   19

  29   rms: 0.3867E+00   max: 0.1549E+01   T at   19  2   RLX: 0.367
       a = -3.000      CL = -0.0328
      Cm = -0.0768     CD =  0.02551   =>   CDf =  0.00718    CDp =  0.01833

 Side 1  free  transition at x/c =  0.9440   73
 Side 2  free  transition at x/c =  0.0897   19

  30   rms: 0.3941E+00   max: -.1198E+01   D at   31  2   RLX: 0.417
       a = -3.000      CL = -0.0405
      Cm = -0.0760     CD =  0.02273   =>   CDf =  0.00741    CDp =  0.01532

 Side 1  free  transition at x/c =  0.9380   73
 Side 2  free  transition at x/c =  0.0827   19

  31   rms: 0.2041E+00   max: -.9100E+00   D at   20  2   RLX: 0.549
       a = -3.000      CL = -0.0297
      Cm = -0.0775     CD =  0.02195   =>   CDf =  0.00780    CDp =  0.01415

 Side 1  free  transition at x/c =  0.9384   73
 Side 2  free  transition at x/c =  0.0840   19

  32   rms: 0.1566E+00   max: -.8578E+00   D at   20  2   RLX: 0.583
       a = -3.000      CL = -0.0282
      Cm = -0.0779     CD =  0.02001   =>   CDf =  0.00779    CDp =  0.01222

 Side 1  free  transition at x/c =  0.9390   73
 Side 2  free  transition at x/c =  0.0844   19

  33   rms: 0.1073E+00   max: -.7765E+00   D at   20  2   RLX: 0.644
       a = -3.000      CL = -0.0303
      Cm = -0.0779     CD =  0.01879   =>   CDf =  0.00783    CDp =  0.01096

 Side 1  free  transition at x/c =  0.9393   73
 Side 2  free  transition at x/c =  0.0840   19

  34   rms: 0.5555E-01   max: -.6309E+00   D at   20  2   RLX: 0.793
       a = -3.000      CL = -0.0327
      Cm = -0.0778     CD =  0.01823   =>   CDf =  0.00789    CDp =  0.01034

 Side 1  free  transition at x/c =  0.9394   73
 Side 2  free  transition at x/c =  0.0833   19

  35   rms: 0.1413E-01   max: -.2153E+00   D at   20  2
       a = -3.000      CL = -0.0332
      Cm = -0.0778     CD =  0.01845   =>   CDf =  0.00792    CDp =  0.01052

 Side 1  free  transition at x/c =  0.9390   73
 Side 2  free  transition at x/c =  0.0816   18

  36   rms: 0.2852E-02   max: -.4942E-01   D at   20  2
       a = -3.000      CL = -0.0331
      Cm = -0.0778     CD =  0.01852   =>   CDf =  0.00801    CDp =  0.01052

 Side 1  free  transition at x/c =  0.9389   73
 Side 2  free  transition at x/c =  0.0813   18

  37   rms: 0.6510E-04   max: -.1205E-02   D at   20  2
       a = -3.000      CL = -0.0331
      Cm = -0.0778     CD =  0.01852   =>   CDf =  0.00800    CDp =  0.01052
 plradd ia,ip,cpol            3           0  1.40157086E-03

 Point added to stored polar  1
 Point written to save file  hq3010_Re150k.base.pol                          
 Dump file unspecified or not available
 Calculating wake trajectory ...
 Calculating source influence matrix ...

 Solving BL system ...

 Side 1  free  transition at x/c =  0.9389   73
 Side 2  free  transition at x/c =  0.0813   18

   1   rms: 0.2366E+00   max: -.3628E+01   T at   18  2   RLX: 0.138
       a = -2.500      CL = -0.0238
      Cm = -0.0779     CD =  0.01876   =>   CDf =  0.00801    CDp =  0.01076

 MRCHDU: Convergence failed at  20  side 2    Res =  0.9287E+01
 MRCHDU: Convergence failed at  21  side 2    Res =  0.6061E+01
 MRCHDU: Convergence failed at  22  side 2    Res =  0.6681E+01
 MRCHDU: Convergence failed at  23  side 2    Res =  0.1273E+02
 MRCHDU: Convergence failed at  24  side 2    Res =  0.2543E+02
 MRCHDU: Convergence failed at  25  side 2    Res =  0.4136E+02
 MRCHDU: Convergence failed at  26  side 2    Res =  0.5743E+02
 MRCHDU: Convergence failed at  27  side 2    Res =  0.6137E+02
 MRCHDU: Convergence failed at  28  side 2    Res =  0.4357E+02
 MRCHDU: Convergence failed at  29  side 2    Res =  0.3594E+02
 MRCHDU: Convergence failed at  30  side 2    Res =  0.2445E+02
 MRCHDU: Convergence failed at  31  side 2    Res =  0.2088E+02
 MRCHDU: Convergence failed at  32  side 2    Res =  0.1649E+02
 MRCHDU: Convergence failed at  33  side 2    Res =  0.1480E+02
 MRCHDU: Convergence failed at  34  side 2    Res =  0.1347E+02
 MRCHDU: Convergence failed at  35  side 2    Res =  0.1053E+02
 MRCHDU: Convergence failed at  36  side 2    Res =  0.9846E+01
 MRCHDU: Convergence failed at  37  side 2    Res =  0.8145E+01
 MRCHDU: Convergence failed at  38  side 2    Res =  0.7759E+01
 MRCHDU: Convergence failed at  39  side 2    Res =  0.3092E+03
 MRCHDU: Convergence failed at  40  side 2    Res =  0.3369E+04
 MRCHDU: Convergence failed at  41  side 2    Res =  0.1966E+03
 MRCHDU: Convergence failed at  42  side 2    Res =  0.1942E+03
 MRCHDU: Convergence failed at  43  side 2    Res =  0.1012E+03
 MRCHDU: Convergence failed at  44  side 2    Res =  0.6973E+02
 MRCHDU: Convergence failed at  45  side 2    Res =  0.5358E+02
 MRCHDU: Convergence failed at  46  side 2    Res =  0.4495E+02
 MRCHDU: Convergence failed at  47  side 2    Res =  0.3872E+02
 MRCHDU: Convergence failed at  48  side 2    Res =  0.3432E+02
 MRCHDU: Convergence failed at  49  side 2    Res =  0.3096E+02
 MRCHDU: Convergence failed at  50  side 2    Res =  0.2819E+02
 MRCHDU: Convergence failed at  51  side 2    Res =  0.2580E+02
 MRCHDU: Convergence failed at  52  side 2    Res =  0.2409E+02
 MRCHDU: Convergence failed at  53  side 2    Res =  0.2236E+02
 MRCHDU: Convergence failed at  54  side 2    Res =  0.2129E+02
 MRCHDU: Convergence failed at  55  side 2    Res =  0.1226E+02
 MRCHDU: Convergence failed at  56  side 2    Res =  0.1296E+02
 MRCHDU: Convergence failed at  57  side 2    Res =  0.1358E+02
 MRCHDU: Convergence failed at  58  side 2    Res =  0.1434E+02
 MRCHDU: Convergence failed at  59  side 2    Res =  0.1502E+02
 MRCHDU: Convergence failed at  60  side 2    Res =  0.1583E+02
 MRCHDU: Convergence failed at  61  side 2    Res =  0.1654E+02
 MRCHDU: Convergence failed at  62  side 2    Res =  0.1770E+02
 MRCHDU: Convergence failed at  63  side 2    Res =  0.1834E+02
 MRCHDU: Convergence failed at  64  side 2    Res =  0.1904E+02
 MRCHDU: Convergence failed at  65  side 2    Res =  0.1979E+02
 MRCHDU: Convergence failed at  66  side 2    Res =  0.2058E+02
 MRCHDU: Convergence failed at  67  side 2    Res =  0.2141E+02
 MRCHDU: Convergence failed at  68  side 2    Res =  0.2225E+02
 MRCHDU: Convergence failed at  69  side 2    Res =  0.2307E+02
 MRCHDU: Convergence failed at  70  side 2    Res =  0.2387E+02
 MRCHDU: Convergence failed at  71  side 2    Res =  0.2468E+02
 MRCHDU: Convergence failed at  72  side 2    Res =  0.2548E+02
 MRCHDU: Convergence failed at  73  side 2    Res =  0.2627E+02
 MRCHDU: Convergence failed at  74  side 2    Res =  0.2713E+02
 MRCHDU: Convergence failed at  75  side 2    Res =  0.2810E+02
 MRCHDU: Convergence failed at  76  side 2    Res =  0.5624E+02
 MRCHDU: Convergence failed at  77  side 2    Res =  0.2501E+02
 MRCHDU: Convergence failed at  78  side 2    Res =  0.4954E+02
 MRCHDU: Convergence failed at  79  side 2    Res =  0.1062E+03
 MRCHDU: Convergence failed at  80  side 2    Res =  0.3304E+02
 MRCHDU: Convergence failed at  81  side 2    Res =  0.2520E+02
 MRCHDU: Convergence failed at  82  side 2    Res =  0.1794E+02
 MRCHDU: Convergence failed at  83  side 2    Res =  0.1900E+02
 MRCHDU: Convergence failed at  84  side 2    Res =  0.5013E+02
 Side 1  free  transition at x/c =  0.9369   73
 Side 2  free  transition at x/c =  0.0931   19

   2   rms: 0.5372E+00   max: -.5618E+01   T at   19  2   RLX: 0.089
       a = -2.500      CL = -0.5308
      Cm =  0.1092     CD =  0.01273   =>   CDf =  0.00322    CDp =  0.00951

 MRCHDU: Convergence failed at  25  side 2    Res =  0.1794E+00
 MRCHDU: Convergence failed at  26  side 2    Res =  0.1544E+00
 MRCHDU: Convergence failed at  27  side 2    Res =  0.9032E-01
 MRCHDU: Convergence failed at  43  side 2    Res =  0.5637E-01
 MRCHDU: Convergence failed at  44  side 2    Res =  0.2548E+01
 MRCHDU: Convergence failed at  45  side 2    Res =  0.5989E+01
 MRCHDU: Convergence failed at  46  side 2    Res =  0.4602E+01
 MRCHDU: Convergence failed at  47  side 2    Res =  0.3750E+00
 MRCHDU: Convergence failed at  48  side 2    Res =  0.7697E+00
 MRCHDU: Convergence failed at  49  side 2    Res =  0.1732E+02
 MRCHDU: Convergence failed at  50  side 2    Res =  0.2332E+00
 Side 1  free  transition at x/c =  0.9389   73
 Side 2  free  transition at x/c =  0.1037   20

   3   rms: 0.3471E+00   max: -.1074E+01   D at   34  2   RLX: 0.466
       a = -2.500      CL = -0.1837
      Cm = -0.0114     CD =  0.03021   =>   CDf =  0.00575    CDp =  0.02447

 MRCHDU: Convergence failed at  27  side 2    Res =  0.2154E+00
 MRCHDU: Convergence failed at  28  side 2    Res =  0.4634E+00
 MRCHDU: Convergence failed at  41  side 2    Res =  0.2744E+01
 Side 1  free  transition at x/c =  0.9339   73
 Side 2  free  transition at x/c =  0.0995   20

   4   rms: 0.4889E+00   max: -.2845E+01   D at   29  2   RLX: 0.176
       a = -2.500      CL = -0.1509
      Cm = -0.0216     CD =  0.02570   =>   CDf =  0.00687    CDp =  0.01883

 MRCHDU: Convergence failed at  29  side 2    Res =  0.1823E+00
 MRCHDU: Convergence failed at  30  side 2    Res =  0.1266E+00
 MRCHDU: Convergence failed at  31  side 2    Res =  0.4668E-01
 Side 1  free  transition at x/c =  0.9304   72
 Side 2  free  transition at x/c =  0.0982   20

   5   rms: 0.2649E+01   max: 0.1926E+02   D at   31  2   RLX: 0.078
       a = -2.500      CL = -0.0734
      Cm = -0.0395     CD =  0.02619   =>   CDf =  0.00671    CDp =  0.01948

 MRCHDU: Convergence failed at  67  side 2    Res =  0.6898E-04
 Side 1  free  transition at x/c =  0.9408   73
 Side 2  free  transition at x/c =  0.1070   20

   6   rms: 0.4957E+00   max: -.2412E+01   D at   31  2   RLX: 0.207
       a = -2.500      CL = -0.0648
      Cm = -0.0452     CD =  0.02319   =>   CDf =  0.00622    CDp =  0.01697

 MRCHDU: Convergence failed at  67  side 2    Res =  0.6010E-01
 Side 1  free  transition at x/c =  0.9343   73
 Side 2  free  transition at x/c =  0.1082   20

   7   rms: 0.5254E+00   max: -.2398E+01   D at   31  2   RLX: 0.208
       a = -2.500      CL = -0.0732
      Cm = -0.0493     CD =  0.02101   =>   CDf =  0.00648    CDp =  0.01452

 MRCHDU: Convergence failed at  67  side 2    Res =  0.6152E-01
 Side 1  free  transition at x/c =  0.9296   72
 Side 2  free  transition at x/c =  0.1055   20

   8   rms: 0.9676E+00   max: -.1137E+02   T at   20  2   RLX: 0.044
       a = -2.500      CL = -0.0468
      Cm = -0.0564     CD =  0.02062   =>   CDf =  0.00671    CDp =  0.01391

 MRCHDU: Convergence failed at  67  side 2    Res =  0.8038E-01
 Side 1  free  transition at x/c =  0.9349   73
 Side 2  free  transition at x/c =  0.1175   21

   9   rms: 0.7039E+00   max: -.3208E+01   D at   25  2   RLX: 0.156
       a = -2.500      CL = -0.0896
      Cm = -0.0538     CD =  0.01804   =>   CDf =  0.00698    CDp =  0.01106

 MRCHDU: Convergence failed at  67  side 2    Res =  0.2532E-01
 Side 1  free  transition at x/c =  0.9275   72
 Side 2  free  transition at x/c =  0.0989   20

  10   rms: 0.2042E+01   max: -.2093E+02   T at   20  2   RLX: 0.024
       a = -2.500      CL = -0.0707
      Cm = -0.0568     CD =  0.01838   =>   CDf =  0.00706    CDp =  0.01132

 MRCHDU: Convergence failed at  67  side 2    Res =  0.2210E-01
 Side 1  free  transition at x/c =  0.9319   73
 Side 2  free  transition at x/c =  0.1084   20

  11   rms: 0.4718E+00   max: 0.2356E+01   T at   20  2   RLX: 0.254
       a = -2.500      CL = -0.0857
      Cm = -0.0570     CD =  0.01792   =>   CDf =  0.00701    CDp =  0.01091

 Side 1  free  transition at x/c =  0.9269   72
 Side 2  free  transition at x/c =  0.0980   20
 idif Ue xi dudx           1  0.21522486      3.64851952E-03   58.989643    
 Uenew xinew           2  2.04845462E-02  3.47256660E-04

  12   rms: 0.1686E+01   max: 0.1608E+02   T at   20  2   RLX: 0.054
       a = -2.500      CL = -0.1264
      Cm = -0.0495     CD =  0.01743   =>   CDf =  0.00705    CDp =  0.01038

 MRCHDU: Convergence failed at  21  side 2    Res =  0.2036E+01
 MRCHDU: Convergence failed at  22  side 2    Res =  0.3773E+01
 MRCHDU: Convergence failed at  23  side 2    Res =  0.8738E+01
 MRCHDU: Convergence failed at  24  side 2    Res =  0.5637E+01
 MRCHDU: Convergence failed at  25  side 2    Res =  0.4201E+01
 MRCHDU: Convergence failed at  26  side 2    Res =  0.9645E+01
 MRCHDU: Convergence failed at  27  side 2    Res =  0.1883E+02
 MRCHDU: Convergence failed at  28  side 2    Res =  0.1904E+03
 MRCHDU: Convergence failed at  29  side 2    Res =  0.1841E+02
 MRCHDU: Convergence failed at  30  side 2    Res =  0.2852E+02
 MRCHDU: Convergence failed at  31  side 2    Res =  0.1852E+03
 Side 1  free  transition at x/c =  0.9174   71
 Side 2  free  transition at x/c =  0.0818   20

  13   rms: 0.3839E+00   max: -.1593E+01   D at   83  2   RLX: 0.314
       a = -2.500      CL = -0.1780
      Cm = -0.0565     CD =  0.01859   =>   CDf =  0.00590    CDp =  0.01269

 MRCHDU: Convergence failed at  52  side 2    Res =  0.5687E+00
 MRCHDU: Convergence failed at  68  side 2    Res =  0.1251E-01
 Side 1  free  transition at x/c =  0.9151   70
 Side 2  free  transition at x/c =  0.0800   19

  14   rms: 0.2423E+01   max: 0.3227E+02   T at   19  2   RLX: 0.021
       a = -2.500      CL = -0.2115
      Cm = -0.0474     CD =  0.01817   =>   CDf =  0.00800    CDp =  0.01017

 Side 1  free  transition at x/c =  0.9090   70
 Side 2  free  transition at x/c =  0.0677   18

  15   rms: 0.4537E+00   max: -.5389E+01   T at   18  2   RLX: 0.093
       a = -2.500      CL = -0.1850
      Cm = -0.0499     CD =  0.01973   =>   CDf =  0.00832    CDp =  0.01141

 MRCHDU: Convergence failed at  19  side 2    Res =  0.6585E-04
 MRCHDU: Convergence failed at  20  side 2    Res =  0.4914E+01
 MRCHDU: Convergence failed at  21  side 2    Res =  0.1016E+02
 MRCHDU: Convergence failed at  22  side 2    Res =  0.2510E+02
 MRCHDU: Convergence failed at  23  side 2    Res =  0.1181E+02
 MRCHDU: Convergence failed at  24  side 2    Res =  0.1522E+02
 MRCHDU: Convergence failed at  25  side 2    Res =  0.1450E+02
 MRCHDU: Convergence failed at  26  side 2    Res =  0.1335E+02
 MRCHDU: Convergence failed at  27  side 2    Res =  0.1155E+02
 MRCHDU: Convergence failed at  28  side 2    Res =  0.1001E+02
 MRCHDU: Convergence failed at  29  side 2    Res =  0.9132E+01
 MRCHDU: Convergence failed at  30  side 2    Res =  0.8453E+01
 MRCHDU: Convergence failed at  31  side 2    Res =  0.7890E+01
 MRCHDU: Convergence failed at  32  side 2    Res =  0.7371E+01
 MRCHDU: Convergence failed at  33  side 2    Res =  0.1081E+02
 MRCHDU: Convergence failed at  34  side 2    Res =  0.1131E+02
 MRCHDU: Convergence failed at  35  side 2    Res =  0.1130E+02
 MRCHDU: Convergence failed at  36  side 2    Res =  0.9861E+01
 MRCHDU: Convergence failed at  37  side 2    Res =  0.9592E+01
 MRCHDU: Convergence failed at  38  side 2    Res =  0.8286E+01
 MRCHDU: Convergence failed at  39  side 2    Res =  0.8063E+01
 MRCHDU: Convergence failed at  40  side 2    Res =  0.7901E+01
 MRCHDU: Convergence failed at  41  side 2    Res =  0.2205E+03
 MRCHDU: Convergence failed at  42  side 2    Res =  0.1979E+03
 MRCHDU: Convergence failed at  43  side 2    Res =  0.1171E+03
 MRCHDU: Convergence failed at  44  side 2    Res =  0.7777E+01
 MRCHDU: Convergence failed at  45  side 2    Res =  0.5241E+03
 MRCHDU: Convergence failed at  46  side 2    Res =  0.4326E+04
 MRCHDU: Convergence failed at  47  side 2    Res =  0.7243E+03
 MRCHDU: Convergence failed at  48  side 2    Res =  0.1318E+04
 MRCHDU: Convergence failed at  49  side 2    Res =  0.3542E+03
 MRCHDU: Convergence failed at  50  side 2    Res =  0.6621E+01
 MRCHDU: Convergence failed at  51  side 2    Res =  0.5725E+01
 MRCHDU: Convergence failed at  52  side 2    Res =  0.5267E+01
 MRCHDU: Convergence failed at  53  side 2    Res =  0.2323E+02
 MRCHDU: Convergence failed at  54  side 2    Res =  0.3531E+02
 MRCHDU: Convergence failed at  55  side 2    Res =  0.4034E+02
 MRCHDU: Convergence failed at  56  side 2    Res =  0.2133E+02
 MRCHDU: Convergence failed at  57  side 2    Res =  0.2080E+02
 MRCHDU: Convergence failed at  58  side 2    Res =  0.2215E+02
 MRCHDU: Convergence failed at  59  side 2    Res =  0.2330E+02
 MRCHDU: Convergence failed at  60  side 2    Res =  0.2814E+02
 MRCHDU: Convergence failed at  61  side 2    Res =  0.3837E+02
 MRCHDU: Convergence failed at  62  side 2    Res =  0.1949E+02
 MRCHDU: Convergence failed at  63  side 2    Res =  0.4020E+02
 MRCHDU: Convergence failed at  64  side 2    Res =  0.2015E+03
 MRCHDU: Convergence failed at  65  side 2    Res =  0.6751E+02
 MRCHDU: Convergence failed at  66  side 2    Res =  0.2860E+02
 MRCHDU: Convergence failed at  67  side 2    Res =  0.2135E+02
 MRCHDU: Convergence failed at  68  side 2    Res =  0.9357E+01
 MRCHDU: Convergence failed at  69  side 2    Res =  0.4828E+01
 MRCHDU: Convergence failed at  70  side 2    Res =  0.5087E+02
 MRCHDU: Convergence failed at  71  side 2    Res =  0.4780E+02
 MRCHDU: Convergence failed at  72  side 2    Res =  0.1716E+02
 MRCHDU: Convergence failed at  73  side 2    Res =  0.3814E+02
 MRCHDU: Convergence failed at  74  side 2    Res =  0.2348E+02
 MRCHDU: Convergence failed at  75  side 2    Res =  0.3228E+02
 MRCHDU: Convergence failed at  76  side 2    Res =  0.3231E+02
 MRCHDU: Convergence failed at  77  side 2    Res =  0.4805E+02
 MRCHDU: Convergence failed at  78  side 2    Res =  0.3029E+02
 MRCHDU: Convergence failed at  79  side 2    Res =  0.3346E+02
 MRCHDU: Convergence failed at  80  side 2    Res =  0.2767E+02
 MRCHDU: Convergence failed at  81  side 2    Res =  0.2283E+02
 MRCHDU: Convergence failed at  82  side 2    Res =  0.1816E+02
 MRCHDU: Convergence failed at  83  side 2    Res =  0.5205E+02
 MRCHDU: Convergence failed at  84  side 2    Res =  0.2312E+02
 MRCHDU: Convergence failed at  85  side 2    Res =  0.6065E+02
 Side 1  free  transition at x/c =  0.9107   70
 Side 2  free  transition at x/c =  0.0815   19

  16   rms: 0.7933E+00   max: -.8063E+01   T at   19  2   RLX: 0.062
       a = -2.500      CL = -0.8344
      Cm =  0.1889     CD =  0.01061   =>   CDf =  0.00297    CDp =  0.00765

 MRCHDU: Convergence failed at  31  side 2    Res =  0.5103E-01
 MRCHDU: Convergence failed at  43  side 2    Res =  0.2091E-01
 Side 1  free  transition at x/c =  0.9138   70
 Side 2  free  transition at x/c =  0.0958   21

  17   rms: 0.2007E+01   max: -.2517E+02   T at   21  2   RLX: 0.020
       a = -2.500      CL = -0.5108
      Cm =  0.0829     CD =  0.02773   =>   CDf =  0.00533    CDp =  0.02239

 MRCHDU: Convergence failed at  30  side 2    Res =  0.6099E-01
 Side 1  free  transition at x/c =  0.9178   72
 Side 2  free  transition at x/c =  0.1041   20

  18   rms: 0.4219E+00   max: -.1309E+01   D at    2  1   RLX: 0.382
       a = -2.500      CL = -0.3247
      Cm =  0.0254     CD =  0.03056   =>   CDf =  0.00489    CDp =  0.02567

 MRCHDU: Convergence failed at  30  side 2    Res =  0.1079E+00
 MRCHDU: Convergence failed at  31  side 2    Res =  0.2591E+00
 Side 1  free  transition at x/c =  0.9238   72
 Side 2  free  transition at x/c =  0.1085   20

  19   rms: 0.1043E+01   max: 0.8018E+01   T at   20  2   RLX: 0.075
       a = -2.500      CL = -0.2917
      Cm =  0.0175     CD =  0.02833   =>   CDf =  0.00563    CDp =  0.02270

 Side 1  free  transition at x/c =  0.9229   72
 Side 2  free  transition at x/c =  0.1004   20

  20   rms: 0.3944E+00   max: -.3144E+01   T at   20  2   RLX: 0.159
       a = -2.500      CL = -0.2279
      Cm =  0.0046     CD =  0.02911   =>   CDf =  0.00505    CDp =  0.02406

 Side 1  free  transition at x/c =  0.9266   72
 Side 2  free  transition at x/c =  0.1089   20

  21   rms: 0.4549E+00   max: -.2722E+01   T at   21  2   RLX: 0.184
       a = -2.500      CL = -0.2000
      Cm = -0.0074     CD =  0.02878   =>   CDf =  0.00504    CDp =  0.02374

 Side 1  free  transition at x/c =  0.9260   72
 Side 2  free  transition at x/c =  0.1048   20

  22   rms: 0.5623E+00   max: -.6095E+01   T at   20  2   RLX: 0.082
       a = -2.500      CL = -0.1662
      Cm = -0.0143     CD =  0.03025   =>   CDf =  0.00484    CDp =  0.02542

 Side 1  free  transition at x/c =  0.9302   72
 Side 2  free  transition at x/c =  0.1130   21

  23   rms: 0.4348E+00   max: 0.1675E+01   T at   72  1   RLX: 0.309
       a = -2.500      CL = -0.1414
      Cm = -0.0291     CD =  0.02773   =>   CDf =  0.00517    CDp =  0.02255

 Side 1  free  transition at x/c =  0.9156   71
 Side 2  free  transition at x/c =  0.1033   20
 idif Ue xi dudx           1  0.20672511      3.46052647E-03   59.738052    
 Uenew xinew           2  9.51409806E-03  1.59263611E-04

  24   rms: 0.4376E+01   max: 0.5840E+02   T at   20  2   RLX: 0.019
       a = -2.500      CL = -0.2014
      Cm = -0.0181     CD =  0.03047   =>   CDf =  0.00538    CDp =  0.02510

 Side 1  free  transition at x/c =  0.9033   70
 Side 2  free  transition at x/c =  0.0793   19

  25   rms: 0.1104E+01   max: -.1406E+02   T at   19  2   RLX: 0.036
       a = -2.500      CL = -0.2008
      Cm = -0.0157     CD =  0.03497   =>   CDf =  0.00498    CDp =  0.02999

 Side 1  free  transition at x/c =  0.9042   70
 Side 2  free  transition at x/c =  0.0895   20

  26   rms: 0.4861E+00   max: -.2347E+01   T at   20  2   RLX: 0.213
       a = -2.500      CL = -0.1468
      Cm = -0.0331     CD =  0.02906   =>   CDf =  0.00574    CDp =  0.02332

 MRCHDU: Convergence failed at  44  side 2    Res =  0.3589E+00
 MRCHDU: Convergence failed at  45  side 2    Res =  0.3214E-01
 Side 1  free  transition at x/c =  0.9078   71
 Side 2  free  transition at x/c =  0.0999   20
 idif Ue xi dudx           1  0.20440781      3.44133377E-03   59.397846    
 Uenew xinew           2  8.31991062E-03  1.40070915E-04

  27   rms: 0.6149E+00   max: -.3612E+01   D at   22  2   RLX: 0.138
       a = -2.500      CL = -0.1701
      Cm = -0.0323     CD =  0.02760   =>   CDf =  0.00610    CDp =  0.02151

 MRCHDU: Convergence failed at  21  side 2    Res =  0.1920E+02
 MRCHDU: Convergence failed at  22  side 2    Res =  0.2996E+01
 MRCHDU: Convergence failed at  23  side 2    Res =  0.1142E+02
 MRCHDU: Convergence failed at  46  side 2    Res =  0.3230E+00
 MRCHDU: Convergence failed at  47  side 2    Res =  0.5107E+00
 Side 1  free  transition at x/c =  0.9060   70
 Side 2  free  transition at x/c =  0.0903   20

  28   rms: 0.4149E+00   max: 0.3507E+01   T at   20  2   RLX: 0.288
       a = -2.500      CL = -0.2080
      Cm = -0.0356     CD =  0.02515   =>   CDf =  0.00642    CDp =  0.01872

 MRCHDU: Convergence failed at  20  side 2    Res =  0.1344E+02
 Side 1  free  transition at x/c =  0.9041   70
 Side 2  free  transition at x/c =  0.0739   19

  29   rms: 0.4637E+00   max: 0.2687E+01   T at   19  2   RLX: 0.259
       a = -2.500      CL = -0.1964
      Cm = -0.0424     CD =  0.02442   =>   CDf =  0.00753    CDp =  0.01689

 Side 1  free  transition at x/c =  0.9024   69
 Side 2  free  transition at x/c =  0.0649   18

  30   rms: 0.8429E+00   max: 0.1028E+02   T at   18  2   RLX: 0.086
       a = -2.500      CL = -0.2180
      Cm = -0.0374     CD =  0.02544   =>   CDf =  0.00809    CDp =  0.01736

 Side 1  free  transition at x/c =  0.8957   69
 Side 2  free  transition at x/c =  0.0540   17

  31   rms: 0.4584E+00   max: -.1826E+01   D at   85  2   RLX: 0.274
       a = -2.500      CL = -0.1918
      Cm = -0.0437     CD =  0.02637   =>   CDf =  0.00763    CDp =  0.01874

 MRCHDU: Convergence failed at  65  side 2    Res =  0.5474E+00
 Side 1  free  transition at x/c =  0.8961   69
 Side 2  free  transition at x/c =  0.0569   18

[...]
       a = 15.750      CL =  1.2115
      Cm = -0.2183     CD =*********   =>   CDf =  0.00403    CDp =*********

 Side 1  free  transition at x/c =  0.0325   17
 Side 2 forced transition at x/c =  1.0000   74

  73   rms: 0.4028E+02   max: -.8299E+03   C at   94  2   RLX: 0.001
       a = 15.750      CL =  1.2110
      Cm = -0.2182     CD =*********   =>   CDf =  0.00403    CDp =*********

 Side 1  free  transition at x/c =  0.0325   17
 Side 2 forced transition at x/c =  1.0000   74

  74   rms: 0.3226E+02   max: -.6547E+03   C at   94  2   RLX: 0.001
       a = 15.750      CL =  1.2105
      Cm = -0.2181     CD =*********   =>   CDf =  0.00403    CDp =*********

 Side 1  free  transition at x/c =  0.0325   17
 Side 2 forced transition at x/c =  1.0000   74

  75   rms: 0.4188E+02   max: -.8417E+03   C at   94  2   RLX: 0.001
       a = 15.750      CL =  1.2100
      Cm = -0.2180     CD =*********   =>   CDf =  0.00403    CDp =*********

 Side 1  free  transition at x/c =  0.0325   17
 Side 2 forced transition at x/c =  1.0000   74

  76   rms: 0.5302E+02   max: -.1055E+04   C at   94  2   RLX: 0.000
       a = 15.750      CL =  1.2096
      Cm = -0.2179     CD =*********   =>   CDf =  0.00403    CDp =*********

 Side 1  free  transition at x/c =  0.0325   17
 Side 2 forced transition at x/c =  1.0000   74

  77   rms: 0.4074E+02   max: -.8002E+03   C at   94  2   RLX: 0.001
       a = 15.750      CL =  1.2092
      Cm = -0.2178     CD =*********   =>   CDf =  0.00403    CDp =*********

 Side 1  free  transition at x/c =  0.0325   17
 Side 2 forced transition at x/c =  1.0000   74

  78   rms: 0.4395E+02   max: -.8553E+03   C at   94  2   RLX: 0.001
       a = 15.750      CL =  1.2088
      Cm = -0.2177     CD =*********   =>   CDf =  0.00403    CDp =*********

 Side 1  free  transition at x/c =  0.0325   17
 Side 2 forced transition at x/c =  1.0000   74

  79   rms: 0.5085E+02   max: -.9806E+03   C at   94  2   RLX: 0.001
       a = 15.750      CL =  1.2084
      Cm = -0.2176     CD =*********   =>   CDf =  0.00403    CDp =*********

 Side 1  free  transition at x/c =  0.0325   17
 Side 2 forced transition at x/c =  1.0000   74

  80   rms: 0.4074E+02   max: -.7901E+03   C at   93  2   RLX: 0.001
       a = 15.750      CL =  1.2079
      Cm = -0.2175     CD =*********   =>   CDf =  0.00403    CDp =*********

 Side 1  free  transition at x/c =  0.0325   17
 Side 2 forced transition at x/c =  1.0000   74

  81   rms: 0.2077E+02   max: -.4241E+03   C at   93  2   RLX: 0.001
       a = 15.750      CL =  1.2072
      Cm = -0.2173     CD =*********   =>   CDf =  0.00403    CDp =*********

 Side 1  free  transition at x/c =  0.0325   17
 Side 2 forced transition at x/c =  1.0000   74

  82   rms: 0.1071E+02   max: 0.2465E+03   C at   94  2   RLX: 0.006
       a = 15.750      CL =  1.2033
      Cm = -0.2165     CD =*********   =>   CDf =  0.00403    CDp =*********

 Side 1  free  transition at x/c =  0.0326   17
 Side 2 forced transition at x/c =  1.0000   74

  83   rms: 0.1711E+03   max: 0.3421E+04   C at   94  2   RLX: 0.000
       a = 15.750      CL =  1.2029
      Cm = -0.2163     CD =*********   =>   CDf =  0.00402    CDp =*********

 Side 1  free  transition at x/c =  0.0326   17
 Side 2 forced transition at x/c =  1.0000   74

  84   rms: 0.1003E+03   max: 0.2026E+04   C at   94  2   RLX: 0.001
       a = 15.750      CL =  1.2024
      Cm = -0.2162     CD =*********   =>   CDf =  0.00402    CDp =*********

 Side 1  free  transition at x/c =  0.0326   17
 Side 2 forced transition at x/c =  1.0000   74

  85   rms: 0.8552E+02   max: 0.1752E+04   C at   94  2   RLX: 0.001
       a = 15.750      CL =  1.2017
      Cm = -0.2160     CD =*********   =>   CDf =  0.00402    CDp =*********

 Side 1  free  transition at x/c =  0.0326   17
 Side 2 forced transition at x/c =  1.0000   74

  86   rms: 0.6998E+02   max: 0.1455E+04   C at   94  2   RLX: 0.001
       a = 15.750      CL =  1.2001
      Cm = -0.2158     CD =*********   =>   CDf =  0.00402    CDp =*********

 Side 1  free  transition at x/c =  0.0326   17
 Side 2 forced transition at x/c =  1.0000   74

  87   rms: 0.1102E+03   max: 0.2310E+04   C at   94  2   RLX: 0.001
       a = 15.750      CL =  1.1981
      Cm = -0.2155     CD =*********   =>   CDf =  0.00402    CDp =*********

 MRCHDU: Convergence failed at  95  side 2    Res =  0.1019E-01
 Side 1  free  transition at x/c =  0.0326   17
 Side 2 forced transition at x/c =  1.0000   74

  88   rms: 0.1456E+02   max: -.2399E+03   C at   93  2   RLX: 0.002
       a = 15.750      CL =  1.1966
      Cm = -0.2152     CD =*********   =>   CDf =  0.00401    CDp =*********

 MRCHDU: Convergence failed at  95  side 2    Res =  0.1092E-01
 Side 1  free  transition at x/c =  0.0326   17
 Side 2 forced transition at x/c =  1.0000   74

  89   rms: 0.7642E+02   max: -.1314E+04   C at   94  2   RLX: 0.000
       a = 15.750      CL =  1.1964
      Cm = -0.2151     CD =*********   =>   CDf =  0.00401    CDp =*********

 MRCHDU: Convergence failed at  95  side 2    Res =  0.9804E-02
 Side 1  free  transition at x/c =  0.0326   17
 Side 2 forced transition at x/c =  1.0000   74

  90   rms: 0.8449E+02   max: -.1468E+04   C at   94  2   RLX: 0.000
       a = 15.750      CL =  1.1962
      Cm = -0.2150     CD =*********   =>   CDf =  0.00401    CDp =*********

 MRCHDU: Convergence failed at  95  side 2    Res =  0.8529E-02
 Side 1  free  transition at x/c =  0.0326   17
 Side 2 forced transition at x/c =  1.0000   74

  91   rms: 0.9218E+02   max: -.1600E+04   C at   94  2   RLX: 0.000
       a = 15.750      CL =  1.1961
      Cm = -0.2150     CD =*********   =>   CDf =  0.00401    CDp =*********

 MRCHDU: Convergence failed at  95  side 2    Res =  0.7293E-02
 Side 1  free  transition at x/c =  0.0326   17
 Side 2 forced transition at x/c =  1.0000   74

  92   rms: 0.1309E+03   max: -.2264E+04   C at   94  2   RLX: 0.000
       a = 15.750      CL =  1.1961
      Cm = -0.2150     CD =*********   =>   CDf =  0.00401    CDp =*********

 MRCHDU: Convergence failed at  95  side 2    Res =  0.6148E-02
 Side 1  free  transition at x/c =  0.0326   17
 Side 2 forced transition at x/c =  1.0000   74

  93   rms: 0.1741E+03   max: -.2992E+04   C at   94  2   RLX: 0.000
       a = 15.750      CL =  1.1961
      Cm = -0.2150     CD =*********   =>   CDf =  0.00401    CDp =*********

 MRCHDU: Convergence failed at  95  side 2    Res =  0.5116E-02
 Side 1  free  transition at x/c =  0.0326   17
 Side 2 forced transition at x/c =  1.0000   74

  94   rms: 0.1944E+03   max: -.3318E+04   C at   94  2   RLX: 0.000
       a = 15.750      CL =  1.1961
      Cm = -0.2149     CD =*********   =>   CDf =  0.00401    CDp =*********

 MRCHDU: Convergence failed at  95  side 2    Res =  0.4202E-02
 Side 1  free  transition at x/c =  0.0326   17
 Side 2 forced transition at x/c =  1.0000   74

  95   rms: 0.1861E+03   max: -.3154E+04   C at   94  2   RLX: 0.000
       a = 15.750      CL =  1.1961
      Cm = -0.2149     CD =*********   =>   CDf =  0.00401    CDp =*********

 MRCHDU: Convergence failed at  95  side 2    Res =  0.3395E-02
 Side 1  free  transition at x/c =  0.0326   17
 Side 2 forced transition at x/c =  1.0000   74

  96   rms: 0.2658E+03   max: -.4480E+04   C at   94  2   RLX: 0.000
       a = 15.750      CL =  1.1961
      Cm = -0.2149     CD =*********   =>   CDf =  0.00401    CDp =*********

 MRCHDU: Convergence failed at  95  side 2    Res =  0.2683E-02
 Side 1  free  transition at x/c =  0.0326   17
 Side 2 forced transition at x/c =  1.0000   74

  97   rms: 0.3131E+03   max: -.5245E+04   C at   94  2   RLX: 0.000
       a = 15.750      CL =  1.1961
      Cm = -0.2149     CD =*********   =>   CDf =  0.00401    CDp =*********

 MRCHDU: Convergence failed at  95  side 2    Res =  0.2054E-02
 Side 1  free  transition at x/c =  0.0326   17
 Side 2 forced transition at x/c =  1.0000   74

  98   rms: 0.2753E+03   max: -.4584E+04   C at   94  2   RLX: 0.000
       a = 15.750      CL =  1.1960
      Cm = -0.2149     CD =*********   =>   CDf =  0.00401    CDp =*********

 MRCHDU: Convergence failed at  95  side 2    Res =  0.1505E-02
 Side 1  free  transition at x/c =  0.0326   17
 Side 2 forced transition at x/c =  1.0000   74

  99   rms: 0.3808E+03   max: -.6308E+04   C at   94  2   RLX: 0.000
       a = 15.750      CL =  1.1960
      Cm = -0.2149     CD =*********   =>   CDf =  0.00401    CDp =*********

 MRCHDU: Convergence failed at  95  side 2    Res =  0.1021E-02
 Side 1  free  transition at x/c =  0.0326   17
 Side 2 forced transition at x/c =  1.0000   74

 100   rms: 0.4467E+03   max: -.7367E+04   C at   94  2   RLX: 0.000
       a = 15.750      CL =  1.1960
      Cm = -0.2149     CD =*********   =>   CDf =  0.00401    CDp =*********

 MRCHDU: Convergence failed at  95  side 2    Res =  0.5932E-03
 Side 1  free  transition at x/c =  0.0326   17
 Side 2 forced transition at x/c =  1.0000   74

 101   rms: 0.6976E+03   max: -.1146E+05   C at   94  2   RLX: 0.000
       a = 15.750      CL =  1.1961
      Cm = -0.2149     CD =*********   =>   CDf =  0.00401    CDp =*********

 MRCHDU: Convergence failed at  95  side 2    Res =  0.2190E-03
 Side 1  free  transition at x/c =  0.0326   17
 Side 2 forced transition at x/c =  1.0000   74

 102   rms: 0.6700E+03   max: -.1096E+05   C at   94  2   RLX: 0.000
       a = 15.750      CL =  1.1961
      Cm = -0.2149     CD =*********   =>   CDf =  0.00401    CDp =*********

 Side 1  free  transition at x/c =  0.0326   17
 Side 2 forced transition at x/c =  1.0000   74

 103   rms: 0.5747E+03   max: -.9369E+04   C at   94  2   RLX: 0.000
       a = 15.750      CL =  1.1961
      Cm = -0.2149     CD =*********   =>   CDf =  0.00401    CDp =*********

 Side 1  free  transition at x/c =  0.0326   17
 Side 2 forced transition at x/c =  1.0000   74

 104   rms: 0.8697E+03   max: -.1414E+05   C at   94  2   RLX: 0.000
       a = 15.750      CL =  1.1961
      Cm = -0.2149     CD =*********   =>   CDf =  0.00401    CDp =*********

 Side 1  free  transition at x/c =  0.0326   17
 Side 2 forced transition at x/c =  1.0000   74

 105   rms: 0.5482E+03   max: -.8887E+04   C at   94  2   RLX: 0.000
       a = 15.750      CL =  1.1961
      Cm = -0.2149     CD =*********   =>   CDf =  0.00401    CDp =*********

 MRCHDU: Convergence failed at  94  side 2    Res =  0.4486E-01
 MRCHDU: Convergence failed at  95  side 2    Res =  0.5638E-03
 Side 1  free  transition at x/c =  0.0326   17
 Side 2 forced transition at x/c =  1.0000   74

 106   rms: 0.6130E+03   max: -.9915E+04   C at   94  2   RLX: 0.000
       a = 15.750      CL =  1.1961
      Cm = -0.2149     CD =*********   =>   CDf =  0.00401    CDp =*********

 MRCHDU: Convergence failed at  94  side 2    Res =  0.9711E-01
 MRCHDU: Convergence failed at  95  side 2    Res =  0.2016E-02
 Side 1  free  transition at x/c =  0.0326   17
 Side 2 forced transition at x/c =  1.0000   74

 107   rms: 0.8653E+03   max: -.1397E+05   C at   94  2   RLX: 0.000
       a = 15.750      CL =  1.1961
      Cm = -0.2149     CD =*********   =>   CDf =  0.00401    CDp =*********

 MRCHDU: Convergence failed at  93  side 2    Res =  0.8512E-02
 MRCHDU: Convergence failed at  94  side 2    Res =  0.1408E+00
 Side 1  free  transition at x/c =  0.0326   17
 Side 2 forced transition at x/c =  1.0000   74

 108   rms: 0.7910E+03   max: -.1246E+05   C at   94  2   RLX: 0.000
       a = 15.750      CL =  1.1961
      Cm = -0.2149     CD =*********   =>   CDf =  0.00401    CDp =*********

 MRCHDU: Convergence failed at  93  side 2    Res =  0.6020E-01
 MRCHDU: Convergence failed at  94  side 2    Res =  0.1502E+00
 Side 1  free  transition at x/c =  0.0326   17
 Side 2 forced transition at x/c =  1.0000   74

 109   rms: 0.5621E+03   max: -.8908E+04   C at   94  2   RLX: 0.000
       a = 15.750      CL =  1.1961
      Cm = -0.2149     CD =*********   =>   CDf =  0.00401    CDp =*********

 MRCHDU: Convergence failed at  93  side 2    Res =  0.1118E+00
 MRCHDU: Convergence failed at  94  side 2    Res =  0.1976E+00
 Side 1  free  transition at x/c =  0.0326   17
 Side 2 forced transition at x/c =  1.0000   74

 110   rms: 0.1605E+04   max: -.1989E+05   C at   96  2   RLX: 0.000
       a = 15.750      CL =  1.1961
      Cm = -0.2149     CD =*********   =>   CDf =  0.00401    CDp =*********

 Side 1  free  transition at x/c =  0.0326   17
 Side 2 forced transition at x/c =  1.0000   74

 111   rms: 0.1302E+04   max: -.1603E+05   C at   95  2   RLX: 0.000
       a = 15.750      CL =  1.1961
      Cm = -0.2149     CD =*********   =>   CDf =  0.00401    CDp =*********

 Side 1  free  transition at x/c =  0.0326   17
 Side 2 forced transition at x/c =  1.0000   74

 112   rms: 0.3972E+04   max: -.4880E+05   C at   95  2   RLX: 0.000
       a = 15.750      CL =  1.1961
      Cm = -0.2149     CD =*********   =>   CDf =  0.00401    CDp =*********

 Side 1  free  transition at x/c =  0.0326   17
 Side 2 forced transition at x/c =  1.0000   74

 113   rms: 0.2872E+04   max: -.3521E+05   C at   95  2   RLX: 0.000
       a = 15.750      CL =  1.1961
      Cm = -0.2149     CD =*********   =>   CDf =  0.00401    CDp =*********

 Side 1  free  transition at x/c =  0.0326   17
 Side 2 forced transition at x/c =  1.0000   74

 114   rms: 0.2848E+04   max: -.3497E+05   C at   96  2   RLX: 0.000
       a = 15.750      CL =  1.1961
      Cm = -0.2148     CD =*********   =>   CDf =  0.00401    CDp =*********

 MRCHDU: Convergence failed at  92  side 2    Res =  0.5100E-05
 Side 1  free  transition at x/c =  0.0326   17
 Side 2 forced transition at x/c =  1.0000   74

 115   rms: 0.3762E+04   max: -.4623E+05   C at   96  2   RLX: 0.000
       a = 15.750      CL =  1.1961
      Cm = -0.2148     CD =*********   =>   CDf =  0.00401    CDp =*********

 Side 1  free  transition at x/c =  0.0326   17
 Side 2 forced transition at x/c =  1.0000   74

 116   rms: 0.1638E+04   max: -.2012E+05   C at   96  2   RLX: 0.000
       a = 15.750      CL =  1.1961
      Cm = -0.2148     CD =*********   =>   CDf =  0.00401    CDp =*********

 MRCHDU: Convergence failed at  92  side 2    Res =  0.4142E-01
 Side 1  free  transition at x/c =  0.0326   17
 Side 2 forced transition at x/c =  1.0000   74

 117   rms: 0.2063E+04   max: -.2533E+05   C at   96  2   RLX: 0.000
       a = 15.750      CL =  1.1961
      Cm = -0.2148     CD =*********   =>   CDf =  0.00401    CDp =*********

 MRCHDU: Convergence failed at  92  side 2    Res =  0.9162E-01
 Side 1  free  transition at x/c =  0.0326   17
 Side 2 forced transition at x/c =  1.0000   74

 118   rms: 0.2235E+04   max: -.2741E+05   C at   96  2   RLX: 0.000
       a = 15.750      CL =  1.1960
      Cm = -0.2148     CD =*********   =>   CDf =  0.00401    CDp =*********

 MRCHDU: Convergence failed at  92  side 2    Res =  0.1420E+00
 MRCHDU: Convergence failed at  93  side 2    Res =  0.7217E+00
 MRCHDU: Convergence failed at  94  side 2    Res =  0.1695E+01
 Side 1  free  transition at x/c =  0.0326   17
 Side 2 forced transition at x/c =  1.0000   74

 119   rms: 0.8556E+02   max: 0.1445E+04   C at   94  2   RLX: 0.001
       a = 15.750      CL =  1.1988
      Cm = -0.2151     CD =*********   =>   CDf =  0.00401    CDp =*********

 MRCHDU: Convergence failed at  92  side 2    Res =  0.3012E-01
 MRCHDU: Convergence failed at  94  side 2    Res =  0.6652E-01
 Side 1  free  transition at x/c =  0.0326   17
 Side 2 forced transition at x/c =  1.0000   74

 120   rms: 0.7082E+02   max: -.1277E+04   T at   96  2   RLX: 0.000
       a = 15.750      CL =  1.2009
      Cm = -0.2153     CD =*********   =>   CDf =  0.00403    CDp =*********

 MRCHDU: Convergence failed at  92  side 2    Res =  0.1460E+00
 Side 1  free  transition at x/c =  0.0326   17
 Side 2 forced transition at x/c =  1.0000   74

 121   rms: 0.1571E+03   max: -.2944E+04   T at   96  2   RLX: 0.000
       a = 15.750      CL =  1.2013
      Cm = -0.2153     CD =*********   =>   CDf =  0.00404    CDp =*********

 MRCHDU: Convergence failed at  94  side 2    Res =  0.5273E-01
 Side 1  free  transition at x/c =  0.0326   17
 Side 2 forced transition at x/c =  1.0000   74

 122   rms: 0.3470E+03   max: -.8083E+04   T at   96  2   RLX: 0.000
       a = 15.750      CL =  1.2015
      Cm = -0.2153     CD =+Infinity   =>   CDf =  0.00404    CDp =+Infinity

 MRCHDU: Convergence failed at  94  side 2    Res =  0.3865E-01
 Side 1  free  transition at x/c =  0.0326   17
 Side 2 forced transition at x/c =  1.0000   74

 123   rms: 0.1500E+03   max: 0.3580E+04   T at   96  2   RLX: 0.000
       a = 15.750      CL =  1.2026
      Cm = -0.2154     CD =*********   =>   CDf =  0.00404    CDp =*********

 MRCHDU: Convergence failed at  94  side 2    Res =  0.1065E+01
 Side 1  free  transition at x/c =  0.0326   17
 Side 2 forced transition at x/c =  1.0000   74

 124   rms: 0.1075E+04   max: 0.2109E+05   T at   96  2   RLX: 0.000
       a = 15.750      CL =  1.2030
      Cm = -0.2155     CD =*********   =>   CDf =  0.00404    CDp =*********

 MRCHDU: Convergence failed at  93  side 2    Res =  0.7668E-02
 MRCHDU: Convergence failed at  94  side 2    Res =  0.3245E-01
 Side 1  free  transition at x/c =  0.0326   17
 Side 2 forced transition at x/c =  1.0000   74

 125   rms: 0.6033E+02   max: -.1093E+04   T at   96  2   RLX: 0.000
       a = 15.750      CL =  1.2041
      Cm = -0.2156     CD =*********   =>   CDf =  0.00405    CDp =*********

 MRCHDU: Convergence failed at  93  side 2    Res =  0.3957E-02
 MRCHDU: Convergence failed at  94  side 2    Res =  0.1479E-01
 Side 1  free  transition at x/c =  0.0326   17
 Side 2 forced transition at x/c =  1.0000   74

 126   rms: 0.2483E+03   max: -.5253E+04   T at   96  2   RLX: 0.000
       a = 15.750      CL =  1.2043
      Cm = -0.2156     CD =*********   =>   CDf =  0.00405    CDp =*********

 MRCHDU: Convergence failed at  93  side 2    Res =  0.5175E-03
 MRCHDU: Convergence failed at  94  side 2    Res =  0.9651E-02
 MRCHDU: Convergence failed at  95  side 2    Res =  0.2279E+00
 MRCHDU: Convergence failed at  96  side 2    Res =  0.3500E-02
 Side 1  free  transition at x/c =  0.0326   17
 Side 2 forced transition at x/c =  1.0000   74

 127   rms: 0.9561E+02   max: -.2193E+04   T at   96  2   RLX: 0.000
       a = 15.750      CL =  1.2048
      Cm = -0.2156     CD =+Infinity   =>   CDf =  0.00405    CDp =+Infinity

 MRCHDU: Convergence failed at  94  side 2    Res =  0.5611E-02
 MRCHDU: Convergence failed at  95  side 2    Res =  0.4431E-02
 MRCHDU: Convergence failed at  96  side 2    Res =  0.7353E-03
 Side 1  free  transition at x/c =  0.0326   17
 Side 2 forced transition at x/c =  1.0000   74

 128   rms: 0.4930E+03   max: -.1061E+05   T at   96  2   RLX: 0.000
       a = 15.750      CL =  1.2048
      Cm = -0.2156     CD =+Infinity   =>   CDf =  0.00406    CDp =+Infinity

 MRCHDU: Convergence failed at  95  side 2    Res =  0.1957E-02
 MRCHDU: Convergence failed at  96  side 2    Res =  0.2890E-04
 Side 1  free  transition at x/c =  0.0326   17
 Side 2 forced transition at x/c =  1.0000   74

 129   rms: 0.5624E+03   max: -.1020E+05   T at   96  2   RLX: 0.000
       a = 15.750      CL =  1.2045
      Cm = -0.2156     CD =+Infinity   =>   CDf =  0.00406    CDp =+Infinity

 Side 1  free  transition at x/c =  0.0326   17
 Side 2 forced transition at x/c =  1.0000   74

 130   rms: 0.2444E+03   max: -.4065E+04   T at   95  2   RLX: 0.000
       a = 15.750      CL =  1.2041
      Cm = -0.2155     CD =+Infinity   =>   CDf =  0.00405    CDp =+Infinity

 Side 1  free  transition at x/c =  0.0326   17
 Side 2 forced transition at x/c =  1.0000   74

 131   rms: 0.3258E+04   max: -.5032E+05   T at   94  2   RLX: 0.000
       a = 15.750      CL =  1.2038
      Cm = -0.2155     CD =+Infinity   =>   CDf =  0.00405    CDp =+Infinity

 Side 1  free  transition at x/c =  0.0326   17
 Side 2 forced transition at x/c =  1.0000   74


[TIMEOUT]
