  
       XFOIL         Version 6.99
  
 Calculated polar for: HQ 3.0/9 AIRFOIL                                
  
 1 1 Reynolds number fixed          Mach number fixed         
  
 xtrf =   1.000 (top)        1.000 (bottom)  
 Mach =   0.000     Re =     0.300 e 6     Ncrit =   9.000
  
   alpha    CL        CD       CDp       CM     Top_Xtr  Bot_Xtr
  ------ -------- --------- --------- -------- -------- --------
  -4.000  -0.0337   0.01623   0.01001  -0.0951   0.9472   0.0229
  -3.500   0.0272   0.01380   0.00729  -0.0957   0.9377   0.0255
  -3.000   0.0895   0.01183   0.00517  -0.0967   0.9289   0.0351
  -2.500   0.1507   0.01074   0.00413  -0.0977   0.9193   0.0929
  -2.000   0.1992   0.00868   0.00382  -0.0971   0.9065   0.6131
  -1.500   0.2526   0.00849   0.00365  -0.0958   0.8926   0.6962
  -1.000   0.3042   0.00837   0.00356  -0.0940   0.8782   0.7570
  -0.500   0.3509   0.00823   0.00352  -0.0910   0.8638   0.8281
   0.000   0.4016   0.00805   0.00333  -0.0894   0.8469   0.8591
   0.500   0.4510   0.00775   0.00305  -0.0873   0.8265   0.9006
   1.000   0.5220   0.00753   0.00282  -0.0903   0.8095   1.0000
   1.500   0.5778   0.00758   0.00275  -0.0904   0.7864   1.0000
   2.000   0.6328   0.00767   0.00272  -0.0901   0.7624   1.0000
   2.500   0.6870   0.00780   0.00279  -0.0897   0.7362   1.0000
   3.000   0.7403   0.00796   0.00289  -0.0890   0.7048   1.0000
   3.500   0.7925   0.00820   0.00307  -0.0881   0.6665   1.0000
   4.000   0.8432   0.00855   0.00329  -0.0869   0.6173   1.0000
   4.500   0.8911   0.00909   0.00366  -0.0853   0.5469   1.0000
   5.000   0.9350   0.01000   0.00419  -0.0832   0.4534   1.0000
   5.500   0.9761   0.01124   0.00496  -0.0809   0.3504   1.0000
   6.000   1.0155   0.01271   0.00591  -0.0787   0.2453   1.0000
   6.500   1.0588   0.01389   0.00681  -0.0771   0.1784   1.0000
   7.000   1.1013   0.01517   0.00784  -0.0754   0.1194   1.0000
   7.500   1.1371   0.01715   0.00941  -0.0728   0.0460   1.0000
   8.000   1.1704   0.01947   0.01162  -0.0694   0.0125   1.0000
   9.000   1.2221   0.02482   0.01758  -0.0605   0.0093   1.0000
   9.500   1.2380   0.02806   0.02112  -0.0549   0.0090   1.0000
  10.000   1.2551   0.03220   0.02562  -0.0499   0.0090   1.0000
  10.000   1.2551   0.03220   0.02562  -0.0499   0.0090   1.0000
  10.250   1.2638   0.03457   0.02827  -0.0478   0.0090   1.0000
  10.500   1.2714   0.03669   0.03060  -0.0456   0.0087   1.0000
  10.750   1.2772   0.03861   0.03273  -0.0434   0.0084   1.0000
  11.000   1.2802   0.04087   0.03521  -0.0412   0.0080   1.0000
  11.250   1.2824   0.04281   0.03733  -0.0393   0.0076   1.0000
  11.500   1.2783   0.04618   0.04099  -0.0371   0.0076   1.0000
  11.750   1.2712   0.04969   0.04478  -0.0352   0.0076   1.0000
  12.000   1.2605   0.05371   0.04907  -0.0338   0.0077   1.0000
  12.250   1.2472   0.05812   0.05375  -0.0330   0.0078   1.0000
  12.500   1.2317   0.06295   0.05883  -0.0329   0.0078   1.0000
  12.750   1.2144   0.06838   0.06451  -0.0338   0.0079   1.0000
  13.000   1.1960   0.07435   0.07071  -0.0357   0.0080   1.0000
  13.250   1.1775   0.08088   0.07745  -0.0385   0.0081   1.0000
  13.500   1.1576   0.08826   0.08503  -0.0424   0.0081   1.0000
  13.750   1.1390   0.09620   0.09314  -0.0472   0.0082   1.0000
  14.000   1.1200   0.10508   0.10219  -0.0529   0.0082   1.0000
  14.250   1.1006   0.11487   0.11213  -0.0593   0.0083   1.0000
  14.500   1.0812   0.12546   0.12285  -0.0663   0.0085   1.0000
  14.750   1.0610   0.13719   0.13468  -0.0737   0.0086   1.0000
  15.000   1.0371   0.15088   0.14845  -0.0818   0.0089   1.0000
