
 ===================================================
  XFOIL Version 6.99
  Copyright (C) 2000   Mark Drela, Harold Youngren

  This software comes with ABSOLUTELY NO WARRANTY,
    subject to the GNU General Public License.

  Caveat computor
 ===================================================

 File  xfoil.def  not found

   QUIT    Exit program

  .OPER    Direct operating point(s)
  .MDES    Complex mapping design routine
  .QDES    Surface speed design routine
  .GDES    Geometry design routine

   SAVE f  Write airfoil to labeled coordinate file
   PSAV f  Write airfoil to plain coordinate file
   ISAV f  Write airfoil to ISES coordinate file
   MSAV f  Write airfoil to MSES coordinate file
   REVE    Reverse written-airfoil node ordering

   LOAD f  Read buffer airfoil from coordinate file
   NACA i  Set NACA 4,5-digit airfoil and buffer airfoil
   INTE    Set buffer airfoil by interpolating two airfoils
   NORM    Buffer airfoil normalization toggle
   XYCM rr Change CM reference location, currently  0.25000 0.00000

   BEND    Display structural properties of current airfoil

   PCOP    Set current-airfoil panel nodes directly from buffer airfoil points
   PANE    Set current-airfoil panel nodes ( 160 ) based on curvature
  .PPAR    Show/change paneling

  .PLOP    Plotting options

   WDEF f  Write  current-settings file
   RDEF f  Reread current-settings file
   NAME s  Specify new airfoil name
   NINC    Increment name version number

   Z       Zoom    | (available in all menus)
   U       Unzoom  | 

 XFOIL   c>  
 Labeled airfoil file.  Name:  HQ 3.0/15 AIRFOIL                               

 Number of input coordinate points:  77
 Counterclockwise ordering
 Max thickness =     0.149832  at x =   0.350
 Max camber    =     0.029364  at x =   0.500

  LE  x,y  =  -0.00005   0.00097  |   Chord =   1.00005
  TE  x,y  =   1.00000   0.00000  |

 Current airfoil nodes set from buffer airfoil nodes (  77 )

 XFOIL   c>  
 XFOIL   c>  
 Sharp trailing edge

 Paneling parameters used...
   Number of panel nodes       160
   Panel bunching parameter    1.000
   TE/LE panel density ratio   0.150
   Refined-area/LE panel density ratio    0.200
   Top    side refined area x/c limits  1.000 1.000
   Bottom side refined area x/c limits  1.000 1.000

 XFOIL   c>  
.OPERi   c>  
 Xtr/c     =  1.0000    top    side
 Xtr/c     =  1.0000    bottom side
 Ncrit     =    9.00   ( 0.070 % turb. level )
 Vacc      =  0.0100

 Klag  =  5.6000     Uxwt  =    1.00
 A     =  6.7000     B     =  0.7500       KCt = 0.01485
 CtiniK=  1.8000     CtiniX=  3.3000

..VPAR   c>  
..VPAR   c>  
.OPERi   c>  
 M  =    0.0000
 Re =    400000

.OPERv   c>  
.OPERv   c>  
.OPERv   c>  
 Polar  1 newly created for accumulation
 Airfoil archived with polar: HQ 3.0/15 AIRFOIL                               

Enter  polar save filename  OR  <return> for no file   s>  
 New polar save file available

Enter  polar dump filename  OR  <return> for no file   s>  
 Polar dump file will NOT be written

 Polar accumulation enabled

.OPERva   c>   Calculating unit vorticity distributions ...
 Calculating wake trajectory ...
 Calculating source influence matrix ...

 Solving BL system ...

 Initializing BL ...
    side            1  ...
 MRCHUE: Inverse mode at  51     Hk =   3.947
 MRCHUE: Inverse mode at  52     Hk =   4.550
 MRCHUE: Inverse mode at  53     Hk =   5.142
 MRCHUE: Inverse mode at  54     Hk =   5.724
 MRCHUE: Inverse mode at  55     Hk =   6.296
 MRCHUE: Inverse mode at  56     Hk =   6.861
 MRCHUE: Inverse mode at  57     Hk =   7.422
 MRCHUE: Inverse mode at  58     Hk =   7.979
 MRCHUE: Inverse mode at  59     Hk =   8.535
 MRCHUE: Inverse mode at  60     Hk =   9.087
 MRCHUE: Inverse mode at  61     Hk =   8.482
 MRCHUE: Inverse mode at  62     Hk =   6.216
 MRCHUE: Inverse mode at  63     Hk =   4.793
 MRCHUE: Inverse mode at  64     Hk =   3.745
 MRCHUE: Inverse mode at  65     Hk =   2.928
    side            2  ...
 MRCHUE: Inverse mode at  24     Hk =   4.444
 MRCHUE: Inverse mode at  25     Hk =   5.698
 MRCHUE: Inverse mode at  26     Hk =   6.984
 MRCHUE: Inverse mode at  27     Hk =   8.280
 MRCHUE: Inverse mode at  28     Hk =   7.312
 MRCHUE: Inverse mode at  29     Hk =   2.500
 MRCHUE: Inverse mode at  86     Hk =   2.500

 Side 1  free  transition at x/c =  0.7782   61
 Side 2  free  transition at x/c =  0.0982   28

   1   rms: 0.1480E+00   max: -.9418E+00   T at   28  2   RLX: 0.531
       a = -4.000      CL = -0.0447
      Cm = -0.0865     CD =  0.01261   =>   CDf =  0.00690    CDp =  0.00571

 MRCHDU: Convergence failed at  64  side 1    Res =  0.1571E+01
 MRCHDU: Convergence failed at  65  side 1    Res =  0.3577E+01
 Side 1  free  transition at x/c =  0.7953   62
 Side 2  free  transition at x/c =  0.1139   29

   2   rms: 0.1294E+00   max: -.2460E+01   C at   29  2   RLX: 0.203
       a = -4.000      CL = -0.0369
      Cm = -0.0911     CD =  0.01093   =>   CDf =  0.00676    CDp =  0.00416

 Side 1  free  transition at x/c =  0.7963   62
 Side 2  free  transition at x/c =  0.1172   30

   3   rms: 0.1285E+00   max: -.1205E+01   C at   30  2   RLX: 0.415
       a = -4.000      CL = -0.0396
      Cm = -0.0887     CD =  0.01071   =>   CDf =  0.00700    CDp =  0.00371

 Side 1  free  transition at x/c =  0.7985   62
 Side 2  free  transition at x/c =  0.1524   32

   4   rms: 0.1488E+00   max: -.2780E+01   C at   32  2   RLX: 0.180
       a = -4.000      CL = -0.0396
      Cm = -0.0887     CD =  0.01065   =>   CDf =  0.00675    CDp =  0.00390

 Side 1  free  transition at x/c =  0.7986   62
 Side 2  free  transition at x/c =  0.1593   32

   5   rms: 0.5223E-01   max: -.4903E+00   T at   32  2
       a = -4.000      CL = -0.0269
      Cm = -0.0896     CD =  0.01061   =>   CDf =  0.00675    CDp =  0.00387

 MRCHDU: Convergence failed at  34  side 2    Res =  0.2558E+00
 Side 1  free  transition at x/c =  0.8036   63
 Side 2  free  transition at x/c =  0.2572   39

   6   rms: 0.7555E-01   max: -.8470E+00   C at   39  2   RLX: 0.590
       a = -4.000      CL = -0.0355
      Cm = -0.0903     CD =  0.00999   =>   CDf =  0.00630    CDp =  0.00369

 Side 1  free  transition at x/c =  0.8023   63
 Side 2  free  transition at x/c =  0.2711   39

   7   rms: 0.2850E-01   max: -.4156E+00   C at   39  2
       a = -4.000      CL = -0.0282
      Cm = -0.0901     CD =  0.01005   =>   CDf =  0.00620    CDp =  0.00385

 Side 1  free  transition at x/c =  0.8012   63
 Side 2  free  transition at x/c =  0.2610   39

   8   rms: 0.8117E-02   max: 0.1324E+00   C at   39  2
       a = -4.000      CL = -0.0272
      Cm = -0.0902     CD =  0.01018   =>   CDf =  0.00617    CDp =  0.00401

 Side 1  free  transition at x/c =  0.8011   63
 Side 2  free  transition at x/c =  0.2534   38

   9   rms: 0.3734E-03   max: -.6187E-02   C at   38  2
       a = -4.000      CL = -0.0272
      Cm = -0.0902     CD =  0.01018   =>   CDf =  0.00620    CDp =  0.00398

 Side 1  free  transition at x/c =  0.8011   63
 Side 2  free  transition at x/c =  0.2534   38

  10   rms: 0.1795E-05   max: -.7763E-05   D at    4  1
       a = -4.000      CL = -0.0272
      Cm = -0.0902     CD =  0.01018   =>   CDf =  0.00620    CDp =  0.00398
 plradd ia,ip,cpol            1           0  1.60039123E-02

 Point added to stored polar  1
 Point written to save file  hq3015_Re400k.base.pol                          
 Dump file unspecified or not available
 Calculating wake trajectory ...
 Calculating source influence matrix ...

 Solving BL system ...

 Side 1  free  transition at x/c =  0.8011   63
 Side 2  free  transition at x/c =  0.2534   38

   1   rms: 0.1839E+00   max: -.3418E+01   C at   38  2   RLX: 0.146
       a = -3.500      CL = -0.0196
      Cm = -0.0901     CD =  0.01008   =>   CDf =  0.00620    CDp =  0.00388

 Side 1  free  transition at x/c =  0.7999   63
 Side 2  free  transition at x/c =  0.2722   40

   2   rms: 0.1796E+00   max: -.2822E+01   C at   40  2   RLX: 0.177
       a = -3.500      CL = -0.0122
      Cm = -0.0900     CD =  0.00989   =>   CDf =  0.00616    CDp =  0.00373

 Side 1  free  transition at x/c =  0.7987   62
 Side 2  free  transition at x/c =  0.2871   40

   3   rms: 0.1071E+00   max: -.1833E+01   C at   40  2   RLX: 0.273
       a = -3.500      CL = -0.0021
      Cm = -0.0899     CD =  0.00985   =>   CDf =  0.00613    CDp =  0.00372

 Side 1  free  transition at x/c =  0.7962   62
 Side 2  free  transition at x/c =  0.3127   42

   4   rms: 0.1595E+00   max: -.3115E+01   C at   42  2   RLX: 0.161
       a = -3.500      CL =  0.0013
      Cm = -0.0898     CD =  0.00965   =>   CDf =  0.00600    CDp =  0.00365

 Side 1  free  transition at x/c =  0.7952   62
 Side 2  free  transition at x/c =  0.3227   43

   5   rms: 0.1458E+00   max: -.2734E+01   C at   43  2   RLX: 0.183
       a = -3.500      CL =  0.0050
      Cm = -0.0898     CD =  0.00957   =>   CDf =  0.00597    CDp =  0.00359

 Side 1  free  transition at x/c =  0.7943   62
 Side 2  free  transition at x/c =  0.3371   44

   6   rms: 0.1862E+00   max: -.3649E+01   C at   44  2   RLX: 0.137
       a = -3.500      CL =  0.0070
      Cm = -0.0897     CD =  0.00947   =>   CDf =  0.00589    CDp =  0.00358

 Side 1  free  transition at x/c =  0.7937   62
 Side 2  free  transition at x/c =  0.3521   44

   7   rms: 0.2639E+00   max: -.5049E+01   C at   44  2   RLX: 0.099
       a = -3.500      CL =  0.0082
      Cm = -0.0897     CD =  0.00941   =>   CDf =  0.00581    CDp =  0.00360

 Side 1  free  transition at x/c =  0.7934   62
 Side 2  free  transition at x/c =  0.3630   45

   8   rms: 0.2226E+00   max: -.4352E+01   C at   45  2   RLX: 0.115
       a = -3.500      CL =  0.0095
      Cm = -0.0896     CD =  0.00935   =>   CDf =  0.00577    CDp =  0.00358

 Side 1  free  transition at x/c =  0.7930   62
 Side 2  free  transition at x/c =  0.3769   46

   9   rms: 0.1722E+00   max: -.3381E+01   C at   46  2   RLX: 0.148
       a = -3.500      CL =  0.0109
      Cm = -0.0896     CD =  0.00929   =>   CDf =  0.00572    CDp =  0.00357

 Side 1  free  transition at x/c =  0.7926   62
 Side 2  free  transition at x/c =  0.3944   47

  10   rms: 0.1026E+00   max: -.1997E+01   C at   47  2   RLX: 0.250
       a = -3.500      CL =  0.0131
      Cm = -0.0895     CD =  0.00922   =>   CDf =  0.00565    CDp =  0.00356

 Side 1  free  transition at x/c =  0.7920   62
 Side 2  free  transition at x/c =  0.4205   49

  11   rms: 0.5271E-01   max: -.9892E+00   C at   49  2   RLX: 0.505
       a = -3.500      CL =  0.0160
      Cm = -0.0893     CD =  0.00911   =>   CDf =  0.00556    CDp =  0.00356

 Side 1  free  transition at x/c =  0.7912   62
 Side 2  free  transition at x/c =  0.4416   50

  12   rms: 0.1148E-01   max: -.1601E+00   C at   50  2
       a = -3.500      CL =  0.0201
      Cm = -0.0893     CD =  0.00910   =>   CDf =  0.00550    CDp =  0.00360

 Side 1  free  transition at x/c =  0.7904   62
 Side 2  free  transition at x/c =  0.4580   51

  13   rms: 0.4680E-02   max: 0.8111E-01   C at   51  2
       a = -3.500      CL =  0.0199
      Cm = -0.0893     CD =  0.00908   =>   CDf =  0.00545    CDp =  0.00363

 Side 1  free  transition at x/c =  0.7904   62
 Side 2  free  transition at x/c =  0.4545   51

  14   rms: 0.3513E-03   max: -.6510E-02   C at   51  2
       a = -3.500      CL =  0.0199
      Cm = -0.0893     CD =  0.00908   =>   CDf =  0.00546    CDp =  0.00362

 Side 1  free  transition at x/c =  0.7904   62
 Side 2  free  transition at x/c =  0.4547   51

  15   rms: 0.1550E-05   max: -.2286E-04   C at   51  2
       a = -3.500      CL =  0.0199
      Cm = -0.0893     CD =  0.00908   =>   CDf =  0.00546    CDp =  0.00362
 plradd ia,ip,cpol            2           0  1.96839850E-02

 Point added to stored polar  1
 Point written to save file  hq3015_Re400k.base.pol                          
 Dump file unspecified or not available
 Calculating wake trajectory ...
 Calculating source influence matrix ...

 Solving BL system ...

 Side 1  free  transition at x/c =  0.7904   62
 Side 2  free  transition at x/c =  0.4547   51

   1   rms: 0.1712E+00   max: -.2813E+01   C at   51  2   RLX: 0.178
       a = -3.000      CL =  0.0291
      Cm = -0.0891     CD =  0.00900   =>   CDf =  0.00546    CDp =  0.00354

 Side 1  free  transition at x/c =  0.7885   62
 Side 2  free  transition at x/c =  0.4763   52

   2   rms: 0.7773E-01   max: 0.3189E+00   D at   53  2
       a = -3.000      CL =  0.0764
      Cm = -0.0892     CD =  0.00902   =>   CDf =  0.00547    CDp =  0.00355

 MRCHDU: Convergence failed at  54  side 2    Res =  0.7885E+00
 MRCHDU: Convergence failed at  55  side 2    Res =  0.2039E+01
 MRCHDU: Convergence failed at  56  side 2    Res =  0.1031E+01
 MRCHDU: Convergence failed at  57  side 2    Res =  0.1679E+01
 MRCHDU: Convergence failed at  58  side 2    Res =  0.2140E+01
 MRCHDU: Convergence failed at  59  side 2    Res =  0.2513E+01
 MRCHDU: Convergence failed at  60  side 2    Res =  0.2794E+01
 MRCHDU: Convergence failed at  61  side 2    Res =  0.2967E+01
 MRCHDU: Convergence failed at  62  side 2    Res =  0.3068E+01
 MRCHDU: Convergence failed at  63  side 2    Res =  0.3114E+01
 MRCHDU: Convergence failed at  64  side 2    Res =  0.3137E+01
 MRCHDU: Convergence failed at  65  side 2    Res =  0.2717E+01
 MRCHDU: Convergence failed at  66  side 2    Res =  0.2667E+01
 MRCHDU: Convergence failed at  67  side 2    Res =  0.2631E+01
 MRCHDU: Convergence failed at  68  side 2    Res =  0.2605E+01
 MRCHDU: Convergence failed at  69  side 2    Res =  0.2586E+01
 MRCHDU: Convergence failed at  70  side 2    Res =  0.2251E+01
 MRCHDU: Convergence failed at  71  side 2    Res =  0.2445E+01
 MRCHDU: Convergence failed at  72  side 2    Res =  0.2624E+01
 MRCHDU: Convergence failed at  73  side 2    Res =  0.2848E+01
 MRCHDU: Convergence failed at  74  side 2    Res =  0.3055E+01
 MRCHDU: Convergence failed at  75  side 2    Res =  0.3120E+01
 MRCHDU: Convergence failed at  76  side 2    Res =  0.3162E+01
 MRCHDU: Convergence failed at  77  side 2    Res =  0.3323E+01
 MRCHDU: Convergence failed at  78  side 2    Res =  0.3302E+01
 MRCHDU: Convergence failed at  79  side 2    Res =  0.3156E+01
 MRCHDU: Convergence failed at  80  side 2    Res =  0.3375E+01
 MRCHDU: Convergence failed at  81  side 2    Res =  0.3648E+01
 MRCHDU: Convergence failed at  82  side 2    Res =  0.3824E+01
 MRCHDU: Convergence failed at  83  side 2    Res =  0.4134E+01
 MRCHDU: Convergence failed at  84  side 2    Res =  0.4666E+01
 MRCHDU: Convergence failed at  85  side 2    Res =  0.6856E+01
 Side 1  free  transition at x/c =  0.7807   62
 Side 2  free  transition at x/c =  0.6848   64

   3   rms: 0.2591E+00   max: 0.2825E+00   D at   89  2   RLX: 0.989
       a = -3.000      CL =  0.0879
      Cm = -0.0905     CD =  0.00724   =>   CDf =  0.00447    CDp =  0.00277

 Side 1  free  transition at x/c =  0.7815   62
 Side 2  free  transition at x/c =  0.5711   57

   4   rms: 0.7408E-01   max: -.6957E+00   D at   64  2   RLX: 0.719
       a = -3.000      CL =  0.0759
      Cm = -0.0890     CD =  0.00869   =>   CDf =  0.00522    CDp =  0.00348

 Side 1  free  transition at x/c =  0.7807   62
 Side 2  free  transition at x/c =  0.5474   56

   5   rms: 0.2610E-01   max: -.2997E+00   D at   64  2
       a = -3.000      CL =  0.0741
      Cm = -0.0888     CD =  0.00889   =>   CDf =  0.00532    CDp =  0.00358

 Side 1  free  transition at x/c =  0.7805   62
 Side 2  free  transition at x/c =  0.5398   55

   6   rms: 0.2857E-02   max: -.2735E-01   C at   55  2
       a = -3.000      CL =  0.0742
      Cm = -0.0888     CD =  0.00892   =>   CDf =  0.00535    CDp =  0.00356

 Side 1  free  transition at x/c =  0.7805   62
 Side 2  free  transition at x/c =  0.5399   55

   7   rms: 0.3202E-04   max: -.4471E-03   D at   58  2
       a = -3.000      CL =  0.0742
      Cm = -0.0888     CD =  0.00892   =>   CDf =  0.00535    CDp =  0.00357
 plradd ia,ip,cpol            3           0  1.96839850E-02

 Point added to stored polar  1
 Point written to save file  hq3015_Re400k.base.pol                          
 Dump file unspecified or not available
 Calculating wake trajectory ...
 Calculating source influence matrix ...

 Solving BL system ...

 Side 1  free  transition at x/c =  0.7805   62
 Side 2  free  transition at x/c =  0.5399   55

   1   rms: 0.8901E-01   max: 0.3572E+00   D at   56  2
       a = -2.500      CL =  0.1286
      Cm = -0.0883     CD =  0.00896   =>   CDf =  0.00538    CDp =  0.00357

 Side 1  free  transition at x/c =  0.7672   62
 Side 2  free  transition at x/c =  0.5726   56

   2   rms: 0.1734E-01   max: -.2127E+00   D at   63  1
       a = -2.500      CL =  0.1314
      Cm = -0.0887     CD =  0.00898   =>   CDf =  0.00551    CDp =  0.00346

 Side 1  free  transition at x/c =  0.7719   63
 Side 2  free  transition at x/c =  0.5830   57

   3   rms: 0.1601E-01   max: 0.1786E+00   D at   63  1
       a = -2.500      CL =  0.1297
      Cm = -0.0884     CD =  0.00889   =>   CDf =  0.00530    CDp =  0.00359

 Side 1  free  transition at x/c =  0.7700   63
 Side 2  free  transition at x/c =  0.5796   57

   4   rms: 0.1622E-02   max: -.1837E-01   D at   59  2
       a = -2.500      CL =  0.1296
      Cm = -0.0884     CD =  0.00890   =>   CDf =  0.00536    CDp =  0.00354

 Side 1  free  transition at x/c =  0.7697   63
 Side 2  free  transition at x/c =  0.5792   57

   5   rms: 0.1851E-04   max: -.2047E-03   D at   59  2
       a = -2.500      CL =  0.1296
      Cm = -0.0884     CD =  0.00890   =>   CDf =  0.00537    CDp =  0.00354
 plradd ia,ip,cpol            4           0  1.96839850E-02

 Point added to stored polar  1
 Point written to save file  hq3015_Re400k.base.pol                          
 Dump file unspecified or not available
 Calculating wake trajectory ...
 Calculating source influence matrix ...

 Solving BL system ...

 Side 1  free  transition at x/c =  0.7697   63
 Side 2  free  transition at x/c =  0.5792   57

   1   rms: 0.8811E-01   max: 0.4265E+00   D at   58  2
       a = -2.000      CL =  0.1861
      Cm = -0.0881     CD =  0.00893   =>   CDf =  0.00539    CDp =  0.00354

 Side 1  free  transition at x/c =  0.7620   63
 Side 2  free  transition at x/c =  0.5958   57

   2   rms: 0.2669E-01   max: -.2154E+00   D at   57  2
       a = -2.000      CL =  0.1851
      Cm = -0.0881     CD =  0.00893   =>   CDf =  0.00550    CDp =  0.00343

 Side 1  free  transition at x/c =  0.7589   63
 Side 2  free  transition at x/c =  0.6058   57

   3   rms: 0.4026E-02   max: -.4718E-01   C at   57  2
       a = -2.000      CL =  0.1854
      Cm = -0.0882     CD =  0.00896   =>   CDf =  0.00545    CDp =  0.00351

 Side 1  free  transition at x/c =  0.7592   63
 Side 2  free  transition at x/c =  0.6052   57

   4   rms: 0.3408E-04   max: 0.4215E-03   C at   57  2
       a = -2.000      CL =  0.1854
      Cm = -0.0882     CD =  0.00896   =>   CDf =  0.00543    CDp =  0.00353
 plradd ia,ip,cpol            5           0  1.96839850E-02

 Point added to stored polar  1
 Point written to save file  hq3015_Re400k.base.pol                          
 Dump file unspecified or not available
 Calculating wake trajectory ...
 Calculating source influence matrix ...

 Solving BL system ...

 Side 1  free  transition at x/c =  0.7592   63
 Side 2  free  transition at x/c =  0.6052   57

   1   rms: 0.8211E-01   max: -.3498E+00   T at   57  2
       a = -1.500      CL =  0.2423
      Cm = -0.0882     CD =  0.00908   =>   CDf =  0.00543    CDp =  0.00365

 MRCHDU: Convergence failed at  60  side 2    Res =  0.1430E+01
 MRCHDU: Convergence failed at  61  side 2    Res =  0.3420E+01
 MRCHDU: Convergence failed at  62  side 2    Res =  0.1507E+03
 MRCHDU: Convergence failed at  63  side 2    Res =  0.8913E+01
 MRCHDU: Convergence failed at  64  side 2    Res =  0.6188E+01
 MRCHDU: Convergence failed at  65  side 2    Res =  0.5593E+01
 MRCHDU: Convergence failed at  66  side 2    Res =  0.5560E+01
 MRCHDU: Convergence failed at  67  side 2    Res =  0.5838E+01
 MRCHDU: Convergence failed at  68  side 2    Res =  0.6310E+01
 MRCHDU: Convergence failed at  69  side 2    Res =  0.6886E+01
 MRCHDU: Convergence failed at  70  side 2    Res =  0.7518E+01
 MRCHDU: Convergence failed at  71  side 2    Res =  0.8353E+01
 MRCHDU: Convergence failed at  72  side 2    Res =  0.9491E+01
 MRCHDU: Convergence failed at  73  side 2    Res =  0.9677E+01
 MRCHDU: Convergence failed at  74  side 2    Res =  0.9643E+01
 MRCHDU: Convergence failed at  75  side 2    Res =  0.1104E+02
 MRCHDU: Convergence failed at  76  side 2    Res =  0.1116E+02
 MRCHDU: Convergence failed at  77  side 2    Res =  0.1019E+02
 MRCHDU: Convergence failed at  78  side 2    Res =  0.1191E+02
 MRCHDU: Convergence failed at  79  side 2    Res =  0.1502E+02
 MRCHDU: Convergence failed at  80  side 2    Res =  0.1803E+02
 MRCHDU: Convergence failed at  81  side 2    Res =  0.2727E+02
 MRCHDU: Convergence failed at  82  side 2    Res =  0.1161E+03
 MRCHDU: Convergence failed at  83  side 2    Res =  0.1392E+02
 Side 1  free  transition at x/c =  0.7493   62
 Side 2  free  transition at x/c =  0.6386   59

   2   rms: 0.2238E+00   max: 0.8946E+00   T at   77  2
       a = -1.500      CL =  0.3031
      Cm = -0.0968     CD =  0.00791   =>   CDf =  0.00444    CDp =  0.00347

 Side 1  free  transition at x/c =  0.7524   64
 Side 2  free  transition at x/c =  0.6192   57
 idif Ue xi dudx           1  0.14155988      2.19309330E-03   64.548042    
 Uenew xinew           2  1.27424663E-02  1.97410583E-04

   3   rms: 0.7917E-01   max: -.6688E+00   D at   59  2   RLX: 0.748
       a = -1.500      CL =  0.2593
      Cm = -0.0909     CD =  0.00939   =>   CDf =  0.00571    CDp =  0.00368

 MRCHDU: Convergence failed at  60  side 2    Res =  0.2560E+01
 MRCHDU: Convergence failed at  61  side 2    Res =  0.1390E+01
 MRCHDU: Convergence failed at  62  side 2    Res =  0.1489E+01
 MRCHDU: Convergence failed at  63  side 2    Res =  0.2092E+01
 MRCHDU: Convergence failed at  64  side 2    Res =  0.2715E+01
 MRCHDU: Convergence failed at  65  side 2    Res =  0.3347E+01
 MRCHDU: Convergence failed at  66  side 2    Res =  0.3922E+01
 MRCHDU: Convergence failed at  67  side 2    Res =  0.4421E+01
 MRCHDU: Convergence failed at  68  side 2    Res =  0.4849E+01
 MRCHDU: Convergence failed at  69  side 2    Res =  0.5212E+01
 MRCHDU: Convergence failed at  70  side 2    Res =  0.5520E+01
 MRCHDU: Convergence failed at  71  side 2    Res =  0.5770E+01
 MRCHDU: Convergence failed at  72  side 2    Res =  0.5956E+01
 MRCHDU: Convergence failed at  73  side 2    Res =  0.6081E+01
 MRCHDU: Convergence failed at  74  side 2    Res =  0.6170E+01
 MRCHDU: Convergence failed at  75  side 2    Res =  0.6178E+01
 MRCHDU: Convergence failed at  76  side 2    Res =  0.6113E+01
 MRCHDU: Convergence failed at  77  side 2    Res =  0.6030E+01
 MRCHDU: Convergence failed at  78  side 2    Res =  0.5897E+01
 MRCHDU: Convergence failed at  79  side 2    Res =  0.5787E+01
 MRCHDU: Convergence failed at  80  side 2    Res =  0.5671E+01
 MRCHDU: Convergence failed at  81  side 2    Res =  0.5534E+01
 MRCHDU: Convergence failed at  82  side 2    Res =  0.5385E+01
 MRCHDU: Convergence failed at  83  side 2    Res =  0.5085E+01
 Side 1  free  transition at x/c =  0.7509   62
 Side 2  free  transition at x/c =  0.6361   59

   4   rms: 0.1929E+00   max: 0.8261E+00   T at   76  2
       a = -1.500      CL =  0.2846
      Cm = -0.0954     CD =  0.00789   =>   CDf =  0.00451    CDp =  0.00339

 Side 1  free  transition at x/c =  0.7513   63
 Side 2  free  transition at x/c =  0.6338   58
 idif Ue xi dudx           1  0.15827988      2.46131420E-03   64.307060    
 Uenew xinew           2  2.99433917E-02  4.65631485E-04

   5   rms: 0.4868E-01   max: 0.4146E+00   T at    2  1
       a = -1.500      CL =  0.2411
      Cm = -0.0878     CD =  0.00902   =>   CDf =  0.00551    CDp =  0.00352

 Side 1  free  transition at x/c =  0.7497   62
 Side 2  free  transition at x/c =  0.6321   59

   6   rms: 0.4141E-02   max: -.3230E-01   D at   62  2
       a = -1.500      CL =  0.2415
      Cm = -0.0879     CD =  0.00905   =>   CDf =  0.00546    CDp =  0.00360

 Side 1  free  transition at x/c =  0.7497   62
 Side 2  free  transition at x/c =  0.6315   59

   7   rms: 0.1337E-02   max: -.1503E-01   D at    4  2
       a = -1.500      CL =  0.2415
      Cm = -0.0879     CD =  0.00905   =>   CDf =  0.00546    CDp =  0.00359

 Side 1  free  transition at x/c =  0.7497   62
 Side 2  free  transition at x/c =  0.6315   59

   8   rms: 0.2981E-05   max: 0.3744E-04   D at    8  2
       a = -1.500      CL =  0.2415
      Cm = -0.0879     CD =  0.00905   =>   CDf =  0.00546    CDp =  0.00359
 plradd ia,ip,cpol            6           0  0.32974264    

 Point added to stored polar  1
 Point written to save file  hq3015_Re400k.base.pol                          
 Dump file unspecified or not available
 Calculating wake trajectory ...
 Calculating source influence matrix ...

 Solving BL system ...

 Side 1  free  transition at x/c =  0.7497   62
 Side 2  free  transition at x/c =  0.6315   59

   1   rms: 0.8896E-01   max: -.4994E+00   T at   59  2
       a = -1.000      CL =  0.2948
      Cm = -0.0871     CD =  0.00920   =>   CDf =  0.00546    CDp =  0.00374

 Side 1  free  transition at x/c =  0.7361   63
 Side 2  free  transition at x/c =  0.6449   59

   2   rms: 0.6628E-01   max: -.4726E+00   D at   58  2
       a = -1.000      CL =  0.2969
      Cm = -0.0877     CD =  0.00881   =>   CDf =  0.00570    CDp =  0.00310

 Side 1  free  transition at x/c =  0.7391   63
 Side 2  free  transition at x/c =  0.6569   60

   3   rms: 0.1586E-01   max: -.1874E+00   D at   59  2
       a = -1.000      CL =  0.2972
      Cm = -0.0876     CD =  0.00916   =>   CDf =  0.00554    CDp =  0.00362

 Side 1  free  transition at x/c =  0.7388   63
 Side 2  free  transition at x/c =  0.6556   59

   4   rms: 0.2781E-02   max: 0.4939E-01   D at   60  2
       a = -1.000      CL =  0.2971
      Cm = -0.0875     CD =  0.00915   =>   CDf =  0.00551    CDp =  0.00364

 Side 1  free  transition at x/c =  0.7388   63
 Side 2  free  transition at x/c =  0.6548   59

   5   rms: 0.6253E-04   max: 0.7417E-03   D at   61  2
       a = -1.000      CL =  0.2971
      Cm = -0.0875     CD =  0.00915   =>   CDf =  0.00550    CDp =  0.00364
 plradd ia,ip,cpol            7           0  0.20670854    

 Point added to stored polar  1
 Point written to save file  hq3015_Re400k.base.pol                          
 Dump file unspecified or not available
 Calculating wake trajectory ...
 Calculating source influence matrix ...

 Solving BL system ...

 Side 1  free  transition at x/c =  0.7388   63
 Side 2  free  transition at x/c =  0.6548   59

   1   rms: 0.8085E-01   max: -.3345E+00   T at   59  2
       a = -0.500      CL =  0.3550
      Cm = -0.0878     CD =  0.00925   =>   CDf =  0.00549    CDp =  0.00376

 Side 1  free  transition at x/c =  0.7270   63
 Side 2  free  transition at x/c =  0.6734   60

   2   rms: 0.1702E-01   max: -.1769E+00   D at   63  1
       a = -0.500      CL =  0.3527
      Cm = -0.0873     CD =  0.00919   =>   CDf =  0.00556    CDp =  0.00363

 Side 1  free  transition at x/c =  0.7259   63
 Side 2  free  transition at x/c =  0.6703   59

   3   rms: 0.3438E-02   max: 0.5681E-01   D at   60  2
       a = -0.500      CL =  0.3524
      Cm = -0.0872     CD =  0.00915   =>   CDf =  0.00554    CDp =  0.00361

 Side 1  free  transition at x/c =  0.7259   63
 Side 2  free  transition at x/c =  0.6693   59

   4   rms: 0.1324E-03   max: 0.1613E-02   D at   61  2
       a = -0.500      CL =  0.3524
      Cm = -0.0872     CD =  0.00915   =>   CDf =  0.00553    CDp =  0.00362

 Side 1  free  transition at x/c =  0.7259   63
 Side 2  free  transition at x/c =  0.6693   59

   5   rms: 0.1261E-05   max: 0.1047E-04   D at    4  1
       a = -0.500      CL =  0.3524
      Cm = -0.0872     CD =  0.00915   =>   CDf =  0.00553    CDp =  0.00362
 plradd ia,ip,cpol            8           0  0.20670854    

 Point added to stored polar  1
 Point written to save file  hq3015_Re400k.base.pol                          
 Dump file unspecified or not available
 Calculating wake trajectory ...
 Calculating source influence matrix ...

 Solving BL system ...

 Side 1  free  transition at x/c =  0.7259   63
 Side 2  free  transition at x/c =  0.6693   59

   1   rms: 0.7934E-01   max: -.2986E+00   T at   59  2
       a =  0.000      CL =  0.4089
      Cm = -0.0871     CD =  0.00917   =>   CDf =  0.00550    CDp =  0.00366

 Side 1  free  transition at x/c =  0.7126   63
 Side 2  free  transition at x/c =  0.6861   59

   2   rms: 0.1567E-01   max: -.1613E+00   C at   59  2
       a =  0.000      CL =  0.4077
      Cm = -0.0868     CD =  0.00914   =>   CDf =  0.00563    CDp =  0.00352

 Side 1  free  transition at x/c =  0.7121   63
 Side 2  free  transition at x/c =  0.6832   59

   3   rms: 0.1226E-02   max: 0.1041E-01   D at   60  2
       a =  0.000      CL =  0.4076
      Cm = -0.0868     CD =  0.00915   =>   CDf =  0.00556    CDp =  0.00358

 Side 1  free  transition at x/c =  0.7120   63
 Side 2  free  transition at x/c =  0.6832   59

   4   rms: 0.4156E-05   max: 0.5851E-04   D at   60  2
       a =  0.000      CL =  0.4076
      Cm = -0.0868     CD =  0.00915   =>   CDf =  0.00556    CDp =  0.00358
 plradd ia,ip,cpol            9           0  0.19188905    

 Point added to stored polar  1
 Point written to save file  hq3015_Re400k.base.pol                          
 Dump file unspecified or not available
 Calculating wake trajectory ...
 Calculating source influence matrix ...

 Solving BL system ...

 Side 1  free  transition at x/c =  0.7120   63
 Side 2  free  transition at x/c =  0.6832   59

   1   rms: 0.7853E-01   max: -.3184E+00   T at   59  2
       a =  0.500      CL =  0.4629
      Cm = -0.0865     CD =  0.00918   =>   CDf =  0.00556    CDp =  0.00361

 Side 1  free  transition at x/c =  0.6998   62
 Side 2  free  transition at x/c =  0.6998   60

   2   rms: 0.1481E-01   max: 0.1733E+00   D at   60  2
       a =  0.500      CL =  0.4629
      Cm = -0.0865     CD =  0.00918   =>   CDf =  0.00558    CDp =  0.00359

 Side 1  free  transition at x/c =  0.6992   62
 Side 2  free  transition at x/c =  0.6991   60

   3   rms: 0.1493E-02   max: 0.1982E-01   D at   61  2
       a =  0.500      CL =  0.4629
      Cm = -0.0865     CD =  0.00918   =>   CDf =  0.00558    CDp =  0.00361

 Side 1  free  transition at x/c =  0.6992   62
 Side 2  free  transition at x/c =  0.6986   60

   4   rms: 0.1506E-04   max: -.1758E-03   D at   60  2
       a =  0.500      CL =  0.4629
      Cm = -0.0865     CD =  0.00918   =>   CDf =  0.00558    CDp =  0.00360
 plradd ia,ip,cpol           10           0  0.19188905    

 Point added to stored polar  1
 Point written to save file  hq3015_Re400k.base.pol                          
 Dump file unspecified or not available
 Calculating wake trajectory ...
 Calculating source influence matrix ...

 Solving BL system ...

 Side 1  free  transition at x/c =  0.6992   62
 Side 2  free  transition at x/c =  0.6986   60

   1   rms: 0.7642E-01   max: -.2933E+00   T at   60  2
       a =  1.000      CL =  0.5175
      Cm = -0.0861     CD =  0.00923   =>   CDf =  0.00553    CDp =  0.00370

 Side 1  free  transition at x/c =  0.6847   62
 Side 2  free  transition at x/c =  0.7097   60

   2   rms: 0.1481E-01   max: -.1394E+00   D at   63  1
       a =  1.000      CL =  0.5186
      Cm = -0.0863     CD =  0.00921   =>   CDf =  0.00567    CDp =  0.00353

 Side 1  free  transition at x/c =  0.6870   62
 Side 2  free  transition at x/c =  0.7109   60

   3   rms: 0.9216E-03   max: 0.1246E-01   D at   63  1
       a =  1.000      CL =  0.5185
      Cm = -0.0863     CD =  0.00922   =>   CDf =  0.00562    CDp =  0.00360

 Side 1  free  transition at x/c =  0.6866   62
 Side 2  free  transition at x/c =  0.7109   60

   4   rms: 0.5543E-05   max: -.4609E-04   D at   63  1
       a =  1.000      CL =  0.5185
      Cm = -0.0863     CD =  0.00922   =>   CDf =  0.00562    CDp =  0.00360
 plradd ia,ip,cpol           11           0  0.13427268    

 Point added to stored polar  1
 Point written to save file  hq3015_Re400k.base.pol                          
 Dump file unspecified or not available
 Calculating wake trajectory ...
 Calculating source influence matrix ...

 Solving BL system ...

 Side 1  free  transition at x/c =  0.6866   62
 Side 2  free  transition at x/c =  0.7109   60

   1   rms: 0.7557E-01   max: -.2623E+00   T at   60  2
       a =  1.500      CL =  0.5715
      Cm = -0.0857     CD =  0.00921   =>   CDf =  0.00555    CDp =  0.00367

 Side 1  free  transition at x/c =  0.6695   62
 Side 2  free  transition at x/c =  0.7206   59

   2   rms: 0.2382E-01   max: -.2342E+00   D at   63  1
       a =  1.500      CL =  0.5743
      Cm = -0.0862     CD =  0.00932   =>   CDf =  0.00575    CDp =  0.00356

 Side 1  free  transition at x/c =  0.6732   63
 Side 2  free  transition at x/c =  0.7246   60

   3   rms: 0.8447E-02   max: 0.1454E+00   D at   60  2
       a =  1.500      CL =  0.5740
      Cm = -0.0861     CD =  0.00926   =>   CDf =  0.00569    CDp =  0.00357

 Side 1  free  transition at x/c =  0.6731   63
 Side 2  free  transition at x/c =  0.7230   60

   4   rms: 0.8414E-03   max: 0.1083E-01   D at   60  2
       a =  1.500      CL =  0.5740
      Cm = -0.0861     CD =  0.00926   =>   CDf =  0.00566    CDp =  0.00360

 Side 1  free  transition at x/c =  0.6731   62
 Side 2  free  transition at x/c =  0.7228   60

   5   rms: 0.2418E-04   max: 0.4031E-03   D at   63  1
       a =  1.500      CL =  0.5740
      Cm = -0.0861     CD =  0.00926   =>   CDf =  0.00566    CDp =  0.00360
 plradd ia,ip,cpol           12           0  0.12060077    

 Point added to stored polar  1
 Point written to save file  hq3015_Re400k.base.pol                          
 Dump file unspecified or not available
 Calculating wake trajectory ...
 Calculating source influence matrix ...

 Solving BL system ...

 Side 1  free  transition at x/c =  0.6731   62
 Side 2  free  transition at x/c =  0.7228   60

   1   rms: 0.7714E-01   max: -.2976E+00   T at   60  2
       a =  2.000      CL =  0.6248
      Cm = -0.0851     CD =  0.00918   =>   CDf =  0.00558    CDp =  0.00360

 Side 1  free  transition at x/c =  0.6526   62
 Side 2  free  transition at x/c =  0.7327   59

   2   rms: 0.2589E-01   max: -.2634E+00   D at   63  1
       a =  2.000      CL =  0.6281
      Cm = -0.0857     CD =  0.00932   =>   CDf =  0.00574    CDp =  0.00358

 Side 1  free  transition at x/c =  0.6579   63
 Side 2  free  transition at x/c =  0.7353   59

   3   rms: 0.2814E-02   max: -.3969E-01   D at   62  1
       a =  2.000      CL =  0.6282
      Cm = -0.0857     CD =  0.00930   =>   CDf =  0.00568    CDp =  0.00362

 Side 1  free  transition at x/c =  0.6575   63
 Side 2  free  transition at x/c =  0.7347   59

   4   rms: 0.2000E-03   max: 0.2249E-02   D at   63  1
       a =  2.000      CL =  0.6282
      Cm = -0.0857     CD =  0.00930   =>   CDf =  0.00566    CDp =  0.00364

 Side 1  free  transition at x/c =  0.6575   63
 Side 2  free  transition at x/c =  0.7348   59

   5   rms: 0.2851E-05   max: 0.2581E-04   D at    4  1
       a =  2.000      CL =  0.6282
      Cm = -0.0857     CD =  0.00930   =>   CDf =  0.00566    CDp =  0.00364
 plradd ia,ip,cpol           13           0  0.12060077    

 Point added to stored polar  1
 Point written to save file  hq3015_Re400k.base.pol                          
 Dump file unspecified or not available
 Calculating wake trajectory ...
 Calculating source influence matrix ...

 Solving BL system ...

 Side 1  free  transition at x/c =  0.6575   63
 Side 2  free  transition at x/c =  0.7348   59

   1   rms: 0.8288E-01   max: -.2566E+00   T at   59  2
       a =  2.500      CL =  0.6859
      Cm = -0.0860     CD =  0.00954   =>   CDf =  0.00566    CDp =  0.00388

 Side 1  free  transition at x/c =  0.6398   61
 Side 2  free  transition at x/c =  0.7505   60

   2   rms: 0.2903E-01   max: -.3314E+00   D at   62  1
       a =  2.500      CL =  0.6811
      Cm = -0.0850     CD =  0.00926   =>   CDf =  0.00565    CDp =  0.00362

 Side 1  free  transition at x/c =  0.6399   61
 Side 2  free  transition at x/c =  0.7471   60

   3   rms: 0.3288E-02   max: 0.4320E-01   D at   62  1
       a =  2.500      CL =  0.6808
      Cm = -0.0850     CD =  0.00933   =>   CDf =  0.00562    CDp =  0.00371

 Side 1  free  transition at x/c =  0.6384   61
 Side 2  free  transition at x/c =  0.7471   60

   4   rms: 0.8830E-04   max: -.1049E-02   C at   61  1
       a =  2.500      CL =  0.6808
      Cm = -0.0849     CD =  0.00933   =>   CDf =  0.00562    CDp =  0.00371
 plradd ia,ip,cpol           14           0  0.10732026    

 Point added to stored polar  1
 Point written to save file  hq3015_Re400k.base.pol                          
 Dump file unspecified or not available
 Calculating wake trajectory ...
 Calculating source influence matrix ...

 Solving BL system ...

 Side 1  free  transition at x/c =  0.6384   61
 Side 2  free  transition at x/c =  0.7471   60

   1   rms: 0.7608E-01   max: -.2488E+00   T at   60  2
       a =  3.000      CL =  0.7324
      Cm = -0.0841     CD =  0.00934   =>   CDf =  0.00551    CDp =  0.00384

 Side 1  free  transition at x/c =  0.6162   61
 Side 2  free  transition at x/c =  0.7606   60

   2   rms: 0.1528E-01   max: -.1829E+00   D at   61  1
       a =  3.000      CL =  0.7332
      Cm = -0.0842     CD =  0.00936   =>   CDf =  0.00567    CDp =  0.00369

 Side 1  free  transition at x/c =  0.6202   61
 Side 2  free  transition at x/c =  0.7600   60

   3   rms: 0.2415E-02   max: 0.2721E-01   C at   61  1
       a =  3.000      CL =  0.7333
      Cm = -0.0842     CD =  0.00939   =>   CDf =  0.00558    CDp =  0.00381

 Side 1  free  transition at x/c =  0.6191   61
 Side 2  free  transition at x/c =  0.7599   60

   4   rms: 0.5457E-04   max: -.6027E-03   D at   61  1
       a =  3.000      CL =  0.7333
      Cm = -0.0842     CD =  0.00939   =>   CDf =  0.00559    CDp =  0.00380
 plradd ia,ip,cpol           15           0  9.45111364E-02

 Point added to stored polar  1
 Point written to save file  hq3015_Re400k.base.pol                          
 Dump file unspecified or not available
 Calculating wake trajectory ...
 Calculating source influence matrix ...

 Solving BL system ...

 Side 1  free  transition at x/c =  0.6191   61
 Side 2  free  transition at x/c =  0.7599   60

   1   rms: 0.7647E-01   max: -.2635E+00   T at   60  2
       a =  3.500      CL =  0.7851
      Cm = -0.0834     CD =  0.00944   =>   CDf =  0.00546    CDp =  0.00399

 Side 1  free  transition at x/c =  0.5950   61
 Side 2  free  transition at x/c =  0.7729   60

   2   rms: 0.2023E-01   max: -.3023E+00   D at   61  1
       a =  3.500      CL =  0.7847
      Cm = -0.0833     CD =  0.00945   =>   CDf =  0.00567    CDp =  0.00378

 Side 1  free  transition at x/c =  0.5999   61
 Side 2  free  transition at x/c =  0.7740   60

   3   rms: 0.6609E-02   max: 0.9421E-01   C at   61  1
       a =  3.500      CL =  0.7849
      Cm = -0.0833     CD =  0.00948   =>   CDf =  0.00554    CDp =  0.00394

 Side 1  free  transition at x/c =  0.5977   61
 Side 2  free  transition at x/c =  0.7739   60

   4   rms: 0.3369E-03   max: -.5726E-02   D at   63  1
       a =  3.500      CL =  0.7849
      Cm = -0.0833     CD =  0.00949   =>   CDf =  0.00558    CDp =  0.00390

 Side 1  free  transition at x/c =  0.5976   61
 Side 2  free  transition at x/c =  0.7739   60

   5   rms: 0.2339E-05   max: -.1721E-04   D at   63  1
       a =  3.500      CL =  0.7849
      Cm = -0.0833     CD =  0.00949   =>   CDf =  0.00558    CDp =  0.00390
 plradd ia,ip,cpol           16           0  8.23227316E-02

 Point added to stored polar  1
 Point written to save file  hq3015_Re400k.base.pol                          
 Dump file unspecified or not available
 Calculating wake trajectory ...
 Calculating source influence matrix ...

 Solving BL system ...

 Side 1  free  transition at x/c =  0.5976   61
 Side 2  free  transition at x/c =  0.7739   60

   1   rms: 0.8035E-01   max: -.2930E+00   T at   60  2
       a =  4.000      CL =  0.8354
      Cm = -0.0822     CD =  0.00964   =>   CDf =  0.00559    CDp =  0.00405

 Side 1  free  transition at x/c =  0.5736   59
 Side 2  free  transition at x/c =  0.7851   61

   2   rms: 0.2940E-01   max: -.2259E+00   T at   61  2
       a =  4.000      CL =  0.8350
      Cm = -0.0822     CD =  0.00954   =>   CDf =  0.00566    CDp =  0.00388

 Side 1  free  transition at x/c =  0.5729   59
 Side 2  free  transition at x/c =  0.7900   61

   3   rms: 0.3532E-02   max: -.5318E-01   D at   63  2
       a =  4.000      CL =  0.8350
      Cm = -0.0822     CD =  0.00962   =>   CDf =  0.00556    CDp =  0.00406

 Side 1  free  transition at x/c =  0.5727   59
 Side 2  free  transition at x/c =  0.7885   61

   4   rms: 0.2433E-03   max: -.3508E-02   D at   61  2
       a =  4.000      CL =  0.8350
      Cm = -0.0822     CD =  0.00962   =>   CDf =  0.00557    CDp =  0.00405

 Side 1  free  transition at x/c =  0.5727   59
 Side 2  free  transition at x/c =  0.7886   61

   5   rms: 0.9932E-06   max: 0.7341E-05   D at    4  2
       a =  4.000      CL =  0.8350
      Cm = -0.0822     CD =  0.00962   =>   CDf =  0.00557    CDp =  0.00405
 plradd ia,ip,cpol           17           0  8.23227316E-02

 Point added to stored polar  1
 Point written to save file  hq3015_Re400k.base.pol                          
 Dump file unspecified or not available
 Calculating wake trajectory ...
 Calculating source influence matrix ...

 Solving BL system ...

 Side 1  free  transition at x/c =  0.5727   59
 Side 2  free  transition at x/c =  0.7886   61

   1   rms: 0.7843E-01   max: -.2956E+00   T at   61  2
       a =  4.500      CL =  0.8834
      Cm = -0.0807     CD =  0.00973   =>   CDf =  0.00541    CDp =  0.00432

 Side 1  free  transition at x/c =  0.5390   58
 Side 2  free  transition at x/c =  0.8012   61

   2   rms: 0.2823E-01   max: -.2116E+00   D at   61  2
       a =  4.500      CL =  0.8828
      Cm = -0.0806     CD =  0.00977   =>   CDf =  0.00571    CDp =  0.00406

 Side 1  free  transition at x/c =  0.5437   58
 Side 2  free  transition at x/c =  0.8061   61

   3   rms: 0.3944E-02   max: -.5081E-01   D at   63  2
       a =  4.500      CL =  0.8827
      Cm = -0.0806     CD =  0.00982   =>   CDf =  0.00556    CDp =  0.00426

 Side 1  free  transition at x/c =  0.5424   58
 Side 2  free  transition at x/c =  0.8047   61

   4   rms: 0.1654E-03   max: -.1924E-02   D at   61  2
       a =  4.500      CL =  0.8827
      Cm = -0.0806     CD =  0.00982   =>   CDf =  0.00558    CDp =  0.00424

 Side 1  free  transition at x/c =  0.5424   58
 Side 2  free  transition at x/c =  0.8047   61

   5   rms: 0.6420E-06   max: -.4843E-05   C at   58  1
       a =  4.500      CL =  0.8827
      Cm = -0.0806     CD =  0.00982   =>   CDf =  0.00558    CDp =  0.00424
 plradd ia,ip,cpol           18           0  7.08358139E-02

 Point added to stored polar  1
 Point written to save file  hq3015_Re400k.base.pol                          
 Dump file unspecified or not available
 Calculating wake trajectory ...
 Calculating source influence matrix ...

 Solving BL system ...

 Side 1  free  transition at x/c =  0.5424   58
 Side 2  free  transition at x/c =  0.8047   61

   1   rms: 0.7967E-01   max: 0.3792E+00   C at   58  1
       a =  5.000      CL =  0.9290
      Cm = -0.0787     CD =  0.00999   =>   CDf =  0.00540    CDp =  0.00459

 Side 1  free  transition at x/c =  0.5024   57
 Side 2  free  transition at x/c =  0.8177   61

   2   rms: 0.3208E-01   max: 0.2524E+00   D at   58  1
       a =  5.000      CL =  0.9274
      Cm = -0.0785     CD =  0.01006   =>   CDf =  0.00577    CDp =  0.00429

 Side 1  free  transition at x/c =  0.5088   57
 Side 2  free  transition at x/c =  0.8242   61

   3   rms: 0.5664E-02   max: 0.8042E-01   C at   57  1
       a =  5.000      CL =  0.9275
      Cm = -0.0785     CD =  0.01010   =>   CDf =  0.00558    CDp =  0.00452

 Side 1  free  transition at x/c =  0.5064   57
 Side 2  free  transition at x/c =  0.8224   61

   4   rms: 0.3822E-03   max: -.4491E-02   C at   61  2
       a =  5.000      CL =  0.9275
      Cm = -0.0785     CD =  0.01011   =>   CDf =  0.00561    CDp =  0.00450

 Side 1  free  transition at x/c =  0.5064   57
 Side 2  free  transition at x/c =  0.8225   61

   5   rms: 0.1931E-05   max: -.2024E-04   D at   63  2
       a =  5.000      CL =  0.9275
      Cm = -0.0785     CD =  0.01011   =>   CDf =  0.00561    CDp =  0.00450
 plradd ia,ip,cpol           19           0  7.08358139E-02

 Point added to stored polar  1
 Point written to save file  hq3015_Re400k.base.pol                          
 Dump file unspecified or not available
 Calculating wake trajectory ...
 Calculating source influence matrix ...

 Solving BL system ...

 Side 1  free  transition at x/c =  0.5064   57
 Side 2  free  transition at x/c =  0.8225   61

   1   rms: 0.8679E-01   max: 0.7329E+00   C at   57  1
       a =  5.500      CL =  0.9690
      Cm = -0.0758     CD =  0.01050   =>   CDf =  0.00562    CDp =  0.00489

 Side 1  free  transition at x/c =  0.4634   54
 Side 2  free  transition at x/c =  0.8408   62

   2   rms: 0.1915E-01   max: 0.2426E+00   D at   56  1
       a =  5.500      CL =  0.9682
      Cm = -0.0757     CD =  0.01050   =>   CDf =  0.00575    CDp =  0.00475

 Side 1  free  transition at x/c =  0.4665   54
 Side 2  free  transition at x/c =  0.8444   62

   3   rms: 0.2656E-02   max: -.4458E-01   D at   56  1
       a =  5.500      CL =  0.9684
      Cm = -0.0758     CD =  0.01052   =>   CDf =  0.00568    CDp =  0.00484

 Side 1  free  transition at x/c =  0.4653   54
 Side 2  free  transition at x/c =  0.8444   62

   4   rms: 0.5773E-04   max: -.1210E-02   D at   56  1
       a =  5.500      CL =  0.9684
      Cm = -0.0758     CD =  0.01052   =>   CDf =  0.00569    CDp =  0.00483
 plradd ia,ip,cpol           20           0  6.01042882E-02

 Point added to stored polar  1
 Point written to save file  hq3015_Re400k.base.pol                          
 Dump file unspecified or not available
 Calculating wake trajectory ...
 Calculating source influence matrix ...

 Solving BL system ...

 Side 1  free  transition at x/c =  0.4653   54
 Side 2  free  transition at x/c =  0.8444   62

   1   rms: 0.8410E-01   max: 0.7363E+00   C at   54  1
       a =  6.000      CL =  1.0103
      Cm = -0.0733     CD =  0.01095   =>   CDf =  0.00548    CDp =  0.00547

 Side 1  free  transition at x/c =  0.4187   52
 Side 2  free  transition at x/c =  0.8701   63

   2   rms: 0.2067E-01   max: 0.2211E+00   D at   54  1
       a =  6.000      CL =  1.0036
      Cm = -0.0720     CD =  0.01100   =>   CDf =  0.00583    CDp =  0.00517

 Side 1  free  transition at x/c =  0.4233   52
 Side 2  free  transition at x/c =  0.8737   63

   3   rms: 0.4713E-02   max: -.8294E-01   C at   52  1
       a =  6.000      CL =  1.0040
      Cm = -0.0721     CD =  0.01101   =>   CDf =  0.00576    CDp =  0.00525

 Side 1  free  transition at x/c =  0.4231   52
 Side 2  free  transition at x/c =  0.8736   63

   4   rms: 0.9566E-04   max: 0.1670E-02   C at   52  1
       a =  6.000      CL =  1.0040
      Cm = -0.0721     CD =  0.01101   =>   CDf =  0.00574    CDp =  0.00527
 plradd ia,ip,cpol           21           0  5.03222868E-02

 Point added to stored polar  1
 Point written to save file  hq3015_Re400k.base.pol                          
 Dump file unspecified or not available
 Calculating wake trajectory ...
 Calculating source influence matrix ...

 Solving BL system ...

 Side 1  free  transition at x/c =  0.4231   52
 Side 2  free  transition at x/c =  0.8736   63

   1   rms: 0.8675E-01   max: -.7907E+00   C at   63  2   RLX: 0.632
       a =  6.500      CL =  1.0297
      Cm = -0.0703     CD =  0.01117   =>   CDf =  0.00574    CDp =  0.00543

 Side 1  free  transition at x/c =  0.3899   50
 Side 2  free  transition at x/c =  0.8946   65

   2   rms: 0.5749E-01   max: -.9415E+00   C at   65  2   RLX: 0.531
       a =  6.500      CL =  1.0335
      Cm = -0.0693     CD =  0.01133   =>   CDf =  0.00588    CDp =  0.00545

 Side 1  free  transition at x/c =  0.3844   50
 Side 2  free  transition at x/c =  0.9093   66

   3   rms: 0.5994E-01   max: -.1106E+01   C at   66  2   RLX: 0.452
       a =  6.500      CL =  1.0357
      Cm = -0.0689     CD =  0.01141   =>   CDf =  0.00581    CDp =  0.00561

 Side 1  free  transition at x/c =  0.3820   50
 Side 2  free  transition at x/c =  0.9244   67

   4   rms: 0.6930E-01   max: -.1275E+01   C at   67  2   RLX: 0.392
       a =  6.500      CL =  1.0399
      Cm = -0.0694     CD =  0.01146   =>   CDf =  0.00575    CDp =  0.00572

 Side 1  free  transition at x/c =  0.3800   50
 Side 2  free  transition at x/c =  0.9412   68

   5   rms: 0.6549E-01   max: -.1075E+01   C at   68  2   RLX: 0.465
       a =  6.500      CL =  1.0474
      Cm = -0.0707     CD =  0.01153   =>   CDf =  0.00571    CDp =  0.00581

 Side 1  free  transition at x/c =  0.3774   50
 Side 2  free  transition at x/c =  0.9556   69

   6   rms: 0.6181E-01   max: -.9937E+00   C at   69  2   RLX: 0.503
       a =  6.500      CL =  1.0520
      Cm = -0.0715     CD =  0.01158   =>   CDf =  0.00572    CDp =  0.00586

 Side 1  free  transition at x/c =  0.3760   49
 Side 2  free  transition at x/c =  0.9675   69

   7   rms: 0.7856E-01   max: -.1195E+01   C at   69  2   RLX: 0.419
       a =  6.500      CL =  1.0538
      Cm = -0.0718     CD =  0.01158   =>   CDf =  0.00573    CDp =  0.00586

 Side 1  free  transition at x/c =  0.3754   49
 Side 2  free  transition at x/c =  0.9792   70

   8   rms: 0.1481E+00   max: -.2438E+01   C at   70  2   RLX: 0.205
       a =  6.500      CL =  1.0540
      Cm = -0.0718     CD =  0.01158   =>   CDf =  0.00573    CDp =  0.00586

 Side 1  free  transition at x/c =  0.3753   49
 Side 2  free  transition at x/c =  0.9898   71

   9   rms: 0.1276E+00   max: -.2477E+01   C at   71  2   RLX: 0.202
       a =  6.500      CL =  1.0541
      Cm = -0.0718     CD =  0.01158   =>   CDf =  0.00572    CDp =  0.00586

 Side 1  free  transition at x/c =  0.3752   49
 Side 2 forced transition at x/c =  1.0000   72

  10   rms: 0.3161E-02   max: -.2659E-01   D at   66  2
       a =  6.500      CL =  1.0523
      Cm = -0.0713     CD =  0.01159   =>   CDf =  0.00572    CDp =  0.00586

 Side 1  free  transition at x/c =  0.3755   49
 Side 2 forced transition at x/c =  1.0000   72

  11   rms: 0.4966E-04   max: 0.4912E-03   D at   65  2
       a =  6.500      CL =  1.0523
      Cm = -0.0713     CD =  0.01158   =>   CDf =  0.00573    CDp =  0.00586
 plradd ia,ip,cpol           22           0  4.16904725E-02

 Point added to stored polar  1
 Point written to save file  hq3015_Re400k.base.pol                          
 Dump file unspecified or not available
 Calculating wake trajectory ...
 Calculating source influence matrix ...

 Solving BL system ...

 Side 1  free  transition at x/c =  0.3755   49
 Side 2 forced transition at x/c =  1.0000   72

   1   rms: 0.8847E-01   max: 0.6065E+00   C at   49  1
       a =  7.000      CL =  1.0984
      Cm = -0.0702     CD =  0.01218   =>   CDf =  0.00554    CDp =  0.00664

 Side 1  free  transition at x/c =  0.3287   47
 Side 2 forced transition at x/c =  1.0000   71

   2   rms: 0.2323E-01   max: -.2692E+00   D at   48  1
       a =  7.000      CL =  1.0855
      Cm = -0.0680     CD =  0.01256   =>   CDf =  0.00603    CDp =  0.00653

 Side 1  free  transition at x/c =  0.3360   48
 Side 2 forced transition at x/c =  1.0000   71

   3   rms: 0.3617E-02   max: -.4991E-01   D at   47  1
       a =  7.000      CL =  1.0882
      Cm = -0.0684     CD =  0.01244   =>   CDf =  0.00593    CDp =  0.00651

 Side 1  free  transition at x/c =  0.3350   48
 Side 2 forced transition at x/c =  1.0000   71

   4   rms: 0.2751E-03   max: 0.4697E-02   C at   48  1
       a =  7.000      CL =  1.0881
      Cm = -0.0684     CD =  0.01244   =>   CDf =  0.00592    CDp =  0.00652

 Side 1  free  transition at x/c =  0.3349   48
 Side 2 forced transition at x/c =  1.0000   71

   5   rms: 0.4436E-05   max: -.2478E-04   C at   48  1
       a =  7.000      CL =  1.0881
      Cm = -0.0684     CD =  0.01244   =>   CDf =  0.00592    CDp =  0.00652
 plradd ia,ip,cpol           23           0  2.79008020E-02

 Point added to stored polar  1
 Point written to save file  hq3015_Re400k.base.pol                          
 Dump file unspecified or not available
 Calculating wake trajectory ...
 Calculating source influence matrix ...

 Solving BL system ...

 Side 1  free  transition at x/c =  0.3349   48
 Side 2 forced transition at x/c =  1.0000   71

   1   rms: 0.9198E-01   max: 0.9387E+00   C at   48  1
       a =  7.500      CL =  1.1178
      Cm = -0.0643     CD =  0.01341   =>   CDf =  0.00592    CDp =  0.00748

 Side 1  free  transition at x/c =  0.3021   46
 Side 2 forced transition at x/c =  1.0000   71

   2   rms: 0.1724E-01   max: 0.2281E+00   D at   47  1
       a =  7.500      CL =  1.1168
      Cm = -0.0640     CD =  0.01336   =>   CDf =  0.00613    CDp =  0.00723

 Side 1  free  transition at x/c =  0.3038   46
 Side 2 forced transition at x/c =  1.0000   71

   3   rms: 0.2319E-02   max: -.3658E-01   D at   47  1
       a =  7.500      CL =  1.1170
      Cm = -0.0641     CD =  0.01336   =>   CDf =  0.00608    CDp =  0.00727

 Side 1  free  transition at x/c =  0.3029   46
 Side 2 forced transition at x/c =  1.0000   71

   4   rms: 0.6648E-04   max: -.8220E-03   D at   47  1
       a =  7.500      CL =  1.1169
      Cm = -0.0641     CD =  0.01336   =>   CDf =  0.00609    CDp =  0.00726
 plradd ia,ip,cpol           24           0  2.25885324E-02

 Point added to stored polar  1
 Point written to save file  hq3015_Re400k.base.pol                          
 Dump file unspecified or not available
 Calculating wake trajectory ...
 Calculating source influence matrix ...

 Solving BL system ...

 Side 1  free  transition at x/c =  0.3029   46
 Side 2 forced transition at x/c =  1.0000   71

   1   rms: 0.8459E-01   max: 0.7043E+00   C at   46  1
       a =  8.000      CL =  1.1432
      Cm = -0.0594     CD =  0.01445   =>   CDf =  0.00588    CDp =  0.00858

 Side 1  free  transition at x/c =  0.2773   45
 Side 2 forced transition at x/c =  1.0000   70

   2   rms: 0.1601E-01   max: 0.2300E+00   D at   46  1
       a =  8.000      CL =  1.1458
      Cm = -0.0600     CD =  0.01435   =>   CDf =  0.00623    CDp =  0.00812

 Side 1  free  transition at x/c =  0.2774   45
 Side 2 forced transition at x/c =  1.0000   70

   3   rms: 0.1798E-02   max: 0.2988E-01   C at   45  1
       a =  8.000      CL =  1.1463
      Cm = -0.0600     CD =  0.01432   =>   CDf =  0.00619    CDp =  0.00814

 Side 1  free  transition at x/c =  0.2767   45
 Side 2 forced transition at x/c =  1.0000   70

   4   rms: 0.4256E-04   max: -.2931E-03   D at   46  1
       a =  8.000      CL =  1.1463
      Cm = -0.0600     CD =  0.01432   =>   CDf =  0.00620    CDp =  0.00813
 plradd ia,ip,cpol           25           0  1.81928556E-02

 Point added to stored polar  1
 Point written to save file  hq3015_Re400k.base.pol                          
 Dump file unspecified or not available
 Calculating wake trajectory ...
 Calculating source influence matrix ...

 Solving BL system ...

 Side 1  free  transition at x/c =  0.2767   45
 Side 2 forced transition at x/c =  1.0000   70

   1   rms: 0.7663E-01   max: 0.4983E+00   C at   45  1
       a =  8.500      CL =  1.1784
      Cm = -0.0566     CD =  0.01528   =>   CDf =  0.00620    CDp =  0.00908

 Side 1  free  transition at x/c =  0.2526   44
 Side 2 forced transition at x/c =  1.0000   70

   2   rms: 0.9304E-02   max: 0.1632E+00   D at   44  1
       a =  8.500      CL =  1.1747
      Cm = -0.0561     CD =  0.01540   =>   CDf =  0.00634    CDp =  0.00906

 Side 1  free  transition at x/c =  0.2540   44
 Side 2 forced transition at x/c =  1.0000   70

   3   rms: 0.1392E-02   max: 0.1669E-01   C at   44  1
       a =  8.500      CL =  1.1748
      Cm = -0.0561     CD =  0.01539   =>   CDf =  0.00628    CDp =  0.00911

 Side 1  free  transition at x/c =  0.2535   44
 Side 2 forced transition at x/c =  1.0000   70

   4   rms: 0.5987E-04   max: 0.2936E-03   D at   87  1
       a =  8.500      CL =  1.1748
      Cm = -0.0561     CD =  0.01539   =>   CDf =  0.00629    CDp =  0.00910
 plradd ia,ip,cpol           26           0  1.81928556E-02

 Point added to stored polar  1
 Point written to save file  hq3015_Re400k.base.pol                          
 Dump file unspecified or not available
 Calculating wake trajectory ...
 Calculating source influence matrix ...

 Solving BL system ...

 Side 1  free  transition at x/c =  0.2535   44
 Side 2 forced transition at x/c =  1.0000   70

   1   rms: 0.8022E-01   max: -.4444E+00   D at   44  1
       a =  9.000      CL =  1.1980
      Cm = -0.0516     CD =  0.01682   =>   CDf =  0.00605    CDp =  0.01077

 Side 1  free  transition at x/c =  0.2329   43
 Side 2 forced transition at x/c =  1.0000   69

   2   rms: 0.1931E-01   max: 0.2663E+00   D at   44  1
       a =  9.000      CL =  1.2044
      Cm = -0.0527     CD =  0.01649   =>   CDf =  0.00634    CDp =  0.01015

 Side 1  free  transition at x/c =  0.2327   43
 Side 2 forced transition at x/c =  1.0000   69

   3   rms: 0.2151E-02   max: 0.3163E-01   C at   43  1
       a =  9.000      CL =  1.2052
      Cm = -0.0528     CD =  0.01645   =>   CDf =  0.00630    CDp =  0.01015

 Side 1  free  transition at x/c =  0.2318   43
 Side 2 forced transition at x/c =  1.0000   69

   4   rms: 0.5981E-04   max: -.3654E-03   C at   43  1
       a =  9.000      CL =  1.2052
      Cm = -0.0528     CD =  0.01645   =>   CDf =  0.00631    CDp =  0.01014
 plradd ia,ip,cpol           27           0  9.02326033E-03

 Point added to stored polar  1
 Point written to save file  hq3015_Re400k.base.pol                          
 Dump file unspecified or not available
 Calculating wake trajectory ...
 Calculating source influence matrix ...

 Solving BL system ...

 Side 1  free  transition at x/c =  0.2318   43
 Side 2 forced transition at x/c =  1.0000   69

   1   rms: 0.7200E-01   max: 0.2939E+00   C at   43  1
       a =  9.500      CL =  1.2388
      Cm = -0.0500     CD =  0.01746   =>   CDf =  0.00631    CDp =  0.01115

 Side 1  free  transition at x/c =  0.2072   42
 Side 2 forced transition at x/c =  1.0000   69

   2   rms: 0.1226E-01   max: 0.2214E+00   D at   42  1
       a =  9.500      CL =  1.2335
      Cm = -0.0494     CD =  0.01766   =>   CDf =  0.00646    CDp =  0.01120

 Side 1  free  transition at x/c =  0.2115   42
 Side 2 forced transition at x/c =  1.0000   69

   3   rms: 0.3659E-02   max: 0.5543E-01   C at   42  1
       a =  9.500      CL =  1.2332
      Cm = -0.0493     CD =  0.01769   =>   CDf =  0.00635    CDp =  0.01133

 Side 1  free  transition at x/c =  0.2103   42
 Side 2 forced transition at x/c =  1.0000   69

   4   rms: 0.1709E-03   max: 0.7479E-03   D at   85  1
       a =  9.500      CL =  1.2330
      Cm = -0.0493     CD =  0.01769   =>   CDf =  0.00637    CDp =  0.01132

 Side 1  free  transition at x/c =  0.2103   42
 Side 2 forced transition at x/c =  1.0000   69

   5   rms: 0.2039E-05   max: -.8739E-05   C at   69  2
       a =  9.500      CL =  1.2331
      Cm = -0.0493     CD =  0.01769   =>   CDf =  0.00637    CDp =  0.01132
 plradd ia,ip,cpol           28           0  9.02326033E-03

 Point added to stored polar  1
 Point written to save file  hq3015_Re400k.base.pol                          
 Dump file unspecified or not available
 Calculating wake trajectory ...
 Calculating source influence matrix ...

 Solving BL system ...

 Side 1  free  transition at x/c =  0.2103   42
 Side 2 forced transition at x/c =  1.0000   69

   1   rms: 0.7767E-01   max: -.4347E+00   D at   42  1
       a = 10.000      CL =  1.2571
      Cm = -0.0456     CD =  0.01926   =>   CDf =  0.00610    CDp =  0.01315

 Side 1  free  transition at x/c =  0.1923   42
 Side 2 forced transition at x/c =  1.0000   68

   2   rms: 0.1466E-01   max: 0.2186E+00   D at   42  1
       a = 10.000      CL =  1.2583
      Cm = -0.0458     CD =  0.01916   =>   CDf =  0.00643    CDp =  0.01273

 Side 1  free  transition at x/c =  0.1921   42
 Side 2 forced transition at x/c =  1.0000   68

   3   rms: 0.1831E-02   max: -.2354E-01   D at   43  1
       a = 10.000      CL =  1.2582
      Cm = -0.0458     CD =  0.01916   =>   CDf =  0.00641    CDp =  0.01275

 Side 1  free  transition at x/c =  0.1917   41
 Side 2 forced transition at x/c =  1.0000   68

   4   rms: 0.4129E-03   max: -.5928E-02   C at   41  1
       a = 10.000      CL =  1.2584
      Cm = -0.0458     CD =  0.01915   =>   CDf =  0.00642    CDp =  0.01272

 Side 1  free  transition at x/c =  0.1916   41
 Side 2 forced transition at x/c =  1.0000   68

   5   rms: 0.1290E-04   max: -.4961E-04   D at   75  2
       a = 10.000      CL =  1.2584
      Cm = -0.0458     CD =  0.01915   =>   CDf =  0.00642    CDp =  0.01272
 plradd ia,ip,cpol           29           0  9.02326033E-03

 Point added to stored polar  1
 Point written to save file  hq3015_Re400k.base.pol                          
 Dump file unspecified or not available

.OPERva   c>  
 Solving BL system ...

 Side 1  free  transition at x/c =  0.1916   41
 Side 2 forced transition at x/c =  1.0000   68

   1   rms: 0.7167E-06   max: 0.2662E-05   C at   68  2
       a = 10.000      CL =  1.2584
      Cm = -0.0458     CD =  0.01915   =>   CDf =  0.00642    CDp =  0.01272
 plradd ia,ip,cpol           30         182  9.02326033E-03

 Point added to stored polar  1
 Point written to save file  hq3015_Re400k.base.pol                          
 Dump file unspecified or not available
 Calculating wake trajectory ...
 Calculating source influence matrix ...

 Solving BL system ...

 Side 1  free  transition at x/c =  0.1916   41
 Side 2 forced transition at x/c =  1.0000   68

   1   rms: 0.3549E-01   max: 0.1453E+00   T at   41  1
       a = 10.250      CL =  1.2782
      Cm = -0.0450     CD =  0.01957   =>   CDf =  0.00642    CDp =  0.01315

 Side 1  free  transition at x/c =  0.1795   41
 Side 2 forced transition at x/c =  1.0000   68

   2   rms: 0.8847E-02   max: 0.8463E-01   D at   42  1
       a = 10.250      CL =  1.2732
      Cm = -0.0445     CD =  0.01979   =>   CDf =  0.00647    CDp =  0.01333

 Side 1  free  transition at x/c =  0.1820   41
 Side 2 forced transition at x/c =  1.0000   68

   3   rms: 0.4172E-03   max: -.6883E-02   D at   42  1
       a = 10.250      CL =  1.2730
      Cm = -0.0445     CD =  0.01981   =>   CDf =  0.00641    CDp =  0.01340

 Side 1  free  transition at x/c =  0.1819   41
 Side 2 forced transition at x/c =  1.0000   68

   4   rms: 0.4497E-05   max: -.2933E-04   D at   42  1
       a = 10.250      CL =  1.2730
      Cm = -0.0445     CD =  0.01981   =>   CDf =  0.00641    CDp =  0.01340
 plradd ia,ip,cpol           31           0  6.91354217E-05

 Point added to stored polar  1
 Point written to save file  hq3015_Re400k.base.pol                          
 Dump file unspecified or not available
 Calculating wake trajectory ...
 Calculating source influence matrix ...

 Solving BL system ...

 Side 1  free  transition at x/c =  0.1819   41
 Side 2 forced transition at x/c =  1.0000   68

   1   rms: 0.3871E-01   max: -.2232E+00   D at   41  1
       a = 10.500      CL =  1.2845
      Cm = -0.0428     CD =  0.02072   =>   CDf =  0.00641    CDp =  0.01431

 Side 1  free  transition at x/c =  0.1736   40
 Side 2 forced transition at x/c =  1.0000   68

   2   rms: 0.5225E-02   max: -.5690E-01   D at   40  1
       a = 10.500      CL =  1.2854
      Cm = -0.0429     CD =  0.02061   =>   CDf =  0.00643    CDp =  0.01418

 Side 1  free  transition at x/c =  0.1732   40
 Side 2 forced transition at x/c =  1.0000   68

   3   rms: 0.1737E-03   max: 0.2118E-02   C at   40  1
       a = 10.500      CL =  1.2855
      Cm = -0.0429     CD =  0.02062   =>   CDf =  0.00642    CDp =  0.01420

 Side 1  free  transition at x/c =  0.1731   40
 Side 2 forced transition at x/c =  1.0000   68

   4   rms: 0.3043E-05   max: 0.3249E-04   C at   68  2
       a = 10.500      CL =  1.2855
      Cm = -0.0429     CD =  0.02062   =>   CDf =  0.00642    CDp =  0.01420
 plradd ia,ip,cpol           32           0  6.91354217E-05

 Point added to stored polar  1
 Point written to save file  hq3015_Re400k.base.pol                          
 Dump file unspecified or not available
 Calculating wake trajectory ...
 Calculating source influence matrix ...

 Solving BL system ...

 Side 1  free  transition at x/c =  0.1731   40
 Side 2 forced transition at x/c =  1.0000   68

   1   rms: 0.3441E-01   max: -.1174E+00   D at   40  1
       a = 10.750      CL =  1.3008
      Cm = -0.0417     CD =  0.02133   =>   CDf =  0.00642    CDp =  0.01491

 Side 1  free  transition at x/c =  0.1639   40
 Side 2 forced transition at x/c =  1.0000   68

   2   rms: 0.5224E-02   max: 0.4213E-01   D at   41  1
       a = 10.750      CL =  1.2975
      Cm = -0.0413     CD =  0.02147   =>   CDf =  0.00648    CDp =  0.01499

 Side 1  free  transition at x/c =  0.1653   40
 Side 2 forced transition at x/c =  1.0000   68

   3   rms: 0.2641E-03   max: -.3394E-02   D at   41  1
       a = 10.750      CL =  1.2974
      Cm = -0.0413     CD =  0.02148   =>   CDf =  0.00644    CDp =  0.01504

 Side 1  free  transition at x/c =  0.1653   40
 Side 2 forced transition at x/c =  1.0000   68

   4   rms: 0.1425E-04   max: 0.6373E-04   D at   82  1
       a = 10.750      CL =  1.2974
      Cm = -0.0413     CD =  0.02148   =>   CDf =  0.00644    CDp =  0.01504
 plradd ia,ip,cpol           33           0  6.91354217E-05

 Point added to stored polar  1
 Point written to save file  hq3015_Re400k.base.pol                          
 Dump file unspecified or not available
 Calculating wake trajectory ...
 Calculating source influence matrix ...

 Solving BL system ...

 Side 1  free  transition at x/c =  0.1653   40
 Side 2 forced transition at x/c =  1.0000   68

   1   rms: 0.3746E-01   max: -.1980E+00   D at   40  1
       a = 11.000      CL =  1.3075
      Cm = -0.0396     CD =  0.02255   =>   CDf =  0.00644    CDp =  0.01611

 Side 1  free  transition at x/c =  0.1587   39
 Side 2 forced transition at x/c =  1.0000   68

   2   rms: 0.7622E-02   max: -.7665E-01   D at   39  1
       a = 11.000      CL =  1.3105
      Cm = -0.0399     CD =  0.02228   =>   CDf =  0.00642    CDp =  0.01586

 Side 1  free  transition at x/c =  0.1582   39
 Side 2 forced transition at x/c =  1.0000   68

   3   rms: 0.2622E-03   max: 0.2763E-02   C at   39  1
       a = 11.000      CL =  1.3106
      Cm = -0.0400     CD =  0.02230   =>   CDf =  0.00641    CDp =  0.01588

 Side 1  free  transition at x/c =  0.1582   39
 Side 2 forced transition at x/c =  1.0000   68

   4   rms: 0.4672E-05   max: 0.8162E-04   C at   68  2
       a = 11.000      CL =  1.3106
      Cm = -0.0400     CD =  0.02230   =>   CDf =  0.00641    CDp =  0.01588
 plradd ia,ip,cpol           34           0  6.91354217E-05

 Point added to stored polar  1
 Point written to save file  hq3015_Re400k.base.pol                          
 Dump file unspecified or not available
 Calculating wake trajectory ...
 Calculating source influence matrix ...

 Solving BL system ...

 Side 1  free  transition at x/c =  0.1582   39
 Side 2 forced transition at x/c =  1.0000   68

   1   rms: 0.3394E-01   max: -.1246E+00   D at   39  1
       a = 11.250      CL =  1.3254
      Cm = -0.0388     CD =  0.02309   =>   CDf =  0.00611    CDp =  0.01698

 Side 1  free  transition at x/c =  0.1495   40
 Side 2 forced transition at x/c =  1.0000   67

   2   rms: 0.5901E-02   max: 0.4336E-01   D at   40  1
       a = 11.250      CL =  1.3218
      Cm = -0.0385     CD =  0.02325   =>   CDf =  0.00646    CDp =  0.01679

 Side 1  free  transition at x/c =  0.1509   40
 Side 2 forced transition at x/c =  1.0000   67

   3   rms: 0.9825E-03   max: -.1154E-01   D at    4  1
       a = 11.250      CL =  1.3217
      Cm = -0.0385     CD =  0.02325   =>   CDf =  0.00642    CDp =  0.01683

 Side 1  free  transition at x/c =  0.1508   40
 Side 2 forced transition at x/c =  1.0000   67

   4   rms: 0.1207E-04   max: 0.4374E-04   D at   40  1
       a = 11.250      CL =  1.3217
      Cm = -0.0385     CD =  0.02325   =>   CDf =  0.00642    CDp =  0.01683
 plradd ia,ip,cpol           35           0  6.91354217E-05

 Point added to stored polar  1
 Point written to save file  hq3015_Re400k.base.pol                          
 Dump file unspecified or not available
 Calculating wake trajectory ...
 Calculating source influence matrix ...

 Solving BL system ...

 Side 1  free  transition at x/c =  0.1508   40
 Side 2 forced transition at x/c =  1.0000   67

   1   rms: 0.3825E-01   max: -.2240E+00   D at   40  1   RLX: 0.969
       a = 11.500      CL =  1.3302
      Cm = -0.0369     CD =  0.02444   =>   CDf =  0.00642    CDp =  0.01802

 Side 1  free  transition at x/c =  0.1436   39
 Side 2 forced transition at x/c =  1.0000   67

   2   rms: 0.9753E-02   max: -.1041E+00   D at   39  1
       a = 11.500      CL =  1.3345
      Cm = -0.0372     CD =  0.02411   =>   CDf =  0.00640    CDp =  0.01771

 Side 1  free  transition at x/c =  0.1430   39
 Side 2 forced transition at x/c =  1.0000   67

   3   rms: 0.3756E-03   max: 0.5500E-02   C at   39  1
       a = 11.500      CL =  1.3345
      Cm = -0.0372     CD =  0.02414   =>   CDf =  0.00639    CDp =  0.01775

 Side 1  free  transition at x/c =  0.1429   39
 Side 2 forced transition at x/c =  1.0000   67

   4   rms: 0.7760E-05   max: 0.9200E-04   C at   67  2
       a = 11.500      CL =  1.3345
      Cm = -0.0372     CD =  0.02414   =>   CDf =  0.00640    CDp =  0.01775
 plradd ia,ip,cpol           36           0  6.91354217E-05

 Point added to stored polar  1
 Point written to save file  hq3015_Re400k.base.pol                          
 Dump file unspecified or not available
 Calculating wake trajectory ...
 Calculating source influence matrix ...

 Solving BL system ...

 Side 1  free  transition at x/c =  0.1429   39
 Side 2 forced transition at x/c =  1.0000   67

   1   rms: 0.3538E-01   max: -.1679E+00   D at   39  1   RLX: 0.947
       a = 11.750      CL =  1.3474
      Cm = -0.0362     CD =  0.02502   =>   CDf =  0.00640    CDp =  0.01862

 Side 1  free  transition at x/c =  0.1339   38
 Side 2 forced transition at x/c =  1.0000   67

   2   rms: 0.6419E-02   max: 0.3279E-01   D at   81  1
       a = 11.750      CL =  1.3428
      Cm = -0.0356     CD =  0.02536   =>   CDf =  0.00646    CDp =  0.01890

 Side 1  free  transition at x/c =  0.1344   39
 Side 2 forced transition at x/c =  1.0000   67

   3   rms: 0.3050E-02   max: -.3878E-01   D at   38  1
       a = 11.750      CL =  1.3434
      Cm = -0.0357     CD =  0.02529   =>   CDf =  0.00646    CDp =  0.01883

 Side 1  free  transition at x/c =  0.1347   39
 Side 2 forced transition at x/c =  1.0000   67

   4   rms: 0.2260E-03   max: -.2876E-02   D at   39  1
       a = 11.750      CL =  1.3435
      Cm = -0.0357     CD =  0.02529   =>   CDf =  0.00644    CDp =  0.01886

 Side 1  free  transition at x/c =  0.1347   39
 Side 2 forced transition at x/c =  1.0000   67

   5   rms: 0.7428E-05   max: 0.4453E-04   C at   67  2
       a = 11.750      CL =  1.3435
      Cm = -0.0357     CD =  0.02529   =>   CDf =  0.00644    CDp =  0.01886
 plradd ia,ip,cpol           37           0  6.91354217E-05

 Point added to stored polar  1
 Point written to save file  hq3015_Re400k.base.pol                          
 Dump file unspecified or not available
 Calculating wake trajectory ...
 Calculating source influence matrix ...

 Solving BL system ...

 Side 1  free  transition at x/c =  0.1347   39
 Side 2 forced transition at x/c =  1.0000   67

   1   rms: 0.3903E-01   max: -.2184E+00   D at   39  1   RLX: 0.900
       a = 12.000      CL =  1.3492
      Cm = -0.0342     CD =  0.02663   =>   CDf =  0.00644    CDp =  0.02019

 Side 1  free  transition at x/c =  0.1282   38
 Side 2 forced transition at x/c =  1.0000   67

   2   rms: 0.1281E-01   max: -.1339E+00   D at   38  1
       a = 12.000      CL =  1.3570
      Cm = -0.0346     CD =  0.02614   =>   CDf =  0.00639    CDp =  0.01975

 Side 1  free  transition at x/c =  0.1272   38
 Side 2 forced transition at x/c =  1.0000   67

   3   rms: 0.5558E-03   max: 0.7149E-02   C at   38  1
       a = 12.000      CL =  1.3567
      Cm = -0.0346     CD =  0.02620   =>   CDf =  0.00639    CDp =  0.01981

 Side 1  free  transition at x/c =  0.1271   38
 Side 2 forced transition at x/c =  1.0000   67

   4   rms: 0.1644E-04   max: 0.5370E-04   D at   79  1
       a = 12.000      CL =  1.3567
      Cm = -0.0346     CD =  0.02620   =>   CDf =  0.00639    CDp =  0.01981
 plradd ia,ip,cpol           38           0  6.91354217E-05

 Point added to stored polar  1
 Point written to save file  hq3015_Re400k.base.pol                          
 Dump file unspecified or not available
 Calculating wake trajectory ...
 Calculating source influence matrix ...

 Solving BL system ...

 Side 1  free  transition at x/c =  0.1271   38
 Side 2 forced transition at x/c =  1.0000   67

   1   rms: 0.3461E-01   max: -.1514E+00   D at   38  1   RLX: 0.882
       a = 12.250      CL =  1.3670
      Cm = -0.0336     CD =  0.02719   =>   CDf =  0.00640    CDp =  0.02080

 Side 1  free  transition at x/c =  0.1208   38
 Side 2 forced transition at x/c =  1.0000   67

   2   rms: 0.5640E-02   max: 0.3221E-01   D at   79  1
       a = 12.250      CL =  1.3649
      Cm = -0.0332     CD =  0.02750   =>   CDf =  0.00643    CDp =  0.02107

 Side 1  free  transition at x/c =  0.1205   37
 Side 2 forced transition at x/c =  1.0000   67

   3   rms: 0.2882E-03   max: 0.2530E-02   D at   79  1
       a = 12.250      CL =  1.3647
      Cm = -0.0332     CD =  0.02749   =>   CDf =  0.00642    CDp =  0.02107

 Side 1  free  transition at x/c =  0.1206   37
 Side 2 forced transition at x/c =  1.0000   67

   4   rms: 0.7226E-05   max: -.1028E-03   C at   67  2
       a = 12.250      CL =  1.3647
      Cm = -0.0332     CD =  0.02749   =>   CDf =  0.00642    CDp =  0.02106
 plradd ia,ip,cpol           39           0  6.91354217E-05

 Point added to stored polar  1
 Point written to save file  hq3015_Re400k.base.pol                          
 Dump file unspecified or not available
 Calculating wake trajectory ...
 Calculating source influence matrix ...

 Solving BL system ...

 Side 1  free  transition at x/c =  0.1206   37
 Side 2 forced transition at x/c =  1.0000   67

   1   rms: 0.3285E-01   max: -.1497E+00   C at   37  1   RLX: 0.857
       a = 12.500      CL =  1.3790
      Cm = -0.0326     CD =  0.02815   =>   CDf =  0.00642    CDp =  0.02173

 Side 1  free  transition at x/c =  0.1148   37
 Side 2 forced transition at x/c =  1.0000   67

   2   rms: 0.5488E-02   max: -.2476E-01   D at   37  1
       a = 12.500      CL =  1.3777
      Cm = -0.0322     CD =  0.02848   =>   CDf =  0.00604    CDp =  0.02244

 Side 1  free  transition at x/c =  0.1145   38
 Side 2 forced transition at x/c =  1.0000   66

   3   rms: 0.6835E-02   max: -.1204E+00   D at    2  1
       a = 12.500      CL =  1.3775
      Cm = -0.0322     CD =  0.02847   =>   CDf =  0.00635    CDp =  0.02212

 Side 1  free  transition at x/c =  0.1145   38
 Side 2 forced transition at x/c =  1.0000   66

   4   rms: 0.1901E-01   max: -.3389E+00   D at    2  1
       a = 12.500      CL =  1.3775
      Cm = -0.0322     CD =  0.02847   =>   CDf =  0.00635    CDp =  0.02212

 Side 1  free  transition at x/c =  0.1145   38
 Side 2 forced transition at x/c =  1.0000   66

   5   rms: 0.4480E-02   max: 0.7650E-01   D at    2  1
       a = 12.500      CL =  1.3775
      Cm = -0.0322     CD =  0.02847   =>   CDf =  0.00635    CDp =  0.02212

 Side 1  free  transition at x/c =  0.1145   38
 Side 2 forced transition at x/c =  1.0000   66

   6   rms: 0.2560E-03   max: 0.3173E-02   D at    4  1
       a = 12.500      CL =  1.3775
      Cm = -0.0322     CD =  0.02847   =>   CDf =  0.00635    CDp =  0.02212

 Side 1  free  transition at x/c =  0.1145   38
 Side 2 forced transition at x/c =  1.0000   66

   7   rms: 0.7464E-05   max: 0.9448E-04   D at    4  1
       a = 12.500      CL =  1.3775
      Cm = -0.0322     CD =  0.02847   =>   CDf =  0.00635    CDp =  0.02212
 plradd ia,ip,cpol           40           0  6.91354217E-05

 Point added to stored polar  1
 Point written to save file  hq3015_Re400k.base.pol                          
 Dump file unspecified or not available
 Calculating wake trajectory ...
 Calculating source influence matrix ...

 Solving BL system ...

 Side 1  free  transition at x/c =  0.1145   38
 Side 2 forced transition at x/c =  1.0000   66

   1   rms: 0.3902E-01   max: -.3512E+00   D at    3  1   RLX: 0.826
       a = 12.750      CL =  1.3867
      Cm = -0.0313     CD =  0.02949   =>   CDf =  0.00635    CDp =  0.02314

 Side 1  free  transition at x/c =  0.1081   38
 Side 2 forced transition at x/c =  1.0000   66

   2   rms: 0.8205E-02   max: 0.3932E-01   D at   79  1
       a = 12.750      CL =  1.3846
      Cm = -0.0309     CD =  0.02993   =>   CDf =  0.00639    CDp =  0.02355

 Side 1  free  transition at x/c =  0.1074   38
 Side 2 forced transition at x/c =  1.0000   66

   3   rms: 0.3998E-03   max: 0.3077E-02   D at   76  2
       a = 12.750      CL =  1.3843
      Cm = -0.0309     CD =  0.02991   =>   CDf =  0.00638    CDp =  0.02353

 Side 1  free  transition at x/c =  0.1074   38
 Side 2 forced transition at x/c =  1.0000   66

   4   rms: 0.6500E-05   max: 0.5995E-04   D at   76  2
       a = 12.750      CL =  1.3843
      Cm = -0.0308     CD =  0.02991   =>   CDf =  0.00638    CDp =  0.02353
 plradd ia,ip,cpol           41           0  6.91354217E-05

 Point added to stored polar  1
 Point written to save file  hq3015_Re400k.base.pol                          
 Dump file unspecified or not available
 Calculating wake trajectory ...
 Calculating source influence matrix ...

 Solving BL system ...

 Side 1  free  transition at x/c =  0.1074   38
 Side 2 forced transition at x/c =  1.0000   66

   1   rms: 0.3632E-01   max: -.1743E+00   D at   38  1   RLX: 0.790
       a = 13.000      CL =  1.3891
      Cm = -0.0298     CD =  0.03125   =>   CDf =  0.00638    CDp =  0.02487

 Side 1  free  transition at x/c =  0.1028   37
 Side 2 forced transition at x/c =  1.0000   66

   2   rms: 0.1138E-01   max: -.1165E+00   D at   37  1
       a = 13.000      CL =  1.3963
      Cm = -0.0299     CD =  0.03098   =>   CDf =  0.00632    CDp =  0.02466

 Side 1  free  transition at x/c =  0.1015   37
 Side 2 forced transition at x/c =  1.0000   66

   3   rms: 0.6104E-03   max: 0.2296E-02   C at   37  1
       a = 13.000      CL =  1.3958
      Cm = -0.0299     CD =  0.03104   =>   CDf =  0.00632    CDp =  0.02472

 Side 1  free  transition at x/c =  0.1015   37
 Side 2 forced transition at x/c =  1.0000   66

   4   rms: 0.1779E-04   max: 0.1067E-03   D at   76  2
       a = 13.000      CL =  1.3957
      Cm = -0.0299     CD =  0.03103   =>   CDf =  0.00632    CDp =  0.02472
 plradd ia,ip,cpol           42           0  6.91354217E-05

 Point added to stored polar  1
 Point written to save file  hq3015_Re400k.base.pol                          
 Dump file unspecified or not available
 Calculating wake trajectory ...
 Calculating source influence matrix ...

 Solving BL system ...

 Side 1  free  transition at x/c =  0.1015   37
 Side 2 forced transition at x/c =  1.0000   66

   1   rms: 0.3400E-01   max: -.1468E+00   D at   37  1   RLX: 0.773
       a = 13.250      CL =  1.4035
      Cm = -0.0292     CD =  0.03213   =>   CDf =  0.00632    CDp =  0.02581

 Side 1  free  transition at x/c =  0.0960   37
 Side 2 forced transition at x/c =  1.0000   66

   2   rms: 0.8637E-02   max: 0.3869E-01   D at   77  1
       a = 13.250      CL =  1.4022
      Cm = -0.0287     CD =  0.03264   =>   CDf =  0.00635    CDp =  0.02629

 Side 1  free  transition at x/c =  0.0951   37
 Side 2 forced transition at x/c =  1.0000   66

   3   rms: 0.7448E-03   max: 0.5927E-02   D at   77  1
       a = 13.250      CL =  1.4017
      Cm = -0.0287     CD =  0.03262   =>   CDf =  0.00634    CDp =  0.02629

 Side 1  free  transition at x/c =  0.0952   37
 Side 2 forced transition at x/c =  1.0000   66

   4   rms: 0.2285E-04   max: 0.2062E-03   D at   77  2
       a = 13.250      CL =  1.4017
      Cm = -0.0287     CD =  0.03262   =>   CDf =  0.00633    CDp =  0.02628
 plradd ia,ip,cpol           43           0  6.91354217E-05

 Point added to stored polar  1
 Point written to save file  hq3015_Re400k.base.pol                          
 Dump file unspecified or not available
 Calculating wake trajectory ...
 Calculating source influence matrix ...

 Solving BL system ...

 Side 1  free  transition at x/c =  0.0952   37
 Side 2 forced transition at x/c =  1.0000   66

   1   rms: 0.3655E-01   max: -.1819E+00   D at   37  1   RLX: 0.741
       a = 13.500      CL =  1.4054
      Cm = -0.0279     CD =  0.03404   =>   CDf =  0.00634    CDp =  0.02770

 Side 1  free  transition at x/c =  0.0914   36
 Side 2 forced transition at x/c =  1.0000   66

   2   rms: 0.1100E-01   max: -.9365E-01   D at   36  1
       a = 13.500      CL =  1.4123
      Cm = -0.0278     CD =  0.03387   =>   CDf =  0.00628    CDp =  0.02759

 Side 1  free  transition at x/c =  0.0896   36
 Side 2 forced transition at x/c =  1.0000   66

   3   rms: 0.8379E-03   max: 0.3015E-02   D at   76  1
       a = 13.500      CL =  1.4116
      Cm = -0.0278     CD =  0.03393   =>   CDf =  0.00628    CDp =  0.02766

 Side 1  free  transition at x/c =  0.0897   36
 Side 2 forced transition at x/c =  1.0000   66

   4   rms: 0.2465E-04   max: 0.2016E-03   D at   77  2
       a = 13.500      CL =  1.4115
      Cm = -0.0278     CD =  0.03393   =>   CDf =  0.00627    CDp =  0.02766
 plradd ia,ip,cpol           44           0  6.91354217E-05

 Point added to stored polar  1
 Point written to save file  hq3015_Re400k.base.pol                          
 Dump file unspecified or not available
 Calculating wake trajectory ...
 Calculating source influence matrix ...

 Solving BL system ...

 Side 1  free  transition at x/c =  0.0897   36
 Side 2 forced transition at x/c =  1.0000   66

   1   rms: 0.3370E-01   max: 0.1359E+00   C at   36  1   RLX: 0.724
       a = 13.750      CL =  1.4184
      Cm = -0.0272     CD =  0.03505   =>   CDf =  0.00628    CDp =  0.02877

 Side 1  free  transition at x/c =  0.0848   36
 Side 2 forced transition at x/c =  1.0000   66

   2   rms: 0.1040E-01   max: 0.4774E-01   D at   76  1
       a = 13.750      CL =  1.4172
      Cm = -0.0268     CD =  0.03571   =>   CDf =  0.00629    CDp =  0.02942

 Side 1  free  transition at x/c =  0.0837   36
 Side 2 forced transition at x/c =  1.0000   66

   3   rms: 0.6829E-03   max: 0.3808E-02   D at   78  2
       a = 13.750      CL =  1.4167
      Cm = -0.0267     CD =  0.03567   =>   CDf =  0.00628    CDp =  0.02939

 Side 1  free  transition at x/c =  0.0838   36
 Side 2 forced transition at x/c =  1.0000   66

   4   rms: 0.1409E-04   max: 0.1265E-03   D at   77  2
       a = 13.750      CL =  1.4167
      Cm = -0.0267     CD =  0.03566   =>   CDf =  0.00628    CDp =  0.02939
 plradd ia,ip,cpol           45           0 -4.73162909E-05

 Point added to stored polar  1
 Point written to save file  hq3015_Re400k.base.pol                          
 Dump file unspecified or not available
 Calculating wake trajectory ...
 Calculating source influence matrix ...

 Solving BL system ...

 Side 1  free  transition at x/c =  0.0838   36
 Side 2 forced transition at x/c =  1.0000   66

   1   rms: 0.3547E-01   max: -.1806E+00   D at   36  1   RLX: 0.696
       a = 14.000      CL =  1.4203
      Cm = -0.0261     CD =  0.03707   =>   CDf =  0.00628    CDp =  0.03079

 Side 1  free  transition at x/c =  0.0806   35
 Side 2 forced transition at x/c =  1.0000   66

   2   rms: 0.1038E-01   max: -.6900E-01   D at   35  1
       a = 14.000      CL =  1.4251
      Cm = -0.0259     CD =  0.03721   =>   CDf =  0.00624    CDp =  0.03097

 Side 1  free  transition at x/c =  0.0788   35
 Side 2 forced transition at x/c =  1.0000   66

   3   rms: 0.1017E-02   max: -.4207E-02   C at   35  1
       a = 14.000      CL =  1.4243
      Cm = -0.0259     CD =  0.03725   =>   CDf =  0.00623    CDp =  0.03102

 Side 1  free  transition at x/c =  0.0790   35
 Side 2 forced transition at x/c =  1.0000   66

   4   rms: 0.3172E-04   max: 0.2548E-03   D at   78  2
       a = 14.000      CL =  1.4242
      Cm = -0.0259     CD =  0.03724   =>   CDf =  0.00622    CDp =  0.03102
 plradd ia,ip,cpol           46           0 -4.73162909E-05

 Point added to stored polar  1
 Point written to save file  hq3015_Re400k.base.pol                          
 Dump file unspecified or not available
 Calculating wake trajectory ...
 Calculating source influence matrix ...

 Solving BL system ...

 Side 1  free  transition at x/c =  0.0790   35
 Side 2 forced transition at x/c =  1.0000   66

   1   rms: 0.3268E-01   max: -.1310E+00   D at   35  1   RLX: 0.679
       a = 14.250      CL =  1.4306
      Cm = -0.0254     CD =  0.03838   =>   CDf =  0.00586    CDp =  0.03252

 Side 1  free  transition at x/c =  0.0743   36
 Side 2 forced transition at x/c =  1.0000   65

   2   rms: 0.2162E+00   max: 0.3814E+01   D at    2  1   RLX: 0.306
       a = 14.250      CL =  1.4306
      Cm = -0.0257     CD =  0.03854   =>   CDf =  0.00622    CDp =  0.03231

 Side 1  free  transition at x/c =  0.0739   36
 Side 2 forced transition at x/c =  1.0000   65

   3   rms: 0.8726E-02   max: 0.3842E-01   D at    4  1
       a = 14.250      CL =  1.4295
      Cm = -0.0251     CD =  0.03916   =>   CDf =  0.00622    CDp =  0.03294

 Side 1  free  transition at x/c =  0.0730   36
 Side 2 forced transition at x/c =  1.0000   65

   4   rms: 0.7460E-03   max: 0.4049E-02   D at   77  2
       a = 14.250      CL =  1.4289
      Cm = -0.0250     CD =  0.03913   =>   CDf =  0.00621    CDp =  0.03292

 Side 1  free  transition at x/c =  0.0731   36
 Side 2 forced transition at x/c =  1.0000   65

   5   rms: 0.2324E-04   max: 0.2238E-03   D at   77  2
       a = 14.250      CL =  1.4289
      Cm = -0.0250     CD =  0.03913   =>   CDf =  0.00621    CDp =  0.03292
 plradd ia,ip,cpol           47           0 -4.73162909E-05

 Point added to stored polar  1
 Point written to save file  hq3015_Re400k.base.pol                          
 Dump file unspecified or not available
 Calculating wake trajectory ...
 Calculating source influence matrix ...

 Solving BL system ...

 Side 1  free  transition at x/c =  0.0731   36
 Side 2 forced transition at x/c =  1.0000   65

   1   rms: 0.3660E-01   max: -.2004E+00   D at   36  1   RLX: 0.653
       a = 14.500      CL =  1.4312
      Cm = -0.0246     CD =  0.04067   =>   CDf =  0.00621    CDp =  0.03446

 Side 1  free  transition at x/c =  0.0701   35
 Side 2 forced transition at x/c =  1.0000   65

   2   rms: 0.1103E-01   max: -.4584E-01   D at   35  1
       a = 14.500      CL =  1.4353
      Cm = -0.0243     CD =  0.04098   =>   CDf =  0.00620    CDp =  0.03479

 Side 1  free  transition at x/c =  0.0684   35
 Side 2 forced transition at x/c =  1.0000   65

   3   rms: 0.1435E-02   max: 0.7131E-02   D at   74  1
       a = 14.500      CL =  1.4342
      Cm = -0.0243     CD =  0.04103   =>   CDf =  0.00617    CDp =  0.03486

 Side 1  free  transition at x/c =  0.0685   35
 Side 2 forced transition at x/c =  1.0000   65

   4   rms: 0.6955E-04   max: 0.4782E-03   D at   77  2
       a = 14.500      CL =  1.4341
      Cm = -0.0243     CD =  0.04102   =>   CDf =  0.00617    CDp =  0.03485
 plradd ia,ip,cpol           48           0 -4.73162909E-05

 Point added to stored polar  1
 Point written to save file  hq3015_Re400k.base.pol                          
 Dump file unspecified or not available
 Calculating wake trajectory ...
 Calculating source influence matrix ...

 Solving BL system ...

 Side 1  free  transition at x/c =  0.0686   35
 Side 2 forced transition at x/c =  1.0000   65

   1   rms: 0.3125E-01   max: -.9615E-01   D at   35  1   RLX: 0.637
       a = 14.750      CL =  1.4397
      Cm = -0.0240     CD =  0.04220   =>   CDf =  0.00617    CDp =  0.03603

 Side 1  free  transition at x/c =  0.0653   35
 Side 2 forced transition at x/c =  1.0000   65

   2   rms: 0.1213E-01   max: -.5376E-01   D at   35  1
       a = 14.750      CL =  1.4400
      Cm = -0.0237     CD =  0.04302   =>   CDf =  0.00615    CDp =  0.03688

 Side 1  free  transition at x/c =  0.0639   35
 Side 2 forced transition at x/c =  1.0000   65

   3   rms: 0.1182E-02   max: -.5733E-02   C at   35  1
       a = 14.750      CL =  1.4392
      Cm = -0.0237     CD =  0.04298   =>   CDf =  0.00614    CDp =  0.03684

 Side 1  free  transition at x/c =  0.0641   35
 Side 2 forced transition at x/c =  1.0000   65

   4   rms: 0.3053E-04   max: 0.2515E-03   D at   78  2
       a = 14.750      CL =  1.4391
      Cm = -0.0237     CD =  0.04297   =>   CDf =  0.00613    CDp =  0.03684
 plradd ia,ip,cpol           49           0 -4.73162909E-05

 Point added to stored polar  1
 Point written to save file  hq3015_Re400k.base.pol                          
 Dump file unspecified or not available
 Calculating wake trajectory ...
 Calculating source influence matrix ...

 Solving BL system ...

 Side 1  free  transition at x/c =  0.0641   35
 Side 2 forced transition at x/c =  1.0000   65

   1   rms: 0.3360E-01   max: -.1399E+00   D at   35  1   RLX: 0.615
       a = 15.000      CL =  1.4423
      Cm = -0.0234     CD =  0.04441   =>   CDf =  0.00613    CDp =  0.03827

 Side 1  free  transition at x/c =  0.0615   35
 Side 2 forced transition at x/c =  1.0000   65

   2   rms: 0.1436E-01   max: 0.6155E-01   D at   73  1
       a = 15.000      CL =  1.4410
      Cm = -0.0231     CD =  0.04549   =>   CDf =  0.00613    CDp =  0.03936

 Side 1  free  transition at x/c =  0.0602   35
 Side 2 forced transition at x/c =  1.0000   65

   3   rms: 0.1337E-02   max: 0.7743E-02   D at   78  2
       a = 15.000      CL =  1.4401
      Cm = -0.0230     CD =  0.04542   =>   CDf =  0.00611    CDp =  0.03930

 Side 1  free  transition at x/c =  0.0602   35
 Side 2 forced transition at x/c =  1.0000   65

   4   rms: 0.5433E-04   max: 0.4678E-03   D at   78  2
       a = 15.000      CL =  1.4400
      Cm = -0.0230     CD =  0.04541   =>   CDf =  0.00611    CDp =  0.03929
 plradd ia,ip,cpol           50           0 -4.73162909E-05

 Point added to stored polar  1
 Point written to save file  hq3015_Re400k.base.pol                          
 Dump file unspecified or not available
 Calculating wake trajectory ...
 Calculating source influence matrix ...

 Solving BL system ...

 Side 1  free  transition at x/c =  0.0602   35
 Side 2 forced transition at x/c =  1.0000   65

   1   rms: 0.3493E-01   max: 0.1277E+00   D at   70  1   RLX: 0.592
       a = 15.250      CL =  1.4410
      Cm = -0.0228     CD =  0.04709   =>   CDf =  0.00612    CDp =  0.04097

 Side 1  free  transition at x/c =  0.0583   34
 Side 2 forced transition at x/c =  1.0000   65

   2   rms: 0.1364E-01   max: -.9863E-01   D at   34  1
       a = 15.250      CL =  1.4472
      Cm = -0.0227     CD =  0.04736   =>   CDf =  0.00606    CDp =  0.04130

 Side 1  free  transition at x/c =  0.0572   34
 Side 2 forced transition at x/c =  1.0000   65

   3   rms: 0.1312E-02   max: 0.5457E-02   D at   78  2
       a = 15.250      CL =  1.4461
      Cm = -0.0227     CD =  0.04739   =>   CDf =  0.00603    CDp =  0.04137

 Side 1  free  transition at x/c =  0.0573   34
 Side 2 forced transition at x/c =  1.0000   65

   4   rms: 0.7132E-04   max: 0.5803E-03   D at   78  2
       a = 15.250      CL =  1.4460
      Cm = -0.0226     CD =  0.04739   =>   CDf =  0.00603    CDp =  0.04136
 plradd ia,ip,cpol           51           0 -4.73162909E-05

 Point added to stored polar  1
 Point written to save file  hq3015_Re400k.base.pol                          
 Dump file unspecified or not available
 Calculating wake trajectory ...
 Calculating source influence matrix ...

 Solving BL system ...

 Side 1  free  transition at x/c =  0.0573   34
 Side 2 forced transition at x/c =  1.0000   65

   1   rms: 0.3098E-01   max: 0.9696E-01   D at   69  1   RLX: 0.580
       a = 15.500      CL =  1.4499
      Cm = -0.0225     CD =  0.04871   =>   CDf =  0.00603    CDp =  0.04268

 Side 1  free  transition at x/c =  0.0552   34
 Side 2 forced transition at x/c =  1.0000   65

   2   rms: 0.1379E-01   max: 0.5280E-01   D at   71  1
       a = 15.500      CL =  1.4504
      Cm = -0.0224     CD =  0.04977   =>   CDf =  0.00600    CDp =  0.04377

 Side 1  free  transition at x/c =  0.0541   34
 Side 2 forced transition at x/c =  1.0000   65

   3   rms: 0.1804E-02   max: 0.1012E-01   D at   71  1
       a = 15.500      CL =  1.4491
      Cm = -0.0223     CD =  0.04974   =>   CDf =  0.00598    CDp =  0.04376

 Side 1  free  transition at x/c =  0.0542   34
 Side 2 forced transition at x/c =  1.0000   65

   4   rms: 0.9115E-04   max: 0.7292E-03   D at   78  2
       a = 15.500      CL =  1.4490
      Cm = -0.0223     CD =  0.04972   =>   CDf =  0.00597    CDp =  0.04375
 plradd ia,ip,cpol           52           0 -4.73162909E-05

 Point added to stored polar  1
 Point written to save file  hq3015_Re400k.base.pol                          
 Dump file unspecified or not available
 Calculating wake trajectory ...
 Calculating source influence matrix ...

 Solving BL system ...

 Side 1  free  transition at x/c =  0.0542   34
 Side 2 forced transition at x/c =  1.0000   65

   1   rms: 0.3450E-01   max: -.1720E+00   D at   34  1   RLX: 0.561
       a = 15.750      CL =  1.4508
      Cm = -0.0223     CD =  0.05131   =>   CDf =  0.00598    CDp =  0.04533

 Side 1  free  transition at x/c =  0.0519   34
 Side 2 forced transition at x/c =  1.0000   65

   2   rms: 0.1651E-01   max: -.7086E-01   D at   34  1
       a = 15.750      CL =  1.4491
      Cm = -0.0222     CD =  0.05272   =>   CDf =  0.00598    CDp =  0.04675

 Side 1  free  transition at x/c =  0.0505   34
 Side 2 forced transition at x/c =  1.0000   65

   3   rms: 0.2604E-02   max: 0.1735E-01   D at   70  1
       a = 15.750      CL =  1.4474
      Cm = -0.0221     CD =  0.05268   =>   CDf =  0.00596    CDp =  0.04672

 Side 1  free  transition at x/c =  0.0505   34
 Side 2 forced transition at x/c =  1.0000   65

   4   rms: 0.1613E-03   max: 0.1075E-02   D at   78  2
       a = 15.750      CL =  1.4473
      Cm = -0.0221     CD =  0.05265   =>   CDf =  0.00595    CDp =  0.04670

 Side 1  free  transition at x/c =  0.0505   34
 Side 2 forced transition at x/c =  1.0000   65

   5   rms: 0.4598E-05   max: -.8114E-04   C at   65  2
       a = 15.750      CL =  1.4473
      Cm = -0.0221     CD =  0.05265   =>   CDf =  0.00595    CDp =  0.04670
 plradd ia,ip,cpol           53           0 -4.73162909E-05

 Point added to stored polar  1
 Point written to save file  hq3015_Re400k.base.pol                          
 Dump file unspecified or not available
 Calculating wake trajectory ...
 Calculating source influence matrix ...

 Solving BL system ...

 Side 1  free  transition at x/c =  0.0505   34
 Side 2 forced transition at x/c =  1.0000   65

   1   rms: 0.3367E-01   max: 0.1311E+00   D at   68  1   RLX: 0.541
       a = 16.000      CL =  1.4476
      Cm = -0.0221     CD =  0.05443   =>   CDf =  0.00596    CDp =  0.04847

 Side 1  free  transition at x/c =  0.0495   33
 Side 2 forced transition at x/c =  1.0000   65

   2   rms: 0.1381E-01   max: -.7957E-01   C at   33  1
       a = 16.000      CL =  1.4529
      Cm = -0.0220     CD =  0.05499   =>   CDf =  0.00590    CDp =  0.04909

 Side 1  free  transition at x/c =  0.0489   33
 Side 2 forced transition at x/c =  1.0000   65

   3   rms: 0.1598E-02   max: 0.7699E-02   D at   69  1
       a = 16.000      CL =  1.4517
      Cm = -0.0220     CD =  0.05500   =>   CDf =  0.00585    CDp =  0.04915

 Side 1  free  transition at x/c =  0.0489   33
 Side 2 forced transition at x/c =  1.0000   65

   4   rms: 0.1240E-03   max: 0.7718E-03   D at   79  2
       a = 16.000      CL =  1.4516
      Cm = -0.0220     CD =  0.05499   =>   CDf =  0.00585    CDp =  0.04914

 Side 1  free  transition at x/c =  0.0489   33
 Side 2 forced transition at x/c =  1.0000   65

   5   rms: 0.6205E-05   max: -.9076E-04   C at   65  2
       a = 16.000      CL =  1.4516
      Cm = -0.0220     CD =  0.05498   =>   CDf =  0.00585    CDp =  0.04914
 plradd ia,ip,cpol           54           0 -4.73162909E-05

 Point added to stored polar  1
 Point written to save file  hq3015_Re400k.base.pol                          
 Dump file unspecified or not available

.OPERva   c>  
 Polar accumulation disabled

.OPERv   c>  
 XFOIL   c>  
 XFOIL   c>  