  
       XFOIL         Version 6.99
  
 Calculated polar for: HQ 3.0/15 AIRFOIL                               
  
 1 1 Reynolds number fixed          Mach number fixed         
  
 xtrf =   1.000 (top)        1.000 (bottom)  
 Mach =   0.000     Re =     0.300 e 6     Ncrit =   9.000
  
   alpha    CL        CD       CDp       CM     Top_Xtr  Bot_Xtr
  ------ -------- --------- --------- -------- -------- --------
  -4.000  -0.0304   0.01115   0.00496  -0.0912   0.8207   0.3184
  -3.500   0.0176   0.01043   0.00488  -0.0900   0.8108   0.5134
  -3.000   0.0721   0.01043   0.00487  -0.0893   0.8006   0.5729
  -2.500   0.1262   0.01052   0.00491  -0.0886   0.7894   0.6061
  -2.000   0.1817   0.01060   0.00495  -0.0881   0.7795   0.6315
  -1.500   0.2368   0.01075   0.00506  -0.0874   0.7693   0.6600
  -1.000   0.2911   0.01084   0.00513  -0.0868   0.7583   0.6780
  -0.500   0.3470   0.01086   0.00509  -0.0865   0.7476   0.6930
   0.000   0.4025   0.01084   0.00499  -0.0860   0.7344   0.7089
   0.500   0.4577   0.01079   0.00488  -0.0855   0.7202   0.7234
   1.000   0.5120   0.01078   0.00486  -0.0851   0.7066   0.7360
   1.500   0.5662   0.01076   0.00487  -0.0847   0.6927   0.7472
   2.000   0.6202   0.01075   0.00486  -0.0842   0.6779   0.7596
   2.500   0.6736   0.01074   0.00484  -0.0835   0.6608   0.7731
   3.000   0.7264   0.01074   0.00482  -0.0828   0.6420   0.7873
   3.500   0.7768   0.01077   0.00491  -0.0816   0.6213   0.8025
   4.000   0.8263   0.01080   0.00498  -0.0802   0.5981   0.8187
   4.500   0.8735   0.01087   0.00510  -0.0784   0.5712   0.8370
   5.000   0.9178   0.01099   0.00524  -0.0761   0.5393   0.8593
   5.500   0.9575   0.01120   0.00545  -0.0729   0.5025   0.8897
   6.000   1.0134   0.01161   0.00585  -0.0735   0.4555   1.0000
   6.500   1.0522   0.01244   0.00643  -0.0712   0.4092   1.0000
   7.000   1.0863   0.01334   0.00714  -0.0679   0.3663   1.0000
   7.500   1.1130   0.01434   0.00793  -0.0633   0.3304   1.0000
   8.000   1.1392   0.01542   0.00888  -0.0587   0.3005   1.0000
   8.500   1.1667   0.01656   0.00994  -0.0547   0.2744   1.0000
   9.000   1.1919   0.01790   0.01118  -0.0507   0.2521   1.0000
   9.500   1.2205   0.01914   0.01245  -0.0475   0.2307   1.0000
  10.000   1.2460   0.02062   0.01391  -0.0441   0.2110   1.0000
  10.000   1.2460   0.02062   0.01391  -0.0441   0.2110   1.0000
  10.250   1.2585   0.02142   0.01470  -0.0425   0.2022   1.0000
  10.500   1.2689   0.02235   0.01559  -0.0408   0.1930   1.0000
  10.750   1.2826   0.02314   0.01643  -0.0394   0.1845   1.0000
  11.000   1.2915   0.02423   0.01746  -0.0377   0.1771   1.0000
  11.500   1.3140   0.02621   0.01949  -0.0350   0.1612   1.0000
  11.750   1.3259   0.02719   0.02053  -0.0338   0.1532   1.0000
  12.000   1.3349   0.02841   0.02174  -0.0325   0.1460   1.0000
  12.250   1.3454   0.02954   0.02291  -0.0313   0.1383   1.0000
  12.500   1.3538   0.03087   0.02426  -0.0301   0.1320   1.0000
  12.750   1.3631   0.03215   0.02558  -0.0291   0.1240   1.0000
  13.000   1.3711   0.03358   0.02704  -0.0280   0.1177   1.0000
  13.250   1.3789   0.03506   0.02854  -0.0270   0.1107   1.0000
  13.500   1.3849   0.03673   0.03025  -0.0260   0.1051   1.0000
  13.750   1.3922   0.03835   0.03191  -0.0252   0.0988   1.0000
  14.000   1.3951   0.04039   0.03396  -0.0243   0.0938   1.0000
  14.250   1.4031   0.04204   0.03570  -0.0237   0.0880   1.0000
  14.500   1.4041   0.04440   0.03806  -0.0230   0.0828   1.0000
  14.750   1.4107   0.04628   0.04004  -0.0225   0.0784   1.0000
  15.000   1.4133   0.04862   0.04241  -0.0221   0.0738   1.0000
  15.250   1.4125   0.05139   0.04520  -0.0217   0.0705   1.0000
  15.500   1.4180   0.05356   0.04749  -0.0216   0.0670   1.0000
  15.750   1.4189   0.05629   0.05028  -0.0215   0.0633   1.0000
  16.000   1.4161   0.05953   0.05356  -0.0216   0.0609   1.0000
