
 ===================================================
  XFOIL Version 6.99
  Copyright (C) 2000   Mark Drela, Harold Youngren

  This software comes with ABSOLUTELY NO WARRANTY,
    subject to the GNU General Public License.

  Caveat computor
 ===================================================

 File  xfoil.def  not found

   QUIT    Exit program

  .OPER    Direct operating point(s)
  .MDES    Complex mapping design routine
  .QDES    Surface speed design routine
  .GDES    Geometry design routine

   SAVE f  Write airfoil to labeled coordinate file
   PSAV f  Write airfoil to plain coordinate file
   ISAV f  Write airfoil to ISES coordinate file
   MSAV f  Write airfoil to MSES coordinate file
   REVE    Reverse written-airfoil node ordering

   LOAD f  Read buffer airfoil from coordinate file
   NACA i  Set NACA 4,5-digit airfoil and buffer airfoil
   INTE    Set buffer airfoil by interpolating two airfoils
   NORM    Buffer airfoil normalization toggle
   XYCM rr Change CM reference location, currently  0.25000 0.00000

   BEND    Display structural properties of current airfoil

   PCOP    Set current-airfoil panel nodes directly from buffer airfoil points
   PANE    Set current-airfoil panel nodes ( 160 ) based on curvature
  .PPAR    Show/change paneling

  .PLOP    Plotting options

   WDEF f  Write  current-settings file
   RDEF f  Reread current-settings file
   NAME s  Specify new airfoil name
   NINC    Increment name version number

   Z       Zoom    | (available in all menus)
   U       Unzoom  | 

 XFOIL   c>  
 Labeled airfoil file.  Name:  HQ 3.5/13 AIRFOIL                               

 Number of input coordinate points:  77
 Counterclockwise ordering
 Max thickness =     0.130003  at x =   0.350
 Max camber    =     0.034424  at x =   0.500

  LE  x,y  =  -0.00008   0.00106  |   Chord =   1.00008
  TE  x,y  =   1.00000   0.00000  |

 Current airfoil nodes set from buffer airfoil nodes (  77 )

 WARNING: Poor input coordinate distribution
          Excessive panel angle   43.3  at i =  39
          Repaneling with PANE and/or PPAR suggested
           (doing GDES,CADD before repaneling _may_
            improve excessively coarse LE spacing

 XFOIL   c>  
 XFOIL   c>  
 Sharp trailing edge

 Paneling parameters used...
   Number of panel nodes       160
   Panel bunching parameter    1.000
   TE/LE panel density ratio   0.150
   Refined-area/LE panel density ratio    0.200
   Top    side refined area x/c limits  1.000 1.000
   Bottom side refined area x/c limits  1.000 1.000

 XFOIL   c>  
.OPERi   c>  
 Xtr/c     =  1.0000    top    side
 Xtr/c     =  1.0000    bottom side
 Ncrit     =    9.00   ( 0.070 % turb. level )
 Vacc      =  0.0100

 Klag  =  5.6000     Uxwt  =    1.00
 A     =  6.7000     B     =  0.7500       KCt = 0.01485
 CtiniK=  1.8000     CtiniX=  3.3000

..VPAR   c>  
..VPAR   c>  
.OPERi   c>  
 M  =    0.0000
 Re =    400000

.OPERv   c>  
.OPERv   c>  
.OPERv   c>  
 Polar  1 newly created for accumulation
 Airfoil archived with polar: HQ 3.5/13 AIRFOIL                               

Enter  polar save filename  OR  <return> for no file   s>  
 New polar save file available

Enter  polar dump filename  OR  <return> for no file   s>  
 Polar dump file will NOT be written

 Polar accumulation enabled

.OPERva   c>   Calculating unit vorticity distributions ...
 Calculating wake trajectory ...
 Calculating source influence matrix ...

 Solving BL system ...

 Initializing BL ...
    side            1  ...
 MRCHUE: Inverse mode at  51     Hk =   3.965
 MRCHUE: Inverse mode at  52     Hk =   4.529
 MRCHUE: Inverse mode at  53     Hk =   5.081
 MRCHUE: Inverse mode at  54     Hk =   5.622
 MRCHUE: Inverse mode at  55     Hk =   6.156
 MRCHUE: Inverse mode at  56     Hk =   6.685
 MRCHUE: Inverse mode at  57     Hk =   7.209
 MRCHUE: Inverse mode at  58     Hk =   7.730
 MRCHUE: Inverse mode at  59     Hk =   8.248
 MRCHUE: Inverse mode at  60     Hk =   8.762
 MRCHUE: Inverse mode at  61     Hk =   9.272
 MRCHUE: Inverse mode at  62     Hk =   7.860
 MRCHUE: Inverse mode at  63     Hk =   6.011
 MRCHUE: Inverse mode at  64     Hk =   4.750
 MRCHUE: Inverse mode at  65     Hk =   3.793
 MRCHUE: Inverse mode at  66     Hk =   3.034
    side            2  ...
 MRCHUE: Inverse mode at  13     Hk =   3.800
 MRCHUE: Inverse mode at  14     Hk =   4.749
 MRCHUE: Inverse mode at  19     Hk =   4.306
 MRCHUE: Inverse mode at  20     Hk =   5.610
 MRCHUE: Inverse mode at  21     Hk =   6.998
 MRCHUE: Inverse mode at  22     Hk =   8.519
 MRCHUE: Inverse mode at  23     Hk =   2.645

 Side 1  free  transition at x/c =  0.8000   62
 Side 2  free  transition at x/c =  0.0591   23

   1   rms: 0.1232E+00   max: -.8326E+00   T at   62  1   RLX: 0.601
       a = -4.000      CL =  0.0345
      Cm = -0.1055     CD =  0.01210   =>   CDf =  0.00674    CDp =  0.00535

 Side 1  free  transition at x/c =  0.8186   63
 Side 2  free  transition at x/c =  0.0683   23

   2   rms: 0.5373E-01   max: -.4224E+00   D at   66  1
       a = -4.000      CL =  0.0478
      Cm = -0.1059     CD =  0.01145   =>   CDf =  0.00671    CDp =  0.00473

 Side 1  free  transition at x/c =  0.8384   64
 Side 2  free  transition at x/c =  0.0733   24

   3   rms: 0.1399E-01   max: -.1565E+00   C at   64  1
       a = -4.000      CL =  0.0465
      Cm = -0.1059     CD =  0.01120   =>   CDf =  0.00666    CDp =  0.00454

 Side 1  free  transition at x/c =  0.8347   64
 Side 2  free  transition at x/c =  0.0741   24

   4   rms: 0.1711E-02   max: 0.2179E-01   D at   24  2
       a = -4.000      CL =  0.0475
      Cm = -0.1061     CD =  0.01119   =>   CDf =  0.00661    CDp =  0.00458

 Side 1  free  transition at x/c =  0.8350   64
 Side 2  free  transition at x/c =  0.0742   24

   5   rms: 0.2046E-04   max: 0.2105E-03   D at   24  2
       a = -4.000      CL =  0.0475
      Cm = -0.1061     CD =  0.01119   =>   CDf =  0.00661    CDp =  0.00458
 plradd ia,ip,cpol            1           0  3.04510631E-03

 Point added to stored polar  1
 Point written to save file  hq3513_Re400k.base.pol                          
 Dump file unspecified or not available
 Calculating wake trajectory ...
 Calculating source influence matrix ...

 Solving BL system ...

 Side 1  free  transition at x/c =  0.8350   64
 Side 2  free  transition at x/c =  0.0742   24

   1   rms: 0.1001E+00   max: -.6557E+00   T at   24  2   RLX: 0.763
       a = -3.500      CL =  0.0868
      Cm = -0.1058     CD =  0.01071   =>   CDf =  0.00668    CDp =  0.00403

 Side 1  free  transition at x/c =  0.8246   65
 Side 2  free  transition at x/c =  0.0837   24

   2   rms: 0.1431E+00   max: -.6257E+00   D at   24  2   RLX: 0.799
       a = -3.500      CL =  0.0955
      Cm = -0.1054     CD =  0.01004   =>   CDf =  0.00671    CDp =  0.00333

 Side 1  free  transition at x/c =  0.8244   65
 Side 2  free  transition at x/c =  0.1174   26

   3   rms: 0.5281E-01   max: 0.7676E+00   C at   26  2
       a = -3.500      CL =  0.1021
      Cm = -0.1059     CD =  0.01068   =>   CDf =  0.00654    CDp =  0.00414

 Side 1  free  transition at x/c =  0.8244   65
 Side 2  free  transition at x/c =  0.1006   25

   4   rms: 0.1349E-01   max: -.2467E+00   D at   26  2
       a = -3.500      CL =  0.1017
      Cm = -0.1059     CD =  0.01060   =>   CDf =  0.00662    CDp =  0.00398

 Side 1  free  transition at x/c =  0.8244   65
 Side 2  free  transition at x/c =  0.0975   25

   5   rms: 0.2866E-02   max: -.2995E-01   D at   26  2
       a = -3.500      CL =  0.1018
      Cm = -0.1059     CD =  0.01063   =>   CDf =  0.00664    CDp =  0.00398

 Side 1  free  transition at x/c =  0.8244   65
 Side 2  free  transition at x/c =  0.0967   24

   6   rms: 0.1555E-02   max: -.2255E-01   C at   24  2
       a = -3.500      CL =  0.1018
      Cm = -0.1059     CD =  0.01062   =>   CDf =  0.00665    CDp =  0.00397

 Side 1  free  transition at x/c =  0.8244   65
 Side 2  free  transition at x/c =  0.0968   24

   7   rms: 0.6577E-05   max: -.1120E-03   D at   25  2
       a = -3.500      CL =  0.1018
      Cm = -0.1059     CD =  0.01062   =>   CDf =  0.00665    CDp =  0.00397
 plradd ia,ip,cpol            2           0  3.04510631E-03

 Point added to stored polar  1
 Point written to save file  hq3513_Re400k.base.pol                          
 Dump file unspecified or not available
 Calculating wake trajectory ...
 Calculating source influence matrix ...

 Solving BL system ...

 Side 1  free  transition at x/c =  0.8244   65
 Side 2  free  transition at x/c =  0.0968   24

   1   rms: 0.1037E+00   max: -.8460E+00   T at   24  2   RLX: 0.591
       a = -3.000      CL =  0.1355
      Cm = -0.1060     CD =  0.01049   =>   CDf =  0.00666    CDp =  0.00383

 Side 1  free  transition at x/c =  0.8197   64
 Side 2  free  transition at x/c =  0.1300   27

   2   rms: 0.1160E+00   max: -.1464E+01   C at   27  2   RLX: 0.342
       a = -3.000      CL =  0.1408
      Cm = -0.1061     CD =  0.00999   =>   CDf =  0.00657    CDp =  0.00342

 Side 1  free  transition at x/c =  0.8166   64
 Side 2  free  transition at x/c =  0.1473   28

   3   rms: 0.1285E+00   max: -.2374E+01   C at   28  2   RLX: 0.211
       a = -3.000      CL =  0.1437
      Cm = -0.1059     CD =  0.00996   =>   CDf =  0.00647    CDp =  0.00349

 Side 1  free  transition at x/c =  0.8156   64
 Side 2  free  transition at x/c =  0.1552   28

   4   rms: 0.4884E-01   max: -.6808E+00   C at   28  2   RLX: 0.734
       a = -3.000      CL =  0.1516
      Cm = -0.1057     CD =  0.00988   =>   CDf =  0.00645    CDp =  0.00343

 Side 1  free  transition at x/c =  0.8132   64
 Side 2  free  transition at x/c =  0.2307   33

   5   rms: 0.3161E-01   max: -.4549E+00   C at   33  2
       a = -3.000      CL =  0.1531
      Cm = -0.1057     CD =  0.00954   =>   CDf =  0.00627    CDp =  0.00327

 Side 1  free  transition at x/c =  0.8126   65
 Side 2  free  transition at x/c =  0.2888   36
 idif Ue xi dudx           1  0.13443202      2.65610218E-03   50.612518    
 Uenew xinew           2  4.58544644E-04  9.05990601E-06

   6   rms: 0.3316E-01   max: -.5899E+00   C at   36  2   RLX: 0.848
       a = -3.000      CL =  0.1511
      Cm = -0.1057     CD =  0.00922   =>   CDf =  0.00589    CDp =  0.00333

 Side 1  free  transition at x/c =  0.8126   64
 Side 2  free  transition at x/c =  0.2808   37

   7   rms: 0.4629E-02   max: -.5328E-01   D at    2  2
       a = -3.000      CL =  0.1521
      Cm = -0.1057     CD =  0.00933   =>   CDf =  0.00595    CDp =  0.00338

 Side 1  free  transition at x/c =  0.8126   64
 Side 2  free  transition at x/c =  0.2762   36

   8   rms: 0.9226E-03   max: -.1578E-01   C at   36  2
       a = -3.000      CL =  0.1522
      Cm = -0.1057     CD =  0.00934   =>   CDf =  0.00596    CDp =  0.00338

 Side 1  free  transition at x/c =  0.8126   64
 Side 2  free  transition at x/c =  0.2766   36

   9   rms: 0.9345E-05   max: 0.1326E-03   C at   36  2
       a = -3.000      CL =  0.1522
      Cm = -0.1057     CD =  0.00934   =>   CDf =  0.00596    CDp =  0.00338
 plradd ia,ip,cpol            3           0  3.04510631E-03

 Point added to stored polar  1
 Point written to save file  hq3513_Re400k.base.pol                          
 Dump file unspecified or not available
 Calculating wake trajectory ...
 Calculating source influence matrix ...

 Solving BL system ...

 Side 1  free  transition at x/c =  0.8126   64
 Side 2  free  transition at x/c =  0.2766   36

   1   rms: 0.6012E+00   max: -.1205E+02   C at   36  2   RLX: 0.041
       a = -2.500      CL =  0.1542
      Cm = -0.1057     CD =  0.00927   =>   CDf =  0.00602    CDp =  0.00326

 Side 1  free  transition at x/c =  0.8122   65
 Side 2  free  transition at x/c =  0.2925   36

   2   rms: 0.6686E+00   max: -.1317E+02   C at   36  2   RLX: 0.038
       a = -2.500      CL =  0.1560
      Cm = -0.1057     CD =  0.00919   =>   CDf =  0.00591    CDp =  0.00328

 Side 1  free  transition at x/c =  0.8118   65
 Side 2  free  transition at x/c =  0.3079   37

   3   rms: 0.7158E+00   max: -.1401E+02   C at   37  2   RLX: 0.036
       a = -2.500      CL =  0.1576
      Cm = -0.1057     CD =  0.00912   =>   CDf =  0.00585    CDp =  0.00326

 Side 1  free  transition at x/c =  0.8115   65
 Side 2  free  transition at x/c =  0.3229   38

   4   rms: 0.6941E+00   max: -.1348E+02   C at   38  2   RLX: 0.037
       a = -2.500      CL =  0.1592
      Cm = -0.1057     CD =  0.00905   =>   CDf =  0.00580    CDp =  0.00324

 Side 1  free  transition at x/c =  0.8112   65
 Side 2  free  transition at x/c =  0.3393   40

   5   rms: 0.6385E+00   max: -.1256E+02   C at   40  2   RLX: 0.040
       a = -2.500      CL =  0.1607
      Cm = -0.1057     CD =  0.00896   =>   CDf =  0.00575    CDp =  0.00321

 Side 1  free  transition at x/c =  0.8109   65
 Side 2  free  transition at x/c =  0.3534   40

   6   rms: 0.6191E+00   max: -.1185E+02   C at   40  2   RLX: 0.042
       a = -2.500      CL =  0.1627
      Cm = -0.1058     CD =  0.00892   =>   CDf =  0.00570    CDp =  0.00322

 Side 1  free  transition at x/c =  0.8106   65
 Side 2  free  transition at x/c =  0.3694   42

   7   rms: 0.4912E+00   max: -.9467E+01   C at   42  2   RLX: 0.053
       a = -2.500      CL =  0.1646
      Cm = -0.1058     CD =  0.00883   =>   CDf =  0.00565    CDp =  0.00318

 Side 1  free  transition at x/c =  0.8102   65
 Side 2  free  transition at x/c =  0.3836   42

   8   rms: 0.3799E+00   max: -.7229E+01   C at   42  2   RLX: 0.069
       a = -2.500      CL =  0.1676
      Cm = -0.1058     CD =  0.00880   =>   CDf =  0.00561    CDp =  0.00319

 Side 1  free  transition at x/c =  0.8097   65
 Side 2  free  transition at x/c =  0.4060   44

   9   rms: 0.3286E+00   max: -.6265E+01   C at   44  2   RLX: 0.080
       a = -2.500      CL =  0.1701
      Cm = -0.1057     CD =  0.00870   =>   CDf =  0.00553    CDp =  0.00317

 Side 1  free  transition at x/c =  0.8092   65
 Side 2  free  transition at x/c =  0.4259   45

  10   rms: 0.1881E+00   max: -.3441E+01   C at   45  2   RLX: 0.145
       a = -2.500      CL =  0.1752
      Cm = -0.1057     CD =  0.00865   =>   CDf =  0.00548    CDp =  0.00317

 Side 1  free  transition at x/c =  0.8085   64
 Side 2  free  transition at x/c =  0.4610   48

  11   rms: 0.1599E+00   max: -.2805E+01   C at   48  2   RLX: 0.178
       a = -2.500      CL =  0.1787
      Cm = -0.1054     CD =  0.00852   =>   CDf =  0.00537    CDp =  0.00315

 Side 1  free  transition at x/c =  0.8070   64
 Side 2  free  transition at x/c =  0.4747   48

  12   rms: 0.5495E-01   max: -.6253E+00   C at   48  2   RLX: 0.800
       a = -2.500      CL =  0.1982
      Cm = -0.1054     CD =  0.00851   =>   CDf =  0.00534    CDp =  0.00317

 Side 1  free  transition at x/c =  0.8013   64
 Side 2  free  transition at x/c =  0.5475   53

  13   rms: 0.2125E-01   max: 0.2524E+00   D at   49  2
       a = -2.500      CL =  0.2021
      Cm = -0.1051     CD =  0.00838   =>   CDf =  0.00519    CDp =  0.00319

 Side 1  free  transition at x/c =  0.8010   64
 Side 2  free  transition at x/c =  0.5372   53

  14   rms: 0.3803E-02   max: -.7156E-01   D at   53  2
       a = -2.500      CL =  0.2026
      Cm = -0.1052     CD =  0.00842   =>   CDf =  0.00517    CDp =  0.00324

 Side 1  free  transition at x/c =  0.8010   64
 Side 2  free  transition at x/c =  0.5343   52

  15   rms: 0.1079E-03   max: -.1114E-02   D at   52  2
       a = -2.500      CL =  0.2026
      Cm = -0.1052     CD =  0.00842   =>   CDf =  0.00518    CDp =  0.00324

 Side 1  free  transition at x/c =  0.8010   64
 Side 2  free  transition at x/c =  0.5342   52

  16   rms: 0.9650E-06   max: -.9873E-05   C at   52  2
       a = -2.500      CL =  0.2026
      Cm = -0.1052     CD =  0.00842   =>   CDf =  0.00518    CDp =  0.00324
 plradd ia,ip,cpol            4           0  3.04510631E-03

 Point added to stored polar  1
 Point written to save file  hq3513_Re400k.base.pol                          
 Dump file unspecified or not available
 Calculating wake trajectory ...
 Calculating source influence matrix ...

 Solving BL system ...

 Side 1  free  transition at x/c =  0.8010   64
 Side 2  free  transition at x/c =  0.5342   52

   1   rms: 0.1048E+00   max: -.8304E+00   C at   52  2   RLX: 0.602
       a = -2.000      CL =  0.2360
      Cm = -0.1050     CD =  0.00838   =>   CDf =  0.00522    CDp =  0.00316

 Side 1  free  transition at x/c =  0.7935   64
 Side 2  free  transition at x/c =  0.5785   54

   2   rms: 0.7344E-01   max: -.1067E+01   D at    2  1   RLX: 0.469
       a = -2.000      CL =  0.2456
      Cm = -0.1047     CD =  0.00843   =>   CDf =  0.00519    CDp =  0.00324

 Side 1  free  transition at x/c =  0.7911   64
 Side 2  free  transition at x/c =  0.5940   55

   3   rms: 0.2263E-01   max: 0.1727E+00   D at   55  2
       a = -2.000      CL =  0.2573
      Cm = -0.1046     CD =  0.00834   =>   CDf =  0.00510    CDp =  0.00325

 Side 1  free  transition at x/c =  0.7885   64
 Side 2  free  transition at x/c =  0.6004   56

   4   rms: 0.1763E-02   max: 0.2091E-01   C at   56  2
       a = -2.000      CL =  0.2574
      Cm = -0.1046     CD =  0.00836   =>   CDf =  0.00515    CDp =  0.00321

 Side 1  free  transition at x/c =  0.7887   64
 Side 2  free  transition at x/c =  0.5995   56

   5   rms: 0.3352E-04   max: -.4458E-03   D at   58  2
       a = -2.000      CL =  0.2574
      Cm = -0.1046     CD =  0.00836   =>   CDf =  0.00515    CDp =  0.00321
 plradd ia,ip,cpol            5           0  1.64653510E-02

 Point added to stored polar  1
 Point written to save file  hq3513_Re400k.base.pol                          
 Dump file unspecified or not available
 Calculating wake trajectory ...
 Calculating source influence matrix ...

 Solving BL system ...

 Side 1  free  transition at x/c =  0.7887   64
 Side 2  free  transition at x/c =  0.5995   56

   1   rms: 0.1043E+00   max: 0.6143E+00   D at   57  2   RLX: 0.839
       a = -1.500      CL =  0.3017
      Cm = -0.1038     CD =  0.00830   =>   CDf =  0.00515    CDp =  0.00314

 Side 1  free  transition at x/c =  0.7749   63
 Side 2  free  transition at x/c =  0.6243   57

   2   rms: 0.3439E-01   max: -.3029E+00   T at   57  2
       a = -1.500      CL =  0.3133
      Cm = -0.1043     CD =  0.00850   =>   CDf =  0.00538    CDp =  0.00312

 MRCHDU: Convergence failed at  58  side 2    Res =  0.1559E+02
 MRCHDU: Convergence failed at  59  side 2    Res =  0.1728E+01
 MRCHDU: Convergence failed at  60  side 2    Res =  0.2060E+01
 MRCHDU: Convergence failed at  61  side 2    Res =  0.3182E+01
 MRCHDU: Convergence failed at  62  side 2    Res =  0.4698E+01
 MRCHDU: Convergence failed at  63  side 2    Res =  0.6471E+01
 MRCHDU: Convergence failed at  64  side 2    Res =  0.8038E+01
 MRCHDU: Convergence failed at  65  side 2    Res =  0.9362E+01
 MRCHDU: Convergence failed at  66  side 2    Res =  0.1021E+02
 MRCHDU: Convergence failed at  67  side 2    Res =  0.1068E+02
 MRCHDU: Convergence failed at  68  side 2    Res =  0.1093E+02
 MRCHDU: Convergence failed at  69  side 2    Res =  0.1096E+02
 MRCHDU: Convergence failed at  70  side 2    Res =  0.1065E+02
 MRCHDU: Convergence failed at  71  side 2    Res =  0.1038E+02
 MRCHDU: Convergence failed at  72  side 2    Res =  0.1034E+02
 MRCHDU: Convergence failed at  73  side 2    Res =  0.9959E+01
 MRCHDU: Convergence failed at  74  side 2    Res =  0.9413E+01
 MRCHDU: Convergence failed at  75  side 2    Res =  0.8977E+01
 MRCHDU: Convergence failed at  76  side 2    Res =  0.8336E+01
 MRCHDU: Convergence failed at  77  side 2    Res =  0.7687E+01
 MRCHDU: Convergence failed at  78  side 2    Res =  0.7166E+01
 MRCHDU: Convergence failed at  79  side 2    Res =  0.6701E+01
 MRCHDU: Convergence failed at  80  side 2    Res =  0.6228E+01
 MRCHDU: Convergence failed at  81  side 2    Res =  0.5846E+01
 MRCHDU: Convergence failed at  82  side 2    Res =  0.5480E+01
 Side 1  free  transition at x/c =  0.7747   64
 Side 2  free  transition at x/c =  0.6491   58

   3   rms: 0.2862E+00   max: -.4096E+01   D at    2  1   RLX: 0.122
       a = -1.500      CL =  0.2488
      Cm = -0.0655     CD =  0.00648   =>   CDf =  0.00415    CDp =  0.00233

 Side 1  free  transition at x/c =  0.7747   64
 Side 2  free  transition at x/c =  0.6484   58
 idif Ue xi dudx           1  0.16409470      2.04694271E-03   80.165749    
 Uenew xinew           2  2.39868206E-03  2.99215317E-05

   4   rms: 0.1068E+00   max: -.1231E+00   U at   82  2
       a = -1.500      CL =  0.3105
      Cm = -0.1038     CD =  0.00812   =>   CDf =  0.00570    CDp =  0.00242

 Side 1  free  transition at x/c =  0.7744   63
 Side 2  free  transition at x/c =  0.6425   58

   5   rms: 0.1610E-01   max: -.2671E+00   D at    2  2
       a = -1.500      CL =  0.3122
      Cm = -0.1040     CD =  0.00839   =>   CDf =  0.00523    CDp =  0.00316

 Side 1  free  transition at x/c =  0.7744   64
 Side 2  free  transition at x/c =  0.6424   57

   6   rms: 0.5837E-02   max: 0.1005E+00   D at    2  1
       a = -1.500      CL =  0.3122
      Cm = -0.1040     CD =  0.00838   =>   CDf =  0.00522    CDp =  0.00316

 Side 1  free  transition at x/c =  0.7744   64
 Side 2  free  transition at x/c =  0.6424   57
 idif Ue xi dudx           1  0.16229105      2.02059746E-03   80.318352    
 Uenew xinew           2  2.87240808E-04  3.57627869E-06

   7   rms: 0.1540E-02   max: 0.1781E-01   D at    4  1
       a = -1.500      CL =  0.3122
      Cm = -0.1040     CD =  0.00838   =>   CDf =  0.00520    CDp =  0.00318

 Side 1  free  transition at x/c =  0.7744   63
 Side 2  free  transition at x/c =  0.6424   58

   8   rms: 0.7970E-01   max: 0.1415E+01   D at    2  2   RLX: 0.848
       a = -1.500      CL =  0.3122
      Cm = -0.1040     CD =  0.00838   =>   CDf =  0.00522    CDp =  0.00317

 Side 1  free  transition at x/c =  0.7744   63
 Side 2  free  transition at x/c =  0.6424   58

   9   rms: 0.3969E-02   max: 0.4928E-01   D at    4  2
       a = -1.500      CL =  0.3122
      Cm = -0.1040     CD =  0.00838   =>   CDf =  0.00522    CDp =  0.00317

 Side 1  free  transition at x/c =  0.7744   63
 Side 2  free  transition at x/c =  0.6424   58

  10   rms: 0.9600E-04   max: -.9788E-03   D at    7  2
       a = -1.500      CL =  0.3122
      Cm = -0.1040     CD =  0.00838   =>   CDf =  0.00522    CDp =  0.00317
 plradd ia,ip,cpol            6           0  0.17177843    

 Point added to stored polar  1
 Point written to save file  hq3513_Re400k.base.pol                          
 Dump file unspecified or not available
 Calculating wake trajectory ...
 Calculating source influence matrix ...

 Solving BL system ...

 Side 1  free  transition at x/c =  0.7744   63
 Side 2  free  transition at x/c =  0.6424   58

   1   rms: 0.1375E+00   max: 0.1489E+01   D at    3  2   RLX: 0.803
       a = -1.000      CL =  0.3567
      Cm = -0.1038     CD =  0.00851   =>   CDf =  0.00523    CDp =  0.00327

 Side 1  free  transition at x/c =  0.7620   63
 Side 2  free  transition at x/c =  0.6694   59

   2   rms: 0.3108E-01   max: -.1957E+00   D at    5  2
       a = -1.000      CL =  0.3672
      Cm = -0.1035     CD =  0.00843   =>   CDf =  0.00534    CDp =  0.00310

 Side 1  free  transition at x/c =  0.7610   63
 Side 2  free  transition at x/c =  0.6743   60

   3   rms: 0.3621E-02   max: 0.5650E-01   D at   60  2
       a = -1.000      CL =  0.3671
      Cm = -0.1034     CD =  0.00844   =>   CDf =  0.00528    CDp =  0.00316

 Side 1  free  transition at x/c =  0.7608   63
 Side 2  free  transition at x/c =  0.6733   60

   4   rms: 0.2710E-03   max: 0.3480E-02   D at   60  2
       a = -1.000      CL =  0.3671
      Cm = -0.1034     CD =  0.00844   =>   CDf =  0.00528    CDp =  0.00316

 Side 1  free  transition at x/c =  0.7608   63
 Side 2  free  transition at x/c =  0.6732   60

   5   rms: 0.1448E-05   max: 0.7737E-05   C at   60  2
       a = -1.000      CL =  0.3671
      Cm = -0.1034     CD =  0.00844   =>   CDf =  0.00528    CDp =  0.00316
 plradd ia,ip,cpol            7           0  0.17177843    

 Point added to stored polar  1
 Point written to save file  hq3513_Re400k.base.pol                          
 Dump file unspecified or not available
 Calculating wake trajectory ...
 Calculating source influence matrix ...

 Solving BL system ...

 Side 1  free  transition at x/c =  0.7608   63
 Side 2  free  transition at x/c =  0.6732   60

   1   rms: 0.1089E+00   max: 0.7415E+00   D at   61  2   RLX: 0.787
       a = -0.500      CL =  0.4069
      Cm = -0.1021     CD =  0.00835   =>   CDf =  0.00528    CDp =  0.00307

 Side 1  free  transition at x/c =  0.7483   63
 Side 2  free  transition at x/c =  0.6946   60

   2   rms: 0.3492E-01   max: -.2898E+00   T at   60  2
       a = -0.500      CL =  0.4209
      Cm = -0.1025     CD =  0.00853   =>   CDf =  0.00535    CDp =  0.00318

 Side 1  free  transition at x/c =  0.7482   63
 Side 2  free  transition at x/c =  0.7038   61

   3   rms: 0.2519E-01   max: -.2104E+00   D at   61  2
       a = -0.500      CL =  0.4211
      Cm = -0.1026     CD =  0.00850   =>   CDf =  0.00536    CDp =  0.00315

 Side 1  free  transition at x/c =  0.7478   63
 Side 2  free  transition at x/c =  0.7072   61

   4   rms: 0.2733E-02   max: -.4023E-01   D at   63  2
       a = -0.500      CL =  0.4211
      Cm = -0.1026     CD =  0.00855   =>   CDf =  0.00527    CDp =  0.00328

 Side 1  free  transition at x/c =  0.7478   63
 Side 2  free  transition at x/c =  0.7064   61

   5   rms: 0.1457E-03   max: -.1889E-02   D at   61  2
       a = -0.500      CL =  0.4211
      Cm = -0.1026     CD =  0.00855   =>   CDf =  0.00529    CDp =  0.00327

 Side 1  free  transition at x/c =  0.7478   63
 Side 2  free  transition at x/c =  0.7064   61

   6   rms: 0.9613E-06   max: -.7695E-05   T at   61  2
       a = -0.500      CL =  0.4211
      Cm = -0.1026     CD =  0.00855   =>   CDf =  0.00529    CDp =  0.00327
 plradd ia,ip,cpol            8           0  0.15802711    

 Point added to stored polar  1
 Point written to save file  hq3513_Re400k.base.pol                          
 Dump file unspecified or not available
 Calculating wake trajectory ...
 Calculating source influence matrix ...

 Solving BL system ...

 Side 1  free  transition at x/c =  0.7478   63
 Side 2  free  transition at x/c =  0.7064   61

   1   rms: 0.8408E-01   max: -.4628E+00   T at   61  2
       a =  0.000      CL =  0.4730
      Cm = -0.1015     CD =  0.00853   =>   CDf =  0.00527    CDp =  0.00326

 Side 1  free  transition at x/c =  0.7314   63
 Side 2  free  transition at x/c =  0.7184   60

   2   rms: 0.4360E-01   max: -.4007E+00   D at   61  2
       a =  0.000      CL =  0.4778
      Cm = -0.1026     CD =  0.00885   =>   CDf =  0.00549    CDp =  0.00336

 MRCHDU: Convergence failed at  62  side 2    Res =  0.4176E+01
 MRCHDU: Convergence failed at  63  side 2    Res =  0.3099E+01
 MRCHDU: Convergence failed at  64  side 2    Res =  0.5254E+02
 MRCHDU: Convergence failed at  65  side 2    Res =  0.9813E+01
 MRCHDU: Convergence failed at  66  side 2    Res =  0.6455E+01
 MRCHDU: Convergence failed at  67  side 2    Res =  0.5462E+01
 MRCHDU: Convergence failed at  68  side 2    Res =  0.5226E+01
 MRCHDU: Convergence failed at  69  side 2    Res =  0.5171E+01
 MRCHDU: Convergence failed at  70  side 2    Res =  0.4953E+01
 MRCHDU: Convergence failed at  71  side 2    Res =  0.4919E+01
 MRCHDU: Convergence failed at  72  side 2    Res =  0.5214E+01
 MRCHDU: Convergence failed at  73  side 2    Res =  0.5466E+01
 MRCHDU: Convergence failed at  74  side 2    Res =  0.5928E+01
 MRCHDU: Convergence failed at  75  side 2    Res =  0.6468E+01
 MRCHDU: Convergence failed at  76  side 2    Res =  0.7350E+01
 MRCHDU: Convergence failed at  77  side 2    Res =  0.8686E+01
 MRCHDU: Convergence failed at  78  side 2    Res =  0.1397E+02
 MRCHDU: Convergence failed at  79  side 2    Res =  0.7579E+02
 MRCHDU: Convergence failed at  80  side 2    Res =  0.2476E+02
 Side 1  free  transition at x/c =  0.7349   64
 Side 2  free  transition at x/c =  0.7309   61

   3   rms: 0.1239E+00   max: 0.7005E+00   T at   61  2
       a =  0.000      CL =  0.4950
      Cm = -0.1041     CD =  0.00791   =>   CDf =  0.00456    CDp =  0.00335

 Side 1  free  transition at x/c =  0.7354   64
 Side 2  free  transition at x/c =  0.7026   59

   4   rms: 0.6695E-01   max: -.7200E+00   D at   62  2   RLX: 0.694
       a =  0.000      CL =  0.4857
      Cm = -0.1039     CD =  0.00922   =>   CDf =  0.00548    CDp =  0.00375

 MRCHDU: Convergence failed at  61  side 2    Res =  0.4767E+01
 MRCHDU: Convergence failed at  62  side 2    Res =  0.1825E+03
 MRCHDU: Convergence failed at  63  side 2    Res =  0.3250E+01
 MRCHDU: Convergence failed at  64  side 2    Res =  0.3046E+01
 MRCHDU: Convergence failed at  65  side 2    Res =  0.4109E+01
 MRCHDU: Convergence failed at  66  side 2    Res =  0.5244E+01
 MRCHDU: Convergence failed at  67  side 2    Res =  0.6348E+01
 MRCHDU: Convergence failed at  68  side 2    Res =  0.7346E+01
 MRCHDU: Convergence failed at  69  side 2    Res =  0.8009E+01
 MRCHDU: Convergence failed at  70  side 2    Res =  0.8210E+01
 MRCHDU: Convergence failed at  71  side 2    Res =  0.8330E+01
 MRCHDU: Convergence failed at  72  side 2    Res =  0.8185E+01
 MRCHDU: Convergence failed at  73  side 2    Res =  0.7300E+01
 MRCHDU: Convergence failed at  74  side 2    Res =  0.6487E+01
 MRCHDU: Convergence failed at  75  side 2    Res =  0.6278E+01
 MRCHDU: Convergence failed at  76  side 2    Res =  0.6017E+01
 MRCHDU: Convergence failed at  77  side 2    Res =  0.5511E+01
 MRCHDU: Convergence failed at  78  side 2    Res =  0.5042E+01
 MRCHDU: Convergence failed at  79  side 2    Res =  0.4702E+01
 MRCHDU: Convergence failed at  80  side 2    Res =  0.5146E+01
 Side 1  free  transition at x/c =  0.7349   64
 Side 2  free  transition at x/c =  0.7250   61

   5   rms: 0.1992E+00   max: 0.9721E+00   T at   70  2   RLX: 0.648
       a =  0.000      CL =  0.4630
      Cm = -0.0933     CD =  0.00760   =>   CDf =  0.00454    CDp =  0.00306

 Side 1  free  transition at x/c =  0.7348   64
 Side 2  free  transition at x/c =  0.7234   61

   6   rms: 0.3723E-01   max: -.4082E+00   D at   62  2
       a =  0.000      CL =  0.4759
      Cm = -0.1021     CD =  0.00860   =>   CDf =  0.00550    CDp =  0.00311

 Side 1  free  transition at x/c =  0.7348   64
 Side 2  free  transition at x/c =  0.7254   61

   7   rms: 0.3348E-02   max: 0.4196E-01   D at   63  2
       a =  0.000      CL =  0.4761
      Cm = -0.1021     CD =  0.00860   =>   CDf =  0.00533    CDp =  0.00327

 Side 1  free  transition at x/c =  0.7348   64
 Side 2  free  transition at x/c =  0.7249   61

   8   rms: 0.4932E-04   max: -.9458E-03   D at   64  2
       a =  0.000      CL =  0.4761
      Cm = -0.1021     CD =  0.00860   =>   CDf =  0.00533    CDp =  0.00327
 plradd ia,ip,cpol            9           0  0.15802711    

 Point added to stored polar  1
 Point written to save file  hq3513_Re400k.base.pol                          
 Dump file unspecified or not available
 Calculating wake trajectory ...
 Calculating source influence matrix ...

 Solving BL system ...

 Side 1  free  transition at x/c =  0.7348   64
 Side 2  free  transition at x/c =  0.7249   61

   1   rms: 0.8435E-01   max: -.3526E+00   T at   61  2
       a =  0.500      CL =  0.5332
      Cm = -0.1021     CD =  0.00874   =>   CDf =  0.00533    CDp =  0.00340

 Side 1  free  transition at x/c =  0.7207   63
 Side 2  free  transition at x/c =  0.7336   61

   2   rms: 0.4069E-01   max: -.3741E+00   D at   62  2
       a =  0.500      CL =  0.5324
      Cm = -0.1021     CD =  0.00873   =>   CDf =  0.00544    CDp =  0.00329

 MRCHDU: Convergence failed at  63  side 2    Res =  0.3781E+01
 MRCHDU: Convergence failed at  64  side 2    Res =  0.1597E+01
 MRCHDU: Convergence failed at  65  side 2    Res =  0.1269E+01
 MRCHDU: Convergence failed at  66  side 2    Res =  0.2133E+01
 MRCHDU: Convergence failed at  67  side 2    Res =  0.2762E+01
 MRCHDU: Convergence failed at  68  side 2    Res =  0.3392E+01
 MRCHDU: Convergence failed at  69  side 2    Res =  0.3860E+01
 MRCHDU: Convergence failed at  70  side 2    Res =  0.4045E+01
 MRCHDU: Convergence failed at  71  side 2    Res =  0.4237E+01
 MRCHDU: Convergence failed at  72  side 2    Res =  0.3868E+01
 MRCHDU: Convergence failed at  73  side 2    Res =  0.3377E+01
 MRCHDU: Convergence failed at  74  side 2    Res =  0.2849E+01
 MRCHDU: Convergence failed at  75  side 2    Res =  0.2634E+01
 MRCHDU: Convergence failed at  76  side 2    Res =  0.2444E+01
 MRCHDU: Convergence failed at  77  side 2    Res =  0.2181E+01
 MRCHDU: Convergence failed at  78  side 2    Res =  0.2001E+01
 MRCHDU: Convergence failed at  79  side 2    Res =  0.1930E+01
 MRCHDU: Convergence failed at  80  side 2    Res =  0.2407E+01
 Side 1  free  transition at x/c =  0.7200   63
 Side 2  free  transition at x/c =  0.7444   62

   3   rms: 0.1061E+00   max: 0.6293E+00   T at   65  2
       a =  0.500      CL =  0.5446
      Cm = -0.1045     CD =  0.00790   =>   CDf =  0.00466    CDp =  0.00324

 Side 1  free  transition at x/c =  0.7198   63
 Side 2  free  transition at x/c =  0.7392   62

   4   rms: 0.1624E-01   max: -.1541E+00   D at   65  2
       a =  0.500      CL =  0.5310
      Cm = -0.1018     CD =  0.00860   =>   CDf =  0.00538    CDp =  0.00322

 Side 1  free  transition at x/c =  0.7197   63
 Side 2  free  transition at x/c =  0.7391   62

   5   rms: 0.9649E-03   max: -.1721E-01   D at   65  2
       a =  0.500      CL =  0.5309
      Cm = -0.1017     CD =  0.00861   =>   CDf =  0.00539    CDp =  0.00323

 Side 1  free  transition at x/c =  0.7197   63
 Side 2  free  transition at x/c =  0.7389   62

   6   rms: 0.1265E-04   max: -.2565E-03   D at   65  2
       a =  0.500      CL =  0.5309
      Cm = -0.1017     CD =  0.00861   =>   CDf =  0.00539    CDp =  0.00322
 plradd ia,ip,cpol           10           0  0.15802711    

 Point added to stored polar  1
 Point written to save file  hq3513_Re400k.base.pol                          
 Dump file unspecified or not available
 Calculating wake trajectory ...
 Calculating source influence matrix ...

 Solving BL system ...

 Side 1  free  transition at x/c =  0.7197   63
 Side 2  free  transition at x/c =  0.7388   62

   1   rms: 0.8314E-01   max: -.2834E+00   T at   62  2
       a =  1.000      CL =  0.5882
      Cm = -0.1018     CD =  0.00873   =>   CDf =  0.00534    CDp =  0.00339

 Side 1  free  transition at x/c =  0.7074   63
 Side 2  free  transition at x/c =  0.7499   62

   2   rms: 0.2757E-01   max: -.2022E+00   D at   63  1
       a =  1.000      CL =  0.5855
      Cm = -0.1014     CD =  0.00856   =>   CDf =  0.00544    CDp =  0.00313

 Side 1  free  transition at x/c =  0.7046   62
 Side 2  free  transition at x/c =  0.7528   62

   3   rms: 0.2534E-02   max: -.3579E-01   D at   64  2
       a =  1.000      CL =  0.5858
      Cm = -0.1014     CD =  0.00864   =>   CDf =  0.00542    CDp =  0.00321

 Side 1  free  transition at x/c =  0.7048   62
 Side 2  free  transition at x/c =  0.7521   62

   4   rms: 0.1046E-03   max: -.1376E-02   D at   64  2
       a =  1.000      CL =  0.5858
      Cm = -0.1014     CD =  0.00864   =>   CDf =  0.00543    CDp =  0.00321

 Side 1  free  transition at x/c =  0.7048   62
 Side 2  free  transition at x/c =  0.7521   62

   5   rms: 0.6360E-06   max: 0.4395E-05   T at   62  2
       a =  1.000      CL =  0.5858
      Cm = -0.1014     CD =  0.00864   =>   CDf =  0.00543    CDp =  0.00321
 plradd ia,ip,cpol           11           0  0.14448518    

 Point added to stored polar  1
 Point written to save file  hq3513_Re400k.base.pol                          
 Dump file unspecified or not available
 Calculating wake trajectory ...
 Calculating source influence matrix ...

 Solving BL system ...

 Side 1  free  transition at x/c =  0.7048   62
 Side 2  free  transition at x/c =  0.7521   62

   1   rms: 0.7922E-01   max: -.3251E+00   T at   62  2
       a =  1.500      CL =  0.6373
      Cm = -0.1006     CD =  0.00858   =>   CDf =  0.00536    CDp =  0.00321

 Side 1  free  transition at x/c =  0.6842   62
 Side 2  free  transition at x/c =  0.7626   61

   2   rms: 0.2894E-01   max: -.2439E+00   D at   62  2
       a =  1.500      CL =  0.6406
      Cm = -0.1012     CD =  0.00871   =>   CDf =  0.00556    CDp =  0.00315

 Side 1  free  transition at x/c =  0.6897   62
 Side 2  free  transition at x/c =  0.7674   62

   3   rms: 0.6647E-02   max: 0.1155E+00   D at   62  2
       a =  1.500      CL =  0.6401
      Cm = -0.1011     CD =  0.00868   =>   CDf =  0.00544    CDp =  0.00323

 Side 1  free  transition at x/c =  0.6890   62
 Side 2  free  transition at x/c =  0.7658   62

   4   rms: 0.6437E-03   max: 0.8782E-02   D at   62  2
       a =  1.500      CL =  0.6401
      Cm = -0.1011     CD =  0.00868   =>   CDf =  0.00544    CDp =  0.00323

 Side 1  free  transition at x/c =  0.6890   62
 Side 2  free  transition at x/c =  0.7657   62

   5   rms: 0.4816E-05   max: -.5220E-04   D at   64  2
       a =  1.500      CL =  0.6401
      Cm = -0.1011     CD =  0.00868   =>   CDf =  0.00545    CDp =  0.00323
 plradd ia,ip,cpol           12           0  0.14448518    

 Point added to stored polar  1
 Point written to save file  hq3513_Re400k.base.pol                          
 Dump file unspecified or not available
 Calculating wake trajectory ...
 Calculating source influence matrix ...

 Solving BL system ...

 Side 1  free  transition at x/c =  0.6890   62
 Side 2  free  transition at x/c =  0.7657   62

   1   rms: 0.7933E-01   max: -.3283E+00   T at   62  2
       a =  2.000      CL =  0.6914
      Cm = -0.1001     CD =  0.00859   =>   CDf =  0.00545    CDp =  0.00314

 Side 1  free  transition at x/c =  0.6680   61
 Side 2  free  transition at x/c =  0.7769   62

   2   rms: 0.2682E-01   max: -.2361E+00   D at   63  2
       a =  2.000      CL =  0.6941
      Cm = -0.1006     CD =  0.00873   =>   CDf =  0.00555    CDp =  0.00318

 Side 1  free  transition at x/c =  0.6729   61
 Side 2  free  transition at x/c =  0.7809   63

   3   rms: 0.3936E-02   max: 0.6518E-01   D at   63  2
       a =  2.000      CL =  0.6938
      Cm = -0.1006     CD =  0.00873   =>   CDf =  0.00544    CDp =  0.00328

 Side 1  free  transition at x/c =  0.6721   61
 Side 2  free  transition at x/c =  0.7800   63

   4   rms: 0.4457E-03   max: 0.6667E-02   D at   63  2
       a =  2.000      CL =  0.6938
      Cm = -0.1006     CD =  0.00872   =>   CDf =  0.00544    CDp =  0.00328

 Side 1  free  transition at x/c =  0.6721   61
 Side 2  free  transition at x/c =  0.7799   63

   5   rms: 0.2123E-05   max: -.1973E-04   D at   65  2
       a =  2.000      CL =  0.6938
      Cm = -0.1006     CD =  0.00872   =>   CDf =  0.00544    CDp =  0.00328
 plradd ia,ip,cpol           13           0  0.14448518    

 Point added to stored polar  1
 Point written to save file  hq3513_Re400k.base.pol                          
 Dump file unspecified or not available
 Calculating wake trajectory ...
 Calculating source influence matrix ...

 Solving BL system ...

 Side 1  free  transition at x/c =  0.6721   61
 Side 2  free  transition at x/c =  0.7799   63

   1   rms: 0.7926E-01   max: -.3264E+00   T at   63  2
       a =  2.500      CL =  0.7454
      Cm = -0.0996     CD =  0.00864   =>   CDf =  0.00533    CDp =  0.00331

 Side 1  free  transition at x/c =  0.6497   61
 Side 2  free  transition at x/c =  0.7917   62

   2   rms: 0.2726E-01   max: -.2539E+00   D at   63  2
       a =  2.500      CL =  0.7471
      Cm = -0.1000     CD =  0.00877   =>   CDf =  0.00554    CDp =  0.00323

 Side 1  free  transition at x/c =  0.6549   61
 Side 2  free  transition at x/c =  0.7959   63

   3   rms: 0.4885E-02   max: 0.6586E-01   D at   63  2
       a =  2.500      CL =  0.7469
      Cm = -0.0999     CD =  0.00878   =>   CDf =  0.00540    CDp =  0.00337

 Side 1  free  transition at x/c =  0.6535   61
 Side 2  free  transition at x/c =  0.7950   63

   4   rms: 0.4879E-03   max: 0.7204E-02   D at   63  2
       a =  2.500      CL =  0.7468
      Cm = -0.0999     CD =  0.00878   =>   CDf =  0.00541    CDp =  0.00337

 Side 1  free  transition at x/c =  0.6535   61
 Side 2  free  transition at x/c =  0.7949   63

   5   rms: 0.2391E-05   max: -.2534E-04   D at   65  2
       a =  2.500      CL =  0.7468
      Cm = -0.0999     CD =  0.00878   =>   CDf =  0.00541    CDp =  0.00336
 plradd ia,ip,cpol           14           0  0.13111970    

 Point added to stored polar  1
 Point written to save file  hq3513_Re400k.base.pol                          
 Dump file unspecified or not available
 Calculating wake trajectory ...
 Calculating source influence matrix ...

 Solving BL system ...

 Side 1  free  transition at x/c =  0.6535   61
 Side 2  free  transition at x/c =  0.7949   63

   1   rms: 0.8060E-01   max: -.3251E+00   T at   63  2
       a =  3.000      CL =  0.7980
      Cm = -0.0989     CD =  0.00873   =>   CDf =  0.00528    CDp =  0.00344

 Side 1  free  transition at x/c =  0.6292   60
 Side 2  free  transition at x/c =  0.8073   62

   2   rms: 0.2951E-01   max: -.3155E+00   D at   61  1
       a =  3.000      CL =  0.7995
      Cm = -0.0992     CD =  0.00890   =>   CDf =  0.00551    CDp =  0.00339

 Side 1  free  transition at x/c =  0.6334   61
 Side 2  free  transition at x/c =  0.8128   63

   3   rms: 0.7547E-02   max: 0.1083E+00   D at   63  2
       a =  3.000      CL =  0.7988
      Cm = -0.0991     CD =  0.00885   =>   CDf =  0.00538    CDp =  0.00347

 Side 1  free  transition at x/c =  0.6319   61
 Side 2  free  transition at x/c =  0.8111   63

   4   rms: 0.7812E-03   max: 0.9162E-02   D at   63  2
       a =  3.000      CL =  0.7987
      Cm = -0.0991     CD =  0.00885   =>   CDf =  0.00540    CDp =  0.00345

 Side 1  free  transition at x/c =  0.6318   61
 Side 2  free  transition at x/c =  0.8109   63

   5   rms: 0.6789E-05   max: -.9773E-04   D at   65  2
       a =  3.000      CL =  0.7987
      Cm = -0.0991     CD =  0.00885   =>   CDf =  0.00540    CDp =  0.00344
 plradd ia,ip,cpol           15           0  0.11792383    

 Point added to stored polar  1
 Point written to save file  hq3513_Re400k.base.pol                          
 Dump file unspecified or not available
 Calculating wake trajectory ...
 Calculating source influence matrix ...

 Solving BL system ...

 Side 1  free  transition at x/c =  0.6318   61
 Side 2  free  transition at x/c =  0.8109   63

   1   rms: 0.8607E-01   max: -.3110E+00   T at   63  2
       a =  3.500      CL =  0.8495
      Cm = -0.0979     CD =  0.00894   =>   CDf =  0.00541    CDp =  0.00353

 Side 1  free  transition at x/c =  0.6082   59
 Side 2  free  transition at x/c =  0.8240   63

   2   rms: 0.2414E-01   max: -.3229E+00   D at   64  2
       a =  3.500      CL =  0.8506
      Cm = -0.0983     CD =  0.00900   =>   CDf =  0.00544    CDp =  0.00356

 Side 1  free  transition at x/c =  0.6064   59
 Side 2  free  transition at x/c =  0.8330   64

   3   rms: 0.1452E-01   max: 0.2017E+00   C at   64  2
       a =  3.500      CL =  0.8495
      Cm = -0.0980     CD =  0.00892   =>   CDf =  0.00533    CDp =  0.00359

 Side 1  free  transition at x/c =  0.6065   59
 Side 2  free  transition at x/c =  0.8298   64

   4   rms: 0.2266E-02   max: -.3016E-01   D at   66  2
       a =  3.500      CL =  0.8492
      Cm = -0.0980     CD =  0.00892   =>   CDf =  0.00535    CDp =  0.00357

 Side 1  free  transition at x/c =  0.6065   59
 Side 2  free  transition at x/c =  0.8290   64

   5   rms: 0.5726E-04   max: -.1157E-02   D at   66  2
       a =  3.500      CL =  0.8492
      Cm = -0.0980     CD =  0.00892   =>   CDf =  0.00535    CDp =  0.00356
 plradd ia,ip,cpol           16           0  0.10493730    

 Point added to stored polar  1
 Point written to save file  hq3513_Re400k.base.pol                          
 Dump file unspecified or not available
 Calculating wake trajectory ...
 Calculating source influence matrix ...

 Solving BL system ...

 Side 1  free  transition at x/c =  0.6065   59
 Side 2  free  transition at x/c =  0.8290   64

   1   rms: 0.8325E-01   max: -.2889E+00   C at   64  2
       a =  4.000      CL =  0.8979
      Cm = -0.0964     CD =  0.00900   =>   CDf =  0.00519    CDp =  0.00381

 Side 1  free  transition at x/c =  0.5713   58
 Side 2  free  transition at x/c =  0.8467   64

   2   rms: 0.2243E-01   max: 0.2615E+00   D at   59  1
       a =  4.000      CL =  0.8972
      Cm = -0.0964     CD =  0.00906   =>   CDf =  0.00544    CDp =  0.00361

 Side 1  free  transition at x/c =  0.5755   58
 Side 2  free  transition at x/c =  0.8522   64

   3   rms: 0.4715E-02   max: 0.7270E-01   C at   58  1
       a =  4.000      CL =  0.8973
      Cm = -0.0964     CD =  0.00905   =>   CDf =  0.00532    CDp =  0.00372

 Side 1  free  transition at x/c =  0.5737   58
 Side 2  free  transition at x/c =  0.8517   64

   4   rms: 0.6713E-04   max: -.7828E-03   D at   60  1
       a =  4.000      CL =  0.8974
      Cm = -0.0964     CD =  0.00905   =>   CDf =  0.00535    CDp =  0.00370
 plradd ia,ip,cpol           17           0  9.22657177E-02

 Point added to stored polar  1
 Point written to save file  hq3513_Re400k.base.pol                          
 Dump file unspecified or not available
 Calculating wake trajectory ...
 Calculating source influence matrix ...

 Solving BL system ...

 Side 1  free  transition at x/c =  0.5736   58
 Side 2  free  transition at x/c =  0.8518   64

   1   rms: 0.8904E-01   max: 0.6437E+00   C at   58  1
       a =  4.500      CL =  0.9440
      Cm = -0.0946     CD =  0.00934   =>   CDf =  0.00535    CDp =  0.00399

 Side 1  free  transition at x/c =  0.5273   55
 Side 2  free  transition at x/c =  0.8819   66

   2   rms: 0.2334E-01   max: 0.2698E+00   D at   57  1
       a =  4.500      CL =  0.9404
      Cm = -0.0938     CD =  0.00919   =>   CDf =  0.00540    CDp =  0.00378

 Side 1  free  transition at x/c =  0.5317   55
 Side 2  free  transition at x/c =  0.8842   67

   3   rms: 0.1382E-01   max: -.2288E+00   C at   67  2
       a =  4.500      CL =  0.9407
      Cm = -0.0939     CD =  0.00921   =>   CDf =  0.00536    CDp =  0.00386

 Side 1  free  transition at x/c =  0.5296   55
 Side 2  free  transition at x/c =  0.8876   67

   4   rms: 0.1447E-02   max: 0.2495E-01   C at   67  2
       a =  4.500      CL =  0.9406
      Cm = -0.0938     CD =  0.00923   =>   CDf =  0.00534    CDp =  0.00389

 Side 1  free  transition at x/c =  0.5296   55
 Side 2  free  transition at x/c =  0.8870   67

   5   rms: 0.5037E-05   max: -.9130E-04   D at   69  2
       a =  4.500      CL =  0.9406
      Cm = -0.0938     CD =  0.00923   =>   CDf =  0.00534    CDp =  0.00388
 plradd ia,ip,cpol           18           0  8.00269321E-02

 Point added to stored polar  1
 Point written to save file  hq3513_Re400k.base.pol                          
 Dump file unspecified or not available
 Calculating wake trajectory ...
 Calculating source influence matrix ...

 Solving BL system ...

 Side 1  free  transition at x/c =  0.5296   55
 Side 2  free  transition at x/c =  0.8870   67

   1   rms: 0.1234E+00   max: -.1516E+01   C at   67  2   RLX: 0.330
       a =  5.000      CL =  0.9527
      Cm = -0.0925     CD =  0.00931   =>   CDf =  0.00534    CDp =  0.00397

 Side 1  free  transition at x/c =  0.5116   53
 Side 2  free  transition at x/c =  0.9039   68

   2   rms: 0.1246E+00   max: -.2149E+01   C at   68  2   RLX: 0.233
       a =  5.000      CL =  0.9597
      Cm = -0.0923     CD =  0.00934   =>   CDf =  0.00519    CDp =  0.00415

 Side 1  free  transition at x/c =  0.5012   54
 Side 2  free  transition at x/c =  0.9125   67

   3   rms: 0.2154E+00   max: 0.3516E+01   T at    2  1   RLX: 0.297
       a =  5.000      CL =  0.9659
      Cm = -0.0920     CD =  0.00949   =>   CDf =  0.00540    CDp =  0.00409

 Side 1  free  transition at x/c =  0.4928   53
 Side 2  free  transition at x/c =  0.9384   69

   4   rms: 0.2366E+00   max: -.3634E+01   C at   69  2   RLX: 0.138
       a =  5.000      CL =  0.9722
      Cm = -0.0928     CD =  0.00944   =>   CDf =  0.00536    CDp =  0.00408

 Side 1  free  transition at x/c =  0.4878   53
 Side 2  free  transition at x/c =  0.9432   70

   5   rms: 0.2071E+00   max: -.3400E+01   C at   70  2   RLX: 0.147
       a =  5.000      CL =  0.9780
      Cm = -0.0937     CD =  0.00951   =>   CDf =  0.00537    CDp =  0.00414

 Side 1  free  transition at x/c =  0.4834   53
 Side 2  free  transition at x/c =  0.9559   70

   6   rms: 0.4113E+00   max: -.5958E+01   C at   70  2   RLX: 0.084
       a =  5.000      CL =  0.9807
      Cm = -0.0940     CD =  0.00954   =>   CDf =  0.00539    CDp =  0.00415

 Side 1  free  transition at x/c =  0.4815   52
 Side 2  free  transition at x/c =  0.9888   73

   7   rms: 0.1507E+01   max: -.2920E+02   C at   73  2   RLX: 0.017
       a =  5.000      CL =  0.9814
      Cm = -0.0942     CD =  0.00953   =>   CDf =  0.00540    CDp =  0.00413

 Side 1  free  transition at x/c =  0.4811   52
 Side 2 forced transition at x/c =  1.0000   74

   8   rms: 0.3140E-01   max: -.2385E+00   D at   68  2
       a =  5.000      CL =  0.9942
      Cm = -0.0939     CD =  0.00968   =>   CDf =  0.00540    CDp =  0.00429

 Side 1  free  transition at x/c =  0.4612   51
 Side 2 forced transition at x/c =  1.0000   74

   9   rms: 0.6508E-02   max: -.1069E+00   C at   51  1
       a =  5.000      CL =  0.9920
      Cm = -0.0934     CD =  0.00973   =>   CDf =  0.00552    CDp =  0.00421

 Side 1  free  transition at x/c =  0.4644   51
 Side 2 forced transition at x/c =  1.0000   74

  10   rms: 0.1062E-03   max: -.1158E-02   D at   53  1
       a =  5.000      CL =  0.9920
      Cm = -0.0934     CD =  0.00974   =>   CDf =  0.00549    CDp =  0.00424

 Side 1  free  transition at x/c =  0.4644   51
 Side 2 forced transition at x/c =  1.0000   74

  11   rms: 0.1259E-05   max: 0.1004E-04   C at   74  2
       a =  5.000      CL =  0.9920
      Cm = -0.0934     CD =  0.00974   =>   CDf =  0.00549    CDp =  0.00424
 plradd ia,ip,cpol           19           0  6.82425126E-02

 Point added to stored polar  1
 Point written to save file  hq3513_Re400k.base.pol                          
 Dump file unspecified or not available
 Calculating wake trajectory ...
 Calculating source influence matrix ...

 Solving BL system ...

 Side 1  free  transition at x/c =  0.4644   51
 Side 2 forced transition at x/c =  1.0000   74

   1   rms: 0.1118E+00   max: 0.1398E+01   C at   51  1
       a =  5.500      CL =  1.0373
      Cm = -0.0920     CD =  0.01047   =>   CDf =  0.00550    CDp =  0.00497

 Side 1  free  transition at x/c =  0.3930   47
 Side 2 forced transition at x/c =  1.0000   74

   2   rms: 0.2315E-01   max: -.2222E+00   C at   47  1
       a =  5.500      CL =  1.0313
      Cm = -0.0909     CD =  0.01068   =>   CDf =  0.00595    CDp =  0.00474

 Side 1  free  transition at x/c =  0.3974   47
 Side 2 forced transition at x/c =  1.0000   74

   3   rms: 0.5176E-02   max: 0.9306E-01   C at   47  1
       a =  5.500      CL =  1.0311
      Cm = -0.0909     CD =  0.01072   =>   CDf =  0.00585    CDp =  0.00487

 Side 1  free  transition at x/c =  0.3949   47
 Side 2 forced transition at x/c =  1.0000   74

   4   rms: 0.1367E-03   max: -.2053E-02   C at   47  1
       a =  5.500      CL =  1.0310
      Cm = -0.0909     CD =  0.01072   =>   CDf =  0.00588    CDp =  0.00485

 Side 1  free  transition at x/c =  0.3950   47
 Side 2 forced transition at x/c =  1.0000   74

   5   rms: 0.1871E-05   max: -.1546E-04   D at    4  2
       a =  5.500      CL =  1.0310
      Cm = -0.0909     CD =  0.01072   =>   CDf =  0.00588    CDp =  0.00485
 plradd ia,ip,cpol           20           0  4.65065688E-02

 Point added to stored polar  1
 Point written to save file  hq3513_Re400k.base.pol                          
 Dump file unspecified or not available
 Calculating wake trajectory ...
 Calculating source influence matrix ...

 Solving BL system ...

 Side 1  free  transition at x/c =  0.3950   47
 Side 2 forced transition at x/c =  1.0000   74

   1   rms: 0.1276E+00   max: 0.1738E+01   C at   47  1   RLX: 0.685
       a =  6.000      CL =  1.0543
      Cm = -0.0886     CD =  0.01159   =>   CDf =  0.00567    CDp =  0.00592

 Side 1  free  transition at x/c =  0.3552   45
 Side 2 forced transition at x/c =  1.0000   73

   2   rms: 0.3468E-01   max: 0.2660E+00   C at   45  1
       a =  6.000      CL =  1.0696
      Cm = -0.0883     CD =  0.01172   =>   CDf =  0.00610    CDp =  0.00562

 Side 1  free  transition at x/c =  0.3366   44
 Side 2 forced transition at x/c =  1.0000   73

   3   rms: 0.4819E-02   max: -.8096E-01   C at   44  1
       a =  6.000      CL =  1.0690
      Cm = -0.0882     CD =  0.01172   =>   CDf =  0.00619    CDp =  0.00553

 Side 1  free  transition at x/c =  0.3383   44
 Side 2 forced transition at x/c =  1.0000   73

   4   rms: 0.9944E-04   max: -.1477E-02   D at   46  1
       a =  6.000      CL =  1.0690
      Cm = -0.0882     CD =  0.01173   =>   CDf =  0.00617    CDp =  0.00556
 plradd ia,ip,cpol           21           0  3.72023098E-02

 Point added to stored polar  1
 Point written to save file  hq3513_Re400k.base.pol                          
 Dump file unspecified or not available
 Calculating wake trajectory ...
 Calculating source influence matrix ...

 Solving BL system ...

 Side 1  free  transition at x/c =  0.3383   44
 Side 2 forced transition at x/c =  1.0000   73

   1   rms: 0.1029E+00   max: 0.1261E+01   C at   44  1   RLX: 0.950
       a =  6.500      CL =  1.1051
      Cm = -0.0856     CD =  0.01271   =>   CDf =  0.00617    CDp =  0.00654

 Side 1  free  transition at x/c =  0.3043   42
 Side 2 forced transition at x/c =  1.0000   73

   2   rms: 0.1734E-01   max: 0.2226E+00   D at   43  1
       a =  6.500      CL =  1.1075
      Cm = -0.0855     CD =  0.01266   =>   CDf =  0.00640    CDp =  0.00626

 Side 1  free  transition at x/c =  0.3050   42
 Side 2 forced transition at x/c =  1.0000   73

   3   rms: 0.2081E-02   max: -.3168E-01   D at   43  1
       a =  6.500      CL =  1.1075
      Cm = -0.0856     CD =  0.01266   =>   CDf =  0.00636    CDp =  0.00630

 Side 1  free  transition at x/c =  0.3044   42
 Side 2 forced transition at x/c =  1.0000   73

   4   rms: 0.6160E-04   max: -.9099E-03   D at   43  1
       a =  6.500      CL =  1.1075
      Cm = -0.0855     CD =  0.01266   =>   CDf =  0.00638    CDp =  0.00629
 plradd ia,ip,cpol           22           0  3.72023098E-02

 Point added to stored polar  1
 Point written to save file  hq3513_Re400k.base.pol                          
 Dump file unspecified or not available
 Calculating wake trajectory ...
 Calculating source influence matrix ...

 Solving BL system ...

 Side 1  free  transition at x/c =  0.3044   42
 Side 2 forced transition at x/c =  1.0000   73

   1   rms: 0.8901E-01   max: 0.6325E+00   C at   42  1
       a =  7.000      CL =  1.1428
      Cm = -0.0824     CD =  0.01379   =>   CDf =  0.00613    CDp =  0.00765

 Side 1  free  transition at x/c =  0.2825   41
 Side 2 forced transition at x/c =  1.0000   72

   2   rms: 0.1967E-01   max: 0.2805E+00   D at   42  1
       a =  7.000      CL =  1.1465
      Cm = -0.0830     CD =  0.01352   =>   CDf =  0.00648    CDp =  0.00705

 Side 1  free  transition at x/c =  0.2831   41
 Side 2 forced transition at x/c =  1.0000   72

   3   rms: 0.1877E-02   max: 0.2740E-01   C at   41  1
       a =  7.000      CL =  1.1470
      Cm = -0.0831     CD =  0.01349   =>   CDf =  0.00644    CDp =  0.00706

 Side 1  free  transition at x/c =  0.2825   41
 Side 2 forced transition at x/c =  1.0000   72

   4   rms: 0.3884E-04   max: -.5193E-03   D at   42  1
       a =  7.000      CL =  1.1470
      Cm = -0.0831     CD =  0.01349   =>   CDf =  0.00644    CDp =  0.00705
 plradd ia,ip,cpol           23           0  3.72023098E-02

 Point added to stored polar  1
 Point written to save file  hq3513_Re400k.base.pol                          
 Dump file unspecified or not available
 Calculating wake trajectory ...
 Calculating source influence matrix ...

 Solving BL system ...

 Side 1  free  transition at x/c =  0.2825   41
 Side 2 forced transition at x/c =  1.0000   72

   1   rms: 0.7721E-01   max: 0.3773E+00   C at   41  1
       a =  7.500      CL =  1.1872
      Cm = -0.0808     CD =  0.01429   =>   CDf =  0.00645    CDp =  0.00785

 Side 1  free  transition at x/c =  0.2646   40
 Side 2 forced transition at x/c =  1.0000   72

   2   rms: 0.1953E-01   max: -.2554E+00   D at   40  1
       a =  7.500      CL =  1.1826
      Cm = -0.0799     CD =  0.01424   =>   CDf =  0.00652    CDp =  0.00772

 Side 1  free  transition at x/c =  0.2665   40
 Side 2 forced transition at x/c =  1.0000   72

   3   rms: 0.3033E-02   max: 0.4112E-01   C at   40  1
       a =  7.500      CL =  1.1837
      Cm = -0.0801     CD =  0.01429   =>   CDf =  0.00646    CDp =  0.00783

 Side 1  free  transition at x/c =  0.2657   40
 Side 2 forced transition at x/c =  1.0000   72

   4   rms: 0.9041E-04   max: -.6108E-03   D at   40  1
       a =  7.500      CL =  1.1837
      Cm = -0.0801     CD =  0.01429   =>   CDf =  0.00648    CDp =  0.00781
 plradd ia,ip,cpol           24           0  2.91358139E-02

 Point added to stored polar  1
 Point written to save file  hq3513_Re400k.base.pol                          
 Dump file unspecified or not available
 Calculating wake trajectory ...
 Calculating source influence matrix ...

 Solving BL system ...

 Side 1  free  transition at x/c =  0.2657   40
 Side 2 forced transition at x/c =  1.0000   72

   1   rms: 0.7375E-01   max: -.2613E+00   D at   40  1
       a =  8.000      CL =  1.2199
      Cm = -0.0770     CD =  0.01513   =>   CDf =  0.00620    CDp =  0.00893

 Side 1  free  transition at x/c =  0.2500   40
 Side 2 forced transition at x/c =  1.0000   71

   2   rms: 0.2238E-01   max: -.2690E+00   D at   40  1
       a =  8.000      CL =  1.2177
      Cm = -0.0767     CD =  0.01506   =>   CDf =  0.00651    CDp =  0.00855

 Side 1  free  transition at x/c =  0.2517   40
 Side 2 forced transition at x/c =  1.0000   71

   3   rms: 0.3589E-02   max: 0.3921E-01   C at   40  1
       a =  8.000      CL =  1.2196
      Cm = -0.0770     CD =  0.01510   =>   CDf =  0.00645    CDp =  0.00865

 Side 1  free  transition at x/c =  0.2508   40
 Side 2 forced transition at x/c =  1.0000   71

   4   rms: 0.9398E-04   max: -.8031E-03   D at   41  1
       a =  8.000      CL =  1.2195
      Cm = -0.0770     CD =  0.01510   =>   CDf =  0.00646    CDp =  0.00864
 plradd ia,ip,cpol           25           0  6.83647013E-05

 Point added to stored polar  1
 Point written to save file  hq3513_Re400k.base.pol                          
 Dump file unspecified or not available
 Calculating wake trajectory ...
 Calculating source influence matrix ...

 Solving BL system ...

 Side 1  free  transition at x/c =  0.2508   40
 Side 2 forced transition at x/c =  1.0000   71

   1   rms: 0.7337E-01   max: -.2953E+00   D at   40  1
       a =  8.500      CL =  1.2553
      Cm = -0.0740     CD =  0.01596   =>   CDf =  0.00646    CDp =  0.00950

 Side 1  free  transition at x/c =  0.2350   39
 Side 2 forced transition at x/c =  1.0000   71

   2   rms: 0.2271E-01   max: -.2710E+00   D at   39  1
       a =  8.500      CL =  1.2531
      Cm = -0.0737     CD =  0.01589   =>   CDf =  0.00648    CDp =  0.00941

 Side 1  free  transition at x/c =  0.2366   39
 Side 2 forced transition at x/c =  1.0000   71

   3   rms: 0.3656E-02   max: 0.3849E-01   C at   39  1
       a =  8.500      CL =  1.2550
      Cm = -0.0740     CD =  0.01593   =>   CDf =  0.00642    CDp =  0.00951

 Side 1  free  transition at x/c =  0.2356   39
 Side 2 forced transition at x/c =  1.0000   71

   4   rms: 0.1181E-03   max: 0.8388E-03   D at   87  1
       a =  8.500      CL =  1.2549
      Cm = -0.0740     CD =  0.01593   =>   CDf =  0.00643    CDp =  0.00950

 Side 1  free  transition at x/c =  0.2356   39
 Side 2 forced transition at x/c =  1.0000   71

   5   rms: 0.2960E-05   max: -.1013E-04   D at   83  1
       a =  8.500      CL =  1.2549
      Cm = -0.0740     CD =  0.01593   =>   CDf =  0.00643    CDp =  0.00950
 plradd ia,ip,cpol           26           0  6.83647013E-05

 Point added to stored polar  1
 Point written to save file  hq3513_Re400k.base.pol                          
 Dump file unspecified or not available
 Calculating wake trajectory ...
 Calculating source influence matrix ...

 Solving BL system ...

 Side 1  free  transition at x/c =  0.2356   39
 Side 2 forced transition at x/c =  1.0000   71

   1   rms: 0.7355E-01   max: -.3357E+00   D at   39  1
       a =  9.000      CL =  1.2902
      Cm = -0.0711     CD =  0.01681   =>   CDf =  0.00612    CDp =  0.01068

 Side 1  free  transition at x/c =  0.2193   39
 Side 2 forced transition at x/c =  1.0000   70

   2   rms: 0.2437E-01   max: -.2917E+00   D at   39  1
       a =  9.000      CL =  1.2882
      Cm = -0.0708     CD =  0.01672   =>   CDf =  0.00642    CDp =  0.01031

 Side 1  free  transition at x/c =  0.2208   39
 Side 2 forced transition at x/c =  1.0000   70

   3   rms: 0.4157E-02   max: 0.4821E-01   C at   39  1
       a =  9.000      CL =  1.2898
      Cm = -0.0711     CD =  0.01679   =>   CDf =  0.00637    CDp =  0.01042

 Side 1  free  transition at x/c =  0.2196   39
 Side 2 forced transition at x/c =  1.0000   70

   4   rms: 0.1689E-03   max: 0.1132E-02   D at   87  1
       a =  9.000      CL =  1.2897
      Cm = -0.0711     CD =  0.01679   =>   CDf =  0.00639    CDp =  0.01040

 Side 1  free  transition at x/c =  0.2196   39
 Side 2 forced transition at x/c =  1.0000   70

   5   rms: 0.4228E-05   max: -.1367E-04   D at   39  1
       a =  9.000      CL =  1.2897
      Cm = -0.0711     CD =  0.01679   =>   CDf =  0.00639    CDp =  0.01040
 plradd ia,ip,cpol           27           0  6.83647013E-05

 Point added to stored polar  1
 Point written to save file  hq3513_Re400k.base.pol                          
 Dump file unspecified or not available
 Calculating wake trajectory ...
 Calculating source influence matrix ...

 Solving BL system ...

 Side 1  free  transition at x/c =  0.2196   39
 Side 2 forced transition at x/c =  1.0000   70

   1   rms: 0.7468E-01   max: -.3960E+00   D at   39  1
       a =  9.500      CL =  1.3227
      Cm = -0.0680     CD =  0.01780   =>   CDf =  0.00639    CDp =  0.01141

 Side 1  free  transition at x/c =  0.2010   38
 Side 2 forced transition at x/c =  1.0000   70

   2   rms: 0.2303E-01   max: -.2668E+00   D at   38  1
       a =  9.500      CL =  1.3213
      Cm = -0.0679     CD =  0.01771   =>   CDf =  0.00639    CDp =  0.01132

 Side 1  free  transition at x/c =  0.2025   38
 Side 2 forced transition at x/c =  1.0000   70

   3   rms: 0.2967E-02   max: -.3058E-01   D at   39  1
       a =  9.500      CL =  1.3223
      Cm = -0.0680     CD =  0.01777   =>   CDf =  0.00636    CDp =  0.01141

 Side 1  free  transition at x/c =  0.2017   38
 Side 2 forced transition at x/c =  1.0000   70

   4   rms: 0.1078E-03   max: 0.6455E-03   D at   86  1
       a =  9.500      CL =  1.3223
      Cm = -0.0680     CD =  0.01777   =>   CDf =  0.00638    CDp =  0.01139

 Side 1  free  transition at x/c =  0.2017   38
 Side 2 forced transition at x/c =  1.0000   70

   5   rms: 0.1073E-05   max: -.7003E-05   C at   70  2
       a =  9.500      CL =  1.3223
      Cm = -0.0680     CD =  0.01777   =>   CDf =  0.00638    CDp =  0.01139
 plradd ia,ip,cpol           28           0  6.83647013E-05

 Point added to stored polar  1
 Point written to save file  hq3513_Re400k.base.pol                          
 Dump file unspecified or not available
 Calculating wake trajectory ...
 Calculating source influence matrix ...

 Solving BL system ...

 Side 1  free  transition at x/c =  0.2017   38
 Side 2 forced transition at x/c =  1.0000   70

   1   rms: 0.7959E-01   max: -.5140E+00   D at   38  1   RLX: 0.973
       a = 10.000      CL =  1.3470
      Cm = -0.0643     CD =  0.01919   =>   CDf =  0.00638    CDp =  0.01281

 Side 1  free  transition at x/c =  0.1817   36
 Side 2 forced transition at x/c =  1.0000   70

   2   rms: 0.2105E-01   max: 0.2721E+00   D at   37  1
       a = 10.000      CL =  1.3546
      Cm = -0.0652     CD =  0.01882   =>   CDf =  0.00636    CDp =  0.01246

 Side 1  free  transition at x/c =  0.1807   36
 Side 2 forced transition at x/c =  1.0000   70

   3   rms: 0.2321E-02   max: 0.3533E-01   C at   36  1
       a = 10.000      CL =  1.3549
      Cm = -0.0652     CD =  0.01880   =>   CDf =  0.00634    CDp =  0.01246

 Side 1  free  transition at x/c =  0.1799   36
 Side 2 forced transition at x/c =  1.0000   70

   4   rms: 0.6072E-04   max: -.3817E-03   D at   38  1
       a = 10.000      CL =  1.3549
      Cm = -0.0652     CD =  0.01881   =>   CDf =  0.00635    CDp =  0.01246
 plradd ia,ip,cpol           29           0  6.83647013E-05

 Point added to stored polar  1
 Point written to save file  hq3513_Re400k.base.pol                          
 Dump file unspecified or not available

.OPERva   c>  
 Solving BL system ...

 Side 1  free  transition at x/c =  0.1799   36
 Side 2 forced transition at x/c =  1.0000   70

   1   rms: 0.1884E-05   max: -.6528E-05   D at   85  1
       a = 10.000      CL =  1.3549
      Cm = -0.0652     CD =  0.01881   =>   CDf =  0.00635    CDp =  0.01246
 plradd ia,ip,cpol           30         182  6.83647013E-05

 Point added to stored polar  1
 Point written to save file  hq3513_Re400k.base.pol                          
 Dump file unspecified or not available
 Calculating wake trajectory ...
 Calculating source influence matrix ...

 Solving BL system ...

 Side 1  free  transition at x/c =  0.1799   36
 Side 2 forced transition at x/c =  1.0000   70

   1   rms: 0.3854E-01   max: -.2082E+00   D at   36  1
       a = 10.250      CL =  1.3713
      Cm = -0.0639     CD =  0.01937   =>   CDf =  0.00600    CDp =  0.01338

 Side 1  free  transition at x/c =  0.1643   36
 Side 2 forced transition at x/c =  1.0000   69

   2   rms: 0.7207E-02   max: -.9953E-01   C at   36  1
       a = 10.250      CL =  1.3689
      Cm = -0.0636     CD =  0.01946   =>   CDf =  0.00639    CDp =  0.01307

 Side 1  free  transition at x/c =  0.1665   36
 Side 2 forced transition at x/c =  1.0000   69

   3   rms: 0.1193E-02   max: -.1425E-01   D at    4  1
       a = 10.250      CL =  1.3690
      Cm = -0.0636     CD =  0.01946   =>   CDf =  0.00636    CDp =  0.01310

 Side 1  free  transition at x/c =  0.1664   36
 Side 2 forced transition at x/c =  1.0000   69

   4   rms: 0.2987E-05   max: 0.2757E-04   C at   69  2
       a = 10.250      CL =  1.3690
      Cm = -0.0636     CD =  0.01946   =>   CDf =  0.00637    CDp =  0.01310
 plradd ia,ip,cpol           31           0  6.83647013E-05

 Point added to stored polar  1
 Point written to save file  hq3513_Re400k.base.pol                          
 Dump file unspecified or not available
 Calculating wake trajectory ...
 Calculating source influence matrix ...

 Solving BL system ...

 Side 1  free  transition at x/c =  0.1664   36
 Side 2 forced transition at x/c =  1.0000   69

   1   rms: 0.3851E-01   max: 0.2540E+00   C at   36  1
       a = 10.500      CL =  1.3847
      Cm = -0.0623     CD =  0.02011   =>   CDf =  0.00637    CDp =  0.01374

 Side 1  free  transition at x/c =  0.1511   35
 Side 2 forced transition at x/c =  1.0000   69

   2   rms: 0.5386E-02   max: -.8679E-01   C at   35  1
       a = 10.500      CL =  1.3821
      Cm = -0.0619     CD =  0.02021   =>   CDf =  0.00642    CDp =  0.01379

 Side 1  free  transition at x/c =  0.1529   35
 Side 2 forced transition at x/c =  1.0000   69

   3   rms: 0.1138E-03   max: -.8818E-03   C at   35  1
       a = 10.500      CL =  1.3821
      Cm = -0.0620     CD =  0.02021   =>   CDf =  0.00640    CDp =  0.01381

 Side 1  free  transition at x/c =  0.1529   35
 Side 2 forced transition at x/c =  1.0000   69

   4   rms: 0.2435E-05   max: 0.9537E-05   C at   35  1
       a = 10.500      CL =  1.3821
      Cm = -0.0620     CD =  0.02021   =>   CDf =  0.00640    CDp =  0.01381
 plradd ia,ip,cpol           32           0  6.83647013E-05

 Point added to stored polar  1
 Point written to save file  hq3513_Re400k.base.pol                          
 Dump file unspecified or not available
 Calculating wake trajectory ...
 Calculating source influence matrix ...

 Solving BL system ...

 Side 1  free  transition at x/c =  0.1529   35
 Side 2 forced transition at x/c =  1.0000   69

   1   rms: 0.3919E-01   max: 0.3302E+00   C at   35  1
       a = 10.750      CL =  1.3966
      Cm = -0.0605     CD =  0.02095   =>   CDf =  0.00640    CDp =  0.01455

 Side 1  free  transition at x/c =  0.1380   34
 Side 2 forced transition at x/c =  1.0000   69

   2   rms: 0.5213E-02   max: -.8441E-01   C at   34  1
       a = 10.750      CL =  1.3939
      Cm = -0.0602     CD =  0.02106   =>   CDf =  0.00645    CDp =  0.01461

 Side 1  free  transition at x/c =  0.1398   34
 Side 2 forced transition at x/c =  1.0000   69

   3   rms: 0.1218E-03   max: -.8917E-03   D at   35  1
       a = 10.750      CL =  1.3939
      Cm = -0.0602     CD =  0.02106   =>   CDf =  0.00644    CDp =  0.01463

 Side 1  free  transition at x/c =  0.1398   34
 Side 2 forced transition at x/c =  1.0000   69

   4   rms: 0.2286E-05   max: 0.2773E-04   C at   69  2
       a = 10.750      CL =  1.3939
      Cm = -0.0602     CD =  0.02106   =>   CDf =  0.00644    CDp =  0.01463
 plradd ia,ip,cpol           33           0 -7.62908530E-05

 Point added to stored polar  1
 Point written to save file  hq3513_Re400k.base.pol                          
 Dump file unspecified or not available
 Calculating wake trajectory ...
 Calculating source influence matrix ...

 Solving BL system ...

 Side 1  free  transition at x/c =  0.1398   34
 Side 2 forced transition at x/c =  1.0000   69

   1   rms: 0.3941E-01   max: 0.3731E+00   C at   34  1
       a = 11.000      CL =  1.4077
      Cm = -0.0588     CD =  0.02190   =>   CDf =  0.00644    CDp =  0.01546

 Side 1  free  transition at x/c =  0.1256   33
 Side 2 forced transition at x/c =  1.0000   69

   2   rms: 0.5404E-02   max: -.8592E-01   C at   33  1
       a = 11.000      CL =  1.4047
      Cm = -0.0584     CD =  0.02201   =>   CDf =  0.00649    CDp =  0.01552

 Side 1  free  transition at x/c =  0.1273   33
 Side 2 forced transition at x/c =  1.0000   69

   3   rms: 0.1305E-03   max: -.9366E-03   C at   33  1
       a = 11.000      CL =  1.4048
      Cm = -0.0585     CD =  0.02201   =>   CDf =  0.00647    CDp =  0.01554

 Side 1  free  transition at x/c =  0.1273   33
 Side 2 forced transition at x/c =  1.0000   69

   4   rms: 0.4465E-05   max: 0.3575E-04   C at   69  2
       a = 11.000      CL =  1.4048
      Cm = -0.0585     CD =  0.02201   =>   CDf =  0.00647    CDp =  0.01554
 plradd ia,ip,cpol           34           0 -7.62908530E-05

 Point added to stored polar  1
 Point written to save file  hq3513_Re400k.base.pol                          
 Dump file unspecified or not available
 Calculating wake trajectory ...
 Calculating source influence matrix ...

 Solving BL system ...

 Side 1  free  transition at x/c =  0.1273   33
 Side 2 forced transition at x/c =  1.0000   69

   1   rms: 0.3870E-01   max: 0.3622E+00   C at   33  1
       a = 11.250      CL =  1.4180
      Cm = -0.0570     CD =  0.02291   =>   CDf =  0.00647    CDp =  0.01644

 Side 1  free  transition at x/c =  0.1136   32
 Side 2 forced transition at x/c =  1.0000   69

   2   rms: 0.6073E-02   max: -.9687E-01   C at   32  1
       a = 11.250      CL =  1.4146
      Cm = -0.0567     CD =  0.02305   =>   CDf =  0.00652    CDp =  0.01653

 Side 1  free  transition at x/c =  0.1155   32
 Side 2 forced transition at x/c =  1.0000   69

   3   rms: 0.1299E-03   max: -.1342E-02   C at   32  1
       a = 11.250      CL =  1.4146
      Cm = -0.0567     CD =  0.02305   =>   CDf =  0.00650    CDp =  0.01654

 Side 1  free  transition at x/c =  0.1155   32
 Side 2 forced transition at x/c =  1.0000   69

   4   rms: 0.3745E-05   max: 0.2717E-04   C at   69  2
       a = 11.250      CL =  1.4146
      Cm = -0.0567     CD =  0.02305   =>   CDf =  0.00650    CDp =  0.01655
 plradd ia,ip,cpol           35           0 -7.62908530E-05

 Point added to stored polar  1
 Point written to save file  hq3513_Re400k.base.pol                          
 Dump file unspecified or not available
 Calculating wake trajectory ...
 Calculating source influence matrix ...

 Solving BL system ...

 Side 1  free  transition at x/c =  0.1155   32
 Side 2 forced transition at x/c =  1.0000   69

   1   rms: 0.3728E-01   max: 0.3102E+00   C at   32  1
       a = 11.500      CL =  1.4279
      Cm = -0.0553     CD =  0.02398   =>   CDf =  0.00650    CDp =  0.01748

 Side 1  free  transition at x/c =  0.1015   31
 Side 2 forced transition at x/c =  1.0000   69

   2   rms: 0.7545E-02   max: -.1199E+00   C at   31  1
       a = 11.500      CL =  1.4236
      Cm = -0.0549     CD =  0.02419   =>   CDf =  0.00656    CDp =  0.01763

 Side 1  free  transition at x/c =  0.1039   31
 Side 2 forced transition at x/c =  1.0000   69

   3   rms: 0.3082E-03   max: -.5709E-02   C at   31  1
       a = 11.500      CL =  1.4237
      Cm = -0.0549     CD =  0.02419   =>   CDf =  0.00654    CDp =  0.01765

 Side 1  free  transition at x/c =  0.1039   31
 Side 2 forced transition at x/c =  1.0000   69

   4   rms: 0.9146E-05   max: 0.3474E-04   C at   31  1
       a = 11.500      CL =  1.4237
      Cm = -0.0549     CD =  0.02419   =>   CDf =  0.00654    CDp =  0.01765
 plradd ia,ip,cpol           36           0 -7.62908530E-05

 Point added to stored polar  1
 Point written to save file  hq3513_Re400k.base.pol                          
 Dump file unspecified or not available
 Calculating wake trajectory ...
 Calculating source influence matrix ...

 Solving BL system ...

 Side 1  free  transition at x/c =  0.1039   31
 Side 2 forced transition at x/c =  1.0000   69

   1   rms: 0.3635E-01   max: 0.2336E+00   C at   31  1
       a = 11.750      CL =  1.4369
      Cm = -0.0536     CD =  0.02514   =>   CDf =  0.00615    CDp =  0.01899

 Side 1  free  transition at x/c =  0.0894   31
 Side 2 forced transition at x/c =  1.0000   68
 idif Ue xi dudx           1  0.12643701      7.96079636E-03   15.882458    
 Uenew xinew           2  1.05458847E-03  6.63995743E-05

   2   rms: 0.2079E-01   max: -.3288E+00   D at    2  1
       a = 11.750      CL =  1.4318
      Cm = -0.0532     CD =  0.02543   =>   CDf =  0.00695    CDp =  0.01848

 Side 1  free  transition at x/c =  0.0919   30
 Side 2 forced transition at x/c =  1.0000   69

   3   rms: 0.1522E-02   max: -.1845E-01   T at    2  2
       a = 11.750      CL =  1.4317
      Cm = -0.0531     CD =  0.02543   =>   CDf =  0.00658    CDp =  0.01885

 Side 1  free  transition at x/c =  0.0920   30
 Side 2 forced transition at x/c =  1.0000   69

   4   rms: 0.4901E-03   max: 0.5436E-02   D at    4  2
       a = 11.750      CL =  1.4317
      Cm = -0.0531     CD =  0.02543   =>   CDf =  0.00658    CDp =  0.01885

 Side 1  free  transition at x/c =  0.0920   30
 Side 2 forced transition at x/c =  1.0000   69

   5   rms: 0.2564E-05   max: -.2573E-04   D at    4  2
       a = 11.750      CL =  1.4317
      Cm = -0.0531     CD =  0.02543   =>   CDf =  0.00658    CDp =  0.01885
 plradd ia,ip,cpol           37           0 -7.62908530E-05

 Point added to stored polar  1
 Point written to save file  hq3513_Re400k.base.pol                          
 Dump file unspecified or not available
 Calculating wake trajectory ...
 Calculating source influence matrix ...

 Solving BL system ...

 Side 1  free  transition at x/c =  0.0920   30
 Side 2 forced transition at x/c =  1.0000   69

   1   rms: 0.3748E-01   max: 0.1816E+00   C at   30  1   RLX: 0.983
       a = 12.000      CL =  1.4445
      Cm = -0.0519     CD =  0.02642   =>   CDf =  0.00619    CDp =  0.02024

 Side 1  free  transition at x/c =  0.0765   30
 Side 2 forced transition at x/c =  1.0000   68

   2   rms: 0.9262E-02   max: -.1281E+00   C at   30  1
       a = 12.000      CL =  1.4389
      Cm = -0.0514     CD =  0.02679   =>   CDf =  0.00664    CDp =  0.02015

 Side 1  free  transition at x/c =  0.0788   30
 Side 2 forced transition at x/c =  1.0000   68

   3   rms: 0.1042E-02   max: -.1161E-01   D at    4  1
       a = 12.000      CL =  1.4387
      Cm = -0.0514     CD =  0.02679   =>   CDf =  0.00661    CDp =  0.02017

 Side 1  free  transition at x/c =  0.0789   30
 Side 2 forced transition at x/c =  1.0000   68

   4   rms: 0.4795E-05   max: -.4263E-04   C at   68  2
       a = 12.000      CL =  1.4388
      Cm = -0.0514     CD =  0.02679   =>   CDf =  0.00661    CDp =  0.02017
 plradd ia,ip,cpol           38           0 -7.62908530E-05

 Point added to stored polar  1
 Point written to save file  hq3513_Re400k.base.pol                          
 Dump file unspecified or not available
 Calculating wake trajectory ...
 Calculating source influence matrix ...

 Solving BL system ...

 Side 1  free  transition at x/c =  0.0789   30
 Side 2 forced transition at x/c =  1.0000   68

   1   rms: 0.3651E-01   max: 0.2821E+00   C at   30  1   RLX: 0.940
       a = 12.250      CL =  1.4497
      Cm = -0.0502     CD =  0.02787   =>   CDf =  0.00661    CDp =  0.02125

 Side 1  free  transition at x/c =  0.0671   29
 Side 2 forced transition at x/c =  1.0000   68

   2   rms: 0.7313E-02   max: -.9586E-01   C at   29  1
       a = 12.250      CL =  1.4453
      Cm = -0.0498     CD =  0.02824   =>   CDf =  0.00667    CDp =  0.02157

 Side 1  free  transition at x/c =  0.0680   29
 Side 2 forced transition at x/c =  1.0000   68

   3   rms: 0.3061E-02   max: -.7027E-01   C at   29  1
       a = 12.250      CL =  1.4451
      Cm = -0.0497     CD =  0.02823   =>   CDf =  0.00665    CDp =  0.02158

 Side 1  free  transition at x/c =  0.0681   29
 Side 2 forced transition at x/c =  1.0000   68

   4   rms: 0.3112E-02   max: -.7144E-01   C at   29  1
       a = 12.250      CL =  1.4451
      Cm = -0.0497     CD =  0.02823   =>   CDf =  0.00665    CDp =  0.02158

 Side 1  free  transition at x/c =  0.0681   29
 Side 2 forced transition at x/c =  1.0000   68

   5   rms: 0.3111E-02   max: -.7141E-01   C at   29  1
       a = 12.250      CL =  1.4451
      Cm = -0.0497     CD =  0.02823   =>   CDf =  0.00665    CDp =  0.02158

 Side 1  free  transition at x/c =  0.0681   29
 Side 2 forced transition at x/c =  1.0000   68

   6   rms: 0.3111E-02   max: -.7141E-01   C at   29  1
       a = 12.250      CL =  1.4451
      Cm = -0.0497     CD =  0.02823   =>   CDf =  0.00665    CDp =  0.02158

 Side 1  free  transition at x/c =  0.0681   29
 Side 2 forced transition at x/c =  1.0000   68

   7   rms: 0.3111E-02   max: -.7141E-01   C at   29  1
       a = 12.250      CL =  1.4451
      Cm = -0.0497     CD =  0.02823   =>   CDf =  0.00665    CDp =  0.02158

 Side 1  free  transition at x/c =  0.0681   29
 Side 2 forced transition at x/c =  1.0000   68

   8   rms: 0.3111E-02   max: -.7141E-01   C at   29  1
       a = 12.250      CL =  1.4451
      Cm = -0.0497     CD =  0.02823   =>   CDf =  0.00665    CDp =  0.02158

 Side 1  free  transition at x/c =  0.0681   29
 Side 2 forced transition at x/c =  1.0000   68

   9   rms: 0.3111E-02   max: -.7140E-01   C at   29  1
       a = 12.250      CL =  1.4451
      Cm = -0.0497     CD =  0.02823   =>   CDf =  0.00665    CDp =  0.02158

 Side 1  free  transition at x/c =  0.0681   29
 Side 2 forced transition at x/c =  1.0000   68

  10   rms: 0.3111E-02   max: -.7141E-01   C at   29  1
       a = 12.250      CL =  1.4451
      Cm = -0.0497     CD =  0.02823   =>   CDf =  0.00665    CDp =  0.02158

[...]
 Calculating source influence matrix ...

 Solving BL system ...

 Side 1  free  transition at x/c =  0.0452   27
 Side 2 forced transition at x/c =  1.0000   68

   1   rms: 0.4698E-01   max: 0.6280E+00   C at   27  1   RLX: 0.820
       a = 13.000      CL =  1.4585
      Cm = -0.0453     CD =  0.03312   =>   CDf =  0.00671    CDp =  0.02640

 Side 1  free  transition at x/c =  0.0297   26
 Side 2 forced transition at x/c =  1.0000   68

   2   rms: 0.1221E-01   max: 0.5644E-01   D at   76  1
       a = 13.000      CL =  1.4509
      Cm = -0.0446     CD =  0.03406   =>   CDf =  0.00685    CDp =  0.02721

 Side 1  free  transition at x/c =  0.0294   26
 Side 2 forced transition at x/c =  1.0000   68

   3   rms: 0.9358E-03   max: 0.8838E-02   D at   76  1
       a = 13.000      CL =  1.4505
      Cm = -0.0445     CD =  0.03402   =>   CDf =  0.00682    CDp =  0.02720

 Side 1  free  transition at x/c =  0.0296   26
 Side 2 forced transition at x/c =  1.0000   68

   4   rms: 0.1261E-04   max: 0.1001E-03   D at   80  2
       a = 13.000      CL =  1.4505
      Cm = -0.0445     CD =  0.03402   =>   CDf =  0.00682    CDp =  0.02720
 plradd ia,ip,cpol           41           0 -7.62908530E-05

 Point added to stored polar  1
 Point written to save file  hq3513_Re400k.base.pol                          
 Dump file unspecified or not available
 Calculating wake trajectory ...
 Calculating source influence matrix ...

 Solving BL system ...

 Side 1  free  transition at x/c =  0.0295   26
 Side 2 forced transition at x/c =  1.0000   68

   1   rms: 0.7217E-01   max: 0.8577E+00   C at   26  1   RLX: 0.762
       a = 13.250      CL =  1.4440
      Cm = -0.0430     CD =  0.03658   =>   CDf =  0.00682    CDp =  0.02976

 Side 1  free  transition at x/c =  0.0205   24
 Side 2 forced transition at x/c =  1.0000   68

   2   rms: 0.2492E-01   max: 0.3798E+00   C at   24  1
       a = 13.250      CL =  1.4438
      Cm = -0.0427     CD =  0.03699   =>   CDf =  0.00686    CDp =  0.03013

 Side 1  free  transition at x/c =  0.0171   24
 Side 2 forced transition at x/c =  1.0000   68

   3   rms: 0.3217E-02   max: 0.4020E-01   D at   24  1
       a = 13.250      CL =  1.4426
      Cm = -0.0426     CD =  0.03698   =>   CDf =  0.00690    CDp =  0.03007

 Side 1  free  transition at x/c =  0.0177   24
 Side 2 forced transition at x/c =  1.0000   68

   4   rms: 0.5898E-03   max: 0.8608E-02   C at   24  1
       a = 13.250      CL =  1.4426
      Cm = -0.0426     CD =  0.03697   =>   CDf =  0.00689    CDp =  0.03008

 Side 1  free  transition at x/c =  0.0176   24
 Side 2 forced transition at x/c =  1.0000   68

   5   rms: 0.1852E-04   max: -.9506E-04   C at   24  1
       a = 13.250      CL =  1.4426
      Cm = -0.0426     CD =  0.03697   =>   CDf =  0.00689    CDp =  0.03008
 plradd ia,ip,cpol           42           0 -7.62908530E-05

 Point added to stored polar  1
 Point written to save file  hq3513_Re400k.base.pol                          
 Dump file unspecified or not available
 Calculating wake trajectory ...
 Calculating source influence matrix ...

 Solving BL system ...

 Side 1  free  transition at x/c =  0.0176   24
 Side 2 forced transition at x/c =  1.0000   68

   1   rms: 0.6050E-01   max: 0.6177E+00   C at   24  1   RLX: 0.724
       a = 13.500      CL =  1.4381
      Cm = -0.0415     CD =  0.03941   =>   CDf =  0.00689    CDp =  0.03252

 Side 1  free  transition at x/c =  0.0144   23
 Side 2 forced transition at x/c =  1.0000   68

   2   rms: 0.1451E-01   max: -.1329E+00   D at   23  1
       a = 13.500      CL =  1.4405
      Cm = -0.0412     CD =  0.03961   =>   CDf =  0.00683    CDp =  0.03278

 Side 1  free  transition at x/c =  0.0136   23
 Side 2 forced transition at x/c =  1.0000   68

   3   rms: 0.1597E-02   max: 0.7666E-02   D at   73  1
       a = 13.500      CL =  1.4394
      Cm = -0.0412     CD =  0.03963   =>   CDf =  0.00685    CDp =  0.03278

 Side 1  free  transition at x/c =  0.0137   23
 Side 2 forced transition at x/c =  1.0000   68

   4   rms: 0.4486E-04   max: 0.3836E-03   D at   80  2
       a = 13.500      CL =  1.4394
      Cm = -0.0412     CD =  0.03962   =>   CDf =  0.00685    CDp =  0.03278
 plradd ia,ip,cpol           43           0 -7.62908530E-05

 Point added to stored polar  1
 Point written to save file  hq3513_Re400k.base.pol                          
 Dump file unspecified or not available
 Calculating wake trajectory ...
 Calculating source influence matrix ...

 Solving BL system ...

 Side 1  free  transition at x/c =  0.0137   23
 Side 2 forced transition at x/c =  1.0000   68

   1   rms: 0.4683E-01   max: 0.2742E+00   C at   23  1   RLX: 0.696
       a = 13.750      CL =  1.4378
      Cm = -0.0404     CD =  0.04178   =>   CDf =  0.00685    CDp =  0.03493

 Side 1  free  transition at x/c =  0.0123   22
 Side 2 forced transition at x/c =  1.0000   68

   2   rms: 0.1166E-01   max: -.9270E-01   D at   22  1
       a = 13.750      CL =  1.4400
      Cm = -0.0401     CD =  0.04212   =>   CDf =  0.00677    CDp =  0.03535

 Side 1  free  transition at x/c =  0.0119   22
 Side 2 forced transition at x/c =  1.0000   68

   3   rms: 0.1082E-02   max: 0.5344E-02   D at   81  2
       a = 13.750      CL =  1.4392
      Cm = -0.0401     CD =  0.04212   =>   CDf =  0.00675    CDp =  0.03537

 Side 1  free  transition at x/c =  0.0120   22
 Side 2 forced transition at x/c =  1.0000   68

   4   rms: 0.3609E-04   max: 0.3253E-03   D at   81  2
       a = 13.750      CL =  1.4392
      Cm = -0.0401     CD =  0.04211   =>   CDf =  0.00675    CDp =  0.03536
 plradd ia,ip,cpol           44           0 -7.62908530E-05

 Point added to stored polar  1
 Point written to save file  hq3513_Re400k.base.pol                          
 Dump file unspecified or not available
 Calculating wake trajectory ...
 Calculating source influence matrix ...

 Solving BL system ...

 Side 1  free  transition at x/c =  0.0120   22
 Side 2 forced transition at x/c =  1.0000   68

   1   rms: 0.3611E-01   max: 0.1191E+00   T at   22  1   RLX: 0.674
       a = 14.000      CL =  1.4414
      Cm = -0.0396     CD =  0.04386   =>   CDf =  0.00675    CDp =  0.03711

 Side 1  free  transition at x/c =  0.0112   22
 Side 2 forced transition at x/c =  1.0000   68

   2   rms: 0.1224E-01   max: 0.5249E-01   D at   71  1
       a = 14.000      CL =  1.4404
      Cm = -0.0393     CD =  0.04471   =>   CDf =  0.00667    CDp =  0.03804

 Side 1  free  transition at x/c =  0.0110   22
 Side 2 forced transition at x/c =  1.0000   68

   3   rms: 0.1229E-02   max: 0.7909E-02   D at   81  2
       a = 14.000      CL =  1.4396
      Cm = -0.0392     CD =  0.04464   =>   CDf =  0.00664    CDp =  0.03800

 Side 1  free  transition at x/c =  0.0111   22
 Side 2 forced transition at x/c =  1.0000   68

   4   rms: 0.5211E-04   max: 0.7539E-03   D at   81  2
       a = 14.000      CL =  1.4396
      Cm = -0.0392     CD =  0.04463   =>   CDf =  0.00663    CDp =  0.03800
 plradd ia,ip,cpol           45           0 -7.62908530E-05

 Point added to stored polar  1
 Point written to save file  hq3513_Re400k.base.pol                          
 Dump file unspecified or not available
 Calculating wake trajectory ...
 Calculating source influence matrix ...

 Solving BL system ...

 Side 1  free  transition at x/c =  0.0111   22
 Side 2 forced transition at x/c =  1.0000   68

   1   rms: 0.3850E-01   max: 0.1513E+00   T at   22  1   RLX: 0.647
       a = 14.250      CL =  1.4403
      Cm = -0.0389     CD =  0.04657   =>   CDf =  0.00664    CDp =  0.03994

 Side 1  free  transition at x/c =  0.0103   22
 Side 2 forced transition at x/c =  1.0000   68

   2   rms: 0.1562E-01   max: 0.6891E-01   D at   70  1
       a = 14.250      CL =  1.4372
      Cm = -0.0386     CD =  0.04779   =>   CDf =  0.00658    CDp =  0.04121

 Side 1  free  transition at x/c =  0.0100   22
 Side 2 forced transition at x/c =  1.0000   68

   3   rms: 0.1866E-02   max: 0.1049E-01   D at   81  2
       a = 14.250      CL =  1.4359
      Cm = -0.0385     CD =  0.04770   =>   CDf =  0.00654    CDp =  0.04116

 Side 1  free  transition at x/c =  0.0101   22
 Side 2 forced transition at x/c =  1.0000   68

   4   rms: 0.8826E-04   max: 0.6634E-03   D at   81  2
       a = 14.250      CL =  1.4359
      Cm = -0.0385     CD =  0.04768   =>   CDf =  0.00654    CDp =  0.04114
 plradd ia,ip,cpol           46           0 -7.62908530E-05

 Point added to stored polar  1
 Point written to save file  hq3513_Re400k.base.pol                          
 Dump file unspecified or not available
 Calculating wake trajectory ...
 Calculating source influence matrix ...

 Solving BL system ...

 Side 1  free  transition at x/c =  0.0101   22
 Side 2 forced transition at x/c =  1.0000   68

   1   rms: 0.3605E-01   max: 0.1304E+00   D at   66  1   RLX: 0.621
       a = 14.500      CL =  1.4363
      Cm = -0.0383     CD =  0.04968   =>   CDf =  0.00654    CDp =  0.04313

 Side 1  free  transition at x/c =  0.0098   22
 Side 2 forced transition at x/c =  1.0000   68

   2   rms: 0.1513E-01   max: 0.6228E-01   D at   68  1
       a = 14.500      CL =  1.4341
      Cm = -0.0381     CD =  0.05093   =>   CDf =  0.00646    CDp =  0.04447

 Side 1  free  transition at x/c =  0.0098   22
 Side 2 forced transition at x/c =  1.0000   68

   3   rms: 0.1802E-02   max: 0.1155E-01   D at   68  1
       a = 14.500      CL =  1.4329
      Cm = -0.0380     CD =  0.05082   =>   CDf =  0.00641    CDp =  0.04440

 Side 1  free  transition at x/c =  0.0098   22
 Side 2 forced transition at x/c =  1.0000   68

   4   rms: 0.6689E-04   max: 0.6742E-03   D at   82  2
       a = 14.500      CL =  1.4329
      Cm = -0.0380     CD =  0.05080   =>   CDf =  0.00641    CDp =  0.04439
 plradd ia,ip,cpol           47           0 -7.62908530E-05

 Point added to stored polar  1
 Point written to save file  hq3513_Re400k.base.pol                          
 Dump file unspecified or not available
 Calculating wake trajectory ...
 Calculating source influence matrix ...

 Solving BL system ...

 Side 1  free  transition at x/c =  0.0098   22
 Side 2 forced transition at x/c =  1.0000   68

   1   rms: 0.4151E-01   max: 0.1620E+00   D at   65  1   RLX: 0.594
       a = 14.750      CL =  1.4301
      Cm = -0.0380     CD =  0.05326   =>   CDf =  0.00582    CDp =  0.04744

 Side 1  free  transition at x/c =  0.0095   22
 Side 2 forced transition at x/c =  1.0000   67

   2   rms: 0.1661E-01   max: 0.1415E+00   D at    2  1
       a = 14.750      CL =  1.4293
      Cm = -0.0379     CD =  0.05441   =>   CDf =  0.00632    CDp =  0.04809

 Side 1  free  transition at x/c =  0.0095   22
 Side 2 forced transition at x/c =  1.0000   67

   3   rms: 0.1906E-02   max: 0.1099E-01   D at   81  2
       a = 14.750      CL =  1.4280
      Cm = -0.0378     CD =  0.05431   =>   CDf =  0.00626    CDp =  0.04805

 Side 1  free  transition at x/c =  0.0095   22
 Side 2 forced transition at x/c =  1.0000   67

   4   rms: 0.1248E-03   max: 0.1199E-02   D at   81  2
       a = 14.750      CL =  1.4280
      Cm = -0.0378     CD =  0.05429   =>   CDf =  0.00626    CDp =  0.04803

 Side 1  free  transition at x/c =  0.0095   22
 Side 2 forced transition at x/c =  1.0000   67

   5   rms: 0.5131E-05   max: -.6763E-04   C at   67  2
       a = 14.750      CL =  1.4280
      Cm = -0.0378     CD =  0.05429   =>   CDf =  0.00626    CDp =  0.04803
 plradd ia,ip,cpol           48           0 -7.62908530E-05

 Point added to stored polar  1
 Point written to save file  hq3513_Re400k.base.pol                          
 Dump file unspecified or not available
 Calculating wake trajectory ...
 Calculating source influence matrix ...

 Solving BL system ...

 Side 1  free  transition at x/c =  0.0095   22
 Side 2 forced transition at x/c =  1.0000   67

   1   rms: 0.3303E-01   max: 0.1202E+00   D at   65  1   RLX: 0.576
       a = 15.000      CL =  1.4292
      Cm = -0.0379     CD =  0.05619   =>   CDf =  0.00627    CDp =  0.04992

 Side 1  free  transition at x/c =  0.0093   22
 Side 2 forced transition at x/c =  1.0000   67

   2   rms: 0.1556E-01   max: 0.6762E-01   D at   67  1
       a = 15.000      CL =  1.4278
      Cm = -0.0379     CD =  0.05764   =>   CDf =  0.00619    CDp =  0.05145

 Side 1  free  transition at x/c =  0.0093   22
 Side 2 forced transition at x/c =  1.0000   67

   3   rms: 0.2037E-02   max: 0.1293E-01   D at   81  2
       a = 15.000      CL =  1.4265
      Cm = -0.0379     CD =  0.05752   =>   CDf =  0.00614    CDp =  0.05138

 Side 1  free  transition at x/c =  0.0093   22
 Side 2 forced transition at x/c =  1.0000   67

   4   rms: 0.1274E-03   max: 0.9635E-03   D at   81  2
       a = 15.000      CL =  1.4264
      Cm = -0.0379     CD =  0.05750   =>   CDf =  0.00613    CDp =  0.05136

 Side 1  free  transition at x/c =  0.0093   22
 Side 2 forced transition at x/c =  1.0000   67

   5   rms: 0.5889E-05   max: -.8210E-04   C at   67  2
       a = 15.000      CL =  1.4264
      Cm = -0.0379     CD =  0.05750   =>   CDf =  0.00613    CDp =  0.05136
 plradd ia,ip,cpol           49           0 -7.62908530E-05

 Point added to stored polar  1
 Point written to save file  hq3513_Re400k.base.pol                          
 Dump file unspecified or not available
 Calculating wake trajectory ...
 Calculating source influence matrix ...

 Solving BL system ...

 Side 1  free  transition at x/c =  0.0093   22
 Side 2 forced transition at x/c =  1.0000   67

   1   rms: 0.3528E-01   max: 0.1391E+00   D at   64  1   RLX: 0.554
       a = 15.250      CL =  1.4258
      Cm = -0.0381     CD =  0.05970   =>   CDf =  0.00614    CDp =  0.05356

 Side 1  free  transition at x/c =  0.0092   22
 Side 2 forced transition at x/c =  1.0000   67

   2   rms: 0.1702E-01   max: 0.7364E-01   D at   66  1
       a = 15.250      CL =  1.4235
      Cm = -0.0382     CD =  0.06141   =>   CDf =  0.00606    CDp =  0.05535

 Side 1  free  transition at x/c =  0.0091   22
 Side 2 forced transition at x/c =  1.0000   67

   3   rms: 0.2444E-02   max: 0.1431E-01   D at   65  1
       a = 15.250      CL =  1.4219
      Cm = -0.0381     CD =  0.06125   =>   CDf =  0.00600    CDp =  0.05525

 Side 1  free  transition at x/c =  0.0091   22
 Side 2 forced transition at x/c =  1.0000   67

   4   rms: 0.1484E-03   max: 0.1140E-02   D at   82  2
       a = 15.250      CL =  1.4218
      Cm = -0.0381     CD =  0.06122   =>   CDf =  0.00600    CDp =  0.05523

 Side 1  free  transition at x/c =  0.0091   22
 Side 2 forced transition at x/c =  1.0000   67

   5   rms: 0.5927E-05   max: -.8731E-04   C at   67  2
       a = 15.250      CL =  1.4218
      Cm = -0.0381     CD =  0.06122   =>   CDf =  0.00600    CDp =  0.05523
 plradd ia,ip,cpol           50           0 -7.62908530E-05

 Point added to stored polar  1
 Point written to save file  hq3513_Re400k.base.pol                          
 Dump file unspecified or not available
 Calculating wake trajectory ...
 Calculating source influence matrix ...

 Solving BL system ...

 Side 1  free  transition at x/c =  0.0091   22
 Side 2 forced transition at x/c =  1.0000   67

   1   rms: 0.3717E-01   max: 0.1472E+00   D at   63  1   RLX: 0.534
       a = 15.500      CL =  1.4207
      Cm = -0.0385     CD =  0.06355   =>   CDf =  0.00600    CDp =  0.05755

 Side 1  free  transition at x/c =  0.0088   22
 Side 2 forced transition at x/c =  1.0000   67

   2   rms: 0.1886E-01   max: 0.8140E-01   D at   64  1
       a = 15.500      CL =  1.4175
      Cm = -0.0388     CD =  0.06556   =>   CDf =  0.00592    CDp =  0.05964

 Side 1  free  transition at x/c =  0.0086   22
 Side 2 forced transition at x/c =  1.0000   67

   3   rms: 0.3043E-02   max: 0.1577E-01   D at   82  2
       a = 15.500      CL =  1.4155
      Cm = -0.0387     CD =  0.06542   =>   CDf =  0.00586    CDp =  0.05956

 Side 1  free  transition at x/c =  0.0086   22
 Side 2 forced transition at x/c =  1.0000   67

   4   rms: 0.2000E-03   max: 0.1749E-02   D at   82  2
       a = 15.500      CL =  1.4153
      Cm = -0.0387     CD =  0.06538   =>   CDf =  0.00585    CDp =  0.05953

 Side 1  free  transition at x/c =  0.0086   22
 Side 2 forced transition at x/c =  1.0000   67

   5   rms: 0.5766E-05   max: -.9460E-04   C at   67  2
       a = 15.500      CL =  1.4153
      Cm = -0.0387     CD =  0.06538   =>   CDf =  0.00585    CDp =  0.05953
 plradd ia,ip,cpol           51           0 -7.62908530E-05

 Point added to stored polar  1
 Point written to save file  hq3513_Re400k.base.pol                          
 Dump file unspecified or not available
 Calculating wake trajectory ...
 Calculating source influence matrix ...

 Solving BL system ...

 Side 1  free  transition at x/c =  0.0086   22
 Side 2 forced transition at x/c =  1.0000   67

   1   rms: 0.3443E-01   max: 0.1404E+00   D at   61  1   RLX: 0.516
       a = 15.750      CL =  1.4147
      Cm = -0.0391     CD =  0.06767   =>   CDf =  0.00586    CDp =  0.06181

 Side 1  free  transition at x/c =  0.0086   22
 Side 2 forced transition at x/c =  1.0000   67

   2   rms: 0.1856E-01   max: 0.8582E-01   D at   63  1
       a = 15.750      CL =  1.4119
      Cm = -0.0396     CD =  0.06982   =>   CDf =  0.00579    CDp =  0.06403

 Side 1  free  transition at x/c =  0.0085   22
 Side 2 forced transition at x/c =  1.0000   67

   3   rms: 0.2949E-02   max: 0.1808E-01   D at   82  2
       a = 15.750      CL =  1.4101
      Cm = -0.0395     CD =  0.06958   =>   CDf =  0.00573    CDp =  0.06386

 Side 1  free  transition at x/c =  0.0085   22
 Side 2 forced transition at x/c =  1.0000   67

   4   rms: 0.2474E-03   max: 0.2821E-02   D at   82  2
       a = 15.750      CL =  1.4099
      Cm = -0.0395     CD =  0.06954   =>   CDf =  0.00572    CDp =  0.06382

 Side 1  free  transition at x/c =  0.0085   22
 Side 2 forced transition at x/c =  1.0000   67

   5   rms: 0.1234E-04   max: -.1621E-03   C at   67  2
       a = 15.750      CL =  1.4099
      Cm = -0.0395     CD =  0.06954   =>   CDf =  0.00572    CDp =  0.06382
 plradd ia,ip,cpol           52           0 -7.62908530E-05

 Point added to stored polar  1
 Point written to save file  hq3513_Re400k.base.pol                          
 Dump file unspecified or not available
 Calculating wake trajectory ...
 Calculating source influence matrix ...

 Solving BL system ...

 Side 1  free  transition at x/c =  0.0085   22
 Side 2 forced transition at x/c =  1.0000   67

   1   rms: 0.3534E-01   max: 0.1492E+00   D at   60  1   RLX: 0.498
       a = 16.000      CL =  1.4087
      Cm = -0.0401     CD =  0.07197   =>   CDf =  0.00573    CDp =  0.06624

 Side 1  free  transition at x/c =  0.0084   22
 Side 2 forced transition at x/c =  1.0000   67

   2   rms: 0.1829E-01   max: 0.8061E-01   D at   61  1
       a = 16.000      CL =  1.4063
      Cm = -0.0406     CD =  0.07417   =>   CDf =  0.00566    CDp =  0.06851

 Side 1  free  transition at x/c =  0.0083   22
 Side 2 forced transition at x/c =  1.0000   67

   3   rms: 0.3310E-02   max: 0.1740E-01   D at   61  1
       a = 16.000      CL =  1.4042
      Cm = -0.0406     CD =  0.07396   =>   CDf =  0.00560    CDp =  0.06836

 Side 1  free  transition at x/c =  0.0083   22
 Side 2 forced transition at x/c =  1.0000   67

   4   rms: 0.2077E-03   max: 0.1527E-02   D at   82  2
       a = 16.000      CL =  1.4041
      Cm = -0.0406     CD =  0.07390   =>   CDf =  0.00560    CDp =  0.06830

 Side 1  free  transition at x/c =  0.0083   22
 Side 2 forced transition at x/c =  1.0000   67

   5   rms: 0.6306E-05   max: -.1202E-03   C at   67  2
       a = 16.000      CL =  1.4041
      Cm = -0.0406     CD =  0.07390   =>   CDf =  0.00560    CDp =  0.06830
 plradd ia,ip,cpol           53           0 -7.62908530E-05

 Point added to stored polar  1
 Point written to save file  hq3513_Re400k.base.pol                          
 Dump file unspecified or not available

.OPERva   c>  
 Polar accumulation disabled

.OPERv   c>  
 XFOIL   c>  
 XFOIL   c>  