
 ===================================================
  XFOIL Version 6.99
  Copyright (C) 2000   Mark Drela, Harold Youngren

  This software comes with ABSOLUTELY NO WARRANTY,
    subject to the GNU General Public License.

  Caveat computor
 ===================================================

 File  xfoil.def  not found

   QUIT    Exit program

  .OPER    Direct operating point(s)
  .MDES    Complex mapping design routine
  .QDES    Surface speed design routine
  .GDES    Geometry design routine

   SAVE f  Write airfoil to labeled coordinate file
   PSAV f  Write airfoil to plain coordinate file
   ISAV f  Write airfoil to ISES coordinate file
   MSAV f  Write airfoil to MSES coordinate file
   REVE    Reverse written-airfoil node ordering

   LOAD f  Read buffer airfoil from coordinate file
   NACA i  Set NACA 4,5-digit airfoil and buffer airfoil
   INTE    Set buffer airfoil by interpolating two airfoils
   NORM    Buffer airfoil normalization toggle
   XYCM rr Change CM reference location, currently  0.25000 0.00000

   BEND    Display structural properties of current airfoil

   PCOP    Set current-airfoil panel nodes directly from buffer airfoil points
   PANE    Set current-airfoil panel nodes ( 160 ) based on curvature
  .PPAR    Show/change paneling

  .PLOP    Plotting options

   WDEF f  Write  current-settings file
   RDEF f  Reread current-settings file
   NAME s  Specify new airfoil name
   NINC    Increment name version number

   Z       Zoom    | (available in all menus)
   U       Unzoom  | 

 XFOIL   c>  
 Labeled airfoil file.  Name:  HQ 3.5/10 AIRFOIL                               

 Number of input coordinate points:  77
 Counterclockwise ordering
 Max thickness =     0.099642  at x =   0.350
 Max camber    =     0.034466  at x =   0.500

  LE  x,y  =  -0.00013   0.00102  |   Chord =   1.00013
  TE  x,y  =   1.00000   0.00000  |

 Current airfoil nodes set from buffer airfoil nodes (  77 )

 WARNING: Poor input coordinate distribution
          Excessive panel angle   57.2  at i =  39
          Repaneling with PANE and/or PPAR suggested
           (doing GDES,CADD before repaneling _may_
            improve excessively coarse LE spacing

 XFOIL   c>  
 XFOIL   c>  
 Sharp trailing edge

 Paneling parameters used...
   Number of panel nodes       160
   Panel bunching parameter    1.000
   TE/LE panel density ratio   0.150
   Refined-area/LE panel density ratio    0.200
   Top    side refined area x/c limits  1.000 1.000
   Bottom side refined area x/c limits  1.000 1.000

 XFOIL   c>  
.OPERi   c>  
 Xtr/c     =  1.0000    top    side
 Xtr/c     =  1.0000    bottom side
 Ncrit     =    9.00   ( 0.070 % turb. level )
 Vacc      =  0.0100

 Klag  =  5.6000     Uxwt  =    1.00
 A     =  6.7000     B     =  0.7500       KCt = 0.01485
 CtiniK=  1.8000     CtiniX=  3.3000

..VPAR   c>  
..VPAR   c>  
.OPERi   c>  
 M  =    0.0000
 Re =    150000

.OPERv   c>  
.OPERv   c>  
.OPERv   c>  
 Polar  1 newly created for accumulation
 Airfoil archived with polar: HQ 3.5/10 AIRFOIL                               

Enter  polar save filename  OR  <return> for no file   s>  
 New polar save file available

Enter  polar dump filename  OR  <return> for no file   s>  
 Polar dump file will NOT be written

 Polar accumulation enabled

.OPERva   c>   Calculating unit vorticity distributions ...
 Calculating wake trajectory ...
 Calculating source influence matrix ...

 Solving BL system ...

 Initializing BL ...
    side            1  ...
 MRCHUE: Inverse mode at  56     Hk =   3.800
 MRCHUE: Inverse mode at  57     Hk =   4.095
 MRCHUE: Inverse mode at  58     Hk =   4.385
 MRCHUE: Inverse mode at  59     Hk =   4.670
 MRCHUE: Inverse mode at  60     Hk =   4.950
 MRCHUE: Inverse mode at  61     Hk =   5.227
 MRCHUE: Inverse mode at  62     Hk =   5.500
 MRCHUE: Inverse mode at  63     Hk =   5.772
 MRCHUE: Inverse mode at  64     Hk =   6.041
 MRCHUE: Inverse mode at  65     Hk =   6.309
 MRCHUE: Inverse mode at  66     Hk =   6.574
 MRCHUE: Inverse mode at  67     Hk =   6.835
 MRCHUE: Inverse mode at  68     Hk =   7.095
 MRCHUE: Inverse mode at  69     Hk =   7.354
 MRCHUE: Inverse mode at  70     Hk =   7.611
 MRCHUE: Inverse mode at  71     Hk =   7.864
 MRCHUE: Inverse mode at  72     Hk =   8.113
 MRCHUE: Inverse mode at  73     Hk =   8.364
 MRCHUE: Inverse mode at  74     Hk =   8.612
 MRCHUE: Inverse mode at  75     Hk =   8.829
 MRCHUE: Inverse mode at  76     Hk =   9.001
 MRCHUE: Inverse mode at  77     Hk =   9.095
    side            2  ...
 MRCHUE: Inverse mode at  11     Hk =   3.919
 MRCHUE: Convergence failed at  12  side 2    Res =  0.9828E+00
 MRCHUE: Inverse mode at  13     Hk =   4.941
 MRCHUE: Inverse mode at  14     Hk =   6.030
 MRCHUE: Inverse mode at  15     Hk =   7.267
 MRCHUE: Inverse mode at  16     Hk =   8.542
 MRCHUE: Inverse mode at  17     Hk =   9.748
 MRCHUE: Inverse mode at  18     Hk =   8.796
 MRCHUE: Inverse mode at  19     Hk =   4.630
 MRCHUE: Inverse mode at  20     Hk =   2.695
 MRCHUE: Inverse mode at  21     Hk =   2.500
 MRCHUE: Inverse mode at  22     Hk =   2.500

 Side 1 forced transition at x/c =  1.0000   77
 Side 2  free  transition at x/c =  0.0669   18

   1   rms: 0.1910E+01   max: 0.1394E+02   T at   18  2   RLX: 0.059
       a = -4.000      CL = -0.0228
      Cm = -0.1423     CD =  0.01929   =>   CDf =  0.00659    CDp =  0.01270

 Side 1 forced transition at x/c =  1.0000   77
 Side 2  free  transition at x/c =  0.0556   18

   2   rms: 0.3737E+02   max: -.1023E+03   D at   27  2   RLX: 0.005
       a = -4.000      CL = -0.0462
      Cm = -0.1391     CD =  0.01665   =>   CDf =  0.00573    CDp =  0.01092

 MRCHDU: Convergence failed at  18  side 2    Res =  0.2393E+02
 MRCHDU: Convergence failed at  19  side 2    Res =  0.3235E+01
 MRCHDU: Convergence failed at  20  side 2    Res =  0.6532E+01
 MRCHDU: Convergence failed at  21  side 2    Res =  0.1112E+02
 MRCHDU: Convergence failed at  22  side 2    Res =  0.3388E+02
 MRCHDU: Convergence failed at  23  side 2    Res =  0.2607E+02
 MRCHDU: Convergence failed at  24  side 2    Res =  0.4636E+02
 MRCHDU: Convergence failed at  25  side 2    Res =  0.8227E+02
 MRCHDU: Convergence failed at  26  side 2    Res =  0.6896E+02
 MRCHDU: Convergence failed at  27  side 2    Res =  0.8090E+02
 MRCHDU: Convergence failed at  28  side 2    Res =  0.1736E+03
 MRCHDU: Convergence failed at  29  side 2    Res =  0.1009E+03
 MRCHDU: Convergence failed at  30  side 2    Res =  0.9339E+02
 MRCHDU: Convergence failed at  31  side 2    Res =  0.2498E+02
 MRCHDU: Convergence failed at  32  side 2    Res =  0.4898E+02
 MRCHDU: Convergence failed at  33  side 2    Res =  0.4335E+02
 MRCHDU: Convergence failed at  34  side 2    Res =  0.4165E+02
 MRCHDU: Convergence failed at  35  side 2    Res =  0.4124E+02
 MRCHDU: Convergence failed at  36  side 2    Res =  0.3935E+02
 MRCHDU: Convergence failed at  37  side 2    Res =  0.2103E+02
 MRCHDU: Convergence failed at  38  side 2    Res =  0.2246E+02
 MRCHDU: Convergence failed at  39  side 2    Res =  0.2165E+02
 MRCHDU: Convergence failed at  40  side 2    Res =  0.3557E+02
 MRCHDU: Convergence failed at  41  side 2    Res =  0.3741E+02
 MRCHDU: Convergence failed at  42  side 2    Res =  0.2681E+02
 MRCHDU: Convergence failed at  43  side 2    Res =  0.2778E+02
 MRCHDU: Convergence failed at  44  side 2    Res =  0.2883E+02
 MRCHDU: Convergence failed at  45  side 2    Res =  0.2991E+02
 MRCHDU: Convergence failed at  46  side 2    Res =  0.3155E+02
 MRCHDU: Convergence failed at  47  side 2    Res =  0.3313E+02
 MRCHDU: Convergence failed at  48  side 2    Res =  0.3532E+02
 MRCHDU: Convergence failed at  49  side 2    Res =  0.3749E+02
 MRCHDU: Convergence failed at  50  side 2    Res =  0.3988E+02
 MRCHDU: Convergence failed at  51  side 2    Res =  0.4289E+02
 MRCHDU: Convergence failed at  52  side 2    Res =  0.4626E+02
 MRCHDU: Convergence failed at  53  side 2    Res =  0.3600E+02
 MRCHDU: Convergence failed at  54  side 2    Res =  0.3003E+02
 MRCHDU: Convergence failed at  55  side 2    Res =  0.3208E+02
 MRCHDU: Convergence failed at  56  side 2    Res =  0.3437E+02
 MRCHDU: Convergence failed at  57  side 2    Res =  0.3716E+02
 MRCHDU: Convergence failed at  58  side 2    Res =  0.4022E+02
 MRCHDU: Convergence failed at  59  side 2    Res =  0.4376E+02
 MRCHDU: Convergence failed at  60  side 2    Res =  0.1106E+03
 MRCHDU: Convergence failed at  61  side 2    Res =  0.1417E+03
 MRCHDU: Convergence failed at  62  side 2    Res =  0.1900E+03
 MRCHDU: Convergence failed at  63  side 2    Res =  0.2935E+03
 MRCHDU: Convergence failed at  64  side 2    Res =  0.2665E+03
 MRCHDU: Convergence failed at  65  side 2    Res =  0.4933E+03
 MRCHDU: Convergence failed at  66  side 2    Res =  0.7711E+03
 MRCHDU: Convergence failed at  67  side 2    Res =  0.6660E+02
 MRCHDU: Convergence failed at  68  side 2    Res =  0.7162E+02
 MRCHDU: Convergence failed at  69  side 2    Res =  0.7755E+02
 MRCHDU: Convergence failed at  70  side 2    Res =  0.8152E+02
 MRCHDU: Convergence failed at  71  side 2    Res =  0.8628E+02
 MRCHDU: Convergence failed at  72  side 2    Res =  0.9256E+02
 MRCHDU: Convergence failed at  73  side 2    Res =  0.9953E+02
 MRCHDU: Convergence failed at  74  side 2    Res =  0.9666E+02
 MRCHDU: Convergence failed at  75  side 2    Res =  0.9056E+02
 MRCHDU: Convergence failed at  76  side 2    Res =  0.9729E+02
 MRCHDU: Convergence failed at  77  side 2    Res =  0.9703E+02
 MRCHDU: Convergence failed at  78  side 2    Res =  0.3180E+03
 MRCHDU: Convergence failed at  79  side 2    Res =  0.5778E+03
 MRCHDU: Convergence failed at  80  side 2    Res =  0.2502E+03
 MRCHDU: Convergence failed at  81  side 2    Res =  0.2322E+03
 MRCHDU: Convergence failed at  82  side 2    Res =  0.3422E+03
 MRCHDU: Convergence failed at  83  side 2    Res =  0.2233E+03
 MRCHDU: Convergence failed at  84  side 2    Res =  0.6738E+03
 MRCHDU: Convergence failed at  85  side 2    Res =  0.3371E+03
 Side 1 forced transition at x/c =  1.0000   77
 Side 2  free  transition at x/c =  0.0539   17

   3   rms: 0.1718E+01   max: 0.1030E+02   D at   87  2   RLX: 0.146
       a = -4.000      CL = -1.5483
      Cm =  0.3478     CD =  0.00524   =>   CDf =  0.00314    CDp =  0.00210

 MRCHDU: Convergence failed at  24  side 2    Res =  0.3601E+00
 MRCHDU: Convergence failed at  25  side 2    Res =  0.3476E+00
 MRCHDU: Convergence failed at  26  side 2    Res =  0.3367E+00
 MRCHDU: Convergence failed at  27  side 2    Res =  0.3182E+00
 MRCHDU: Convergence failed at  28  side 2    Res =  0.3048E+00
 MRCHDU: Convergence failed at  29  side 2    Res =  0.2883E+00
 MRCHDU: Convergence failed at  30  side 2    Res =  0.2727E+00
 MRCHDU: Convergence failed at  31  side 2    Res =  0.2557E+00
 MRCHDU: Convergence failed at  32  side 2    Res =  0.2386E+00
 MRCHDU: Convergence failed at  33  side 2    Res =  0.2218E+00
 MRCHDU: Convergence failed at  34  side 2    Res =  0.2025E+00
 MRCHDU: Convergence failed at  35  side 2    Res =  0.1805E+00
 MRCHDU: Convergence failed at  36  side 2    Res =  0.1579E+00
 MRCHDU: Convergence failed at  37  side 2    Res =  0.1283E+00
 MRCHDU: Convergence failed at  38  side 2    Res =  0.9202E-01
 Side 1 forced transition at x/c =  1.0000   77
 Side 2  free  transition at x/c =  0.0490   17

   4   rms: 0.6125E+00   max: 0.3346E+01   T at   17  2   RLX: 0.391
       a = -4.000      CL = -0.7216
      Cm =  0.1030     CD =  0.02275   =>   CDf =  0.00454    CDp =  0.01821

 MRCHDU: Convergence failed at  17  side 2    Res =  0.7293E+01
 MRCHDU: Convergence failed at  18  side 2    Res =  0.1824E+02
 MRCHDU: Convergence failed at  19  side 2    Res =  0.3720E+02
 MRCHDU: Convergence failed at  20  side 2    Res =  0.4516E+02
 MRCHDU: Convergence failed at  21  side 2    Res =  0.3932E+02
 MRCHDU: Convergence failed at  22  side 2    Res =  0.3231E+02
 MRCHDU: Convergence failed at  23  side 2    Res =  0.4395E+02
 MRCHDU: Convergence failed at  24  side 2    Res =  0.4919E+02
 MRCHDU: Convergence failed at  25  side 2    Res =  0.5349E+02
 MRCHDU: Convergence failed at  26  side 2    Res =  0.5184E+02
 MRCHDU: Convergence failed at  27  side 2    Res =  0.5442E+02
 MRCHDU: Convergence failed at  28  side 2    Res =  0.5695E+02
 MRCHDU: Convergence failed at  29  side 2    Res =  0.5918E+02
 MRCHDU: Convergence failed at  30  side 2    Res =  0.6067E+02
 MRCHDU: Convergence failed at  31  side 2    Res =  0.6271E+02
 MRCHDU: Convergence failed at  32  side 2    Res =  0.6516E+02
 MRCHDU: Convergence failed at  33  side 2    Res =  0.6819E+02
 MRCHDU: Convergence failed at  34  side 2    Res =  0.7130E+02
 MRCHDU: Convergence failed at  35  side 2    Res =  0.7408E+02
 MRCHDU: Convergence failed at  36  side 2    Res =  0.7655E+02
 MRCHDU: Convergence failed at  37  side 2    Res =  0.7598E+02
 MRCHDU: Convergence failed at  38  side 2    Res =  0.1807E+02
 MRCHDU: Convergence failed at  39  side 2    Res =  0.1778E+02
 MRCHDU: Convergence failed at  40  side 2    Res =  0.5554E+02
 MRCHDU: Convergence failed at  41  side 2    Res =  0.6671E+02
 MRCHDU: Convergence failed at  42  side 2    Res =  0.6589E+02
 MRCHDU: Convergence failed at  43  side 2    Res =  0.6155E+02
 MRCHDU: Convergence failed at  44  side 2    Res =  0.5658E+02
 MRCHDU: Convergence failed at  45  side 2    Res =  0.5000E+02
 MRCHDU: Convergence failed at  46  side 2    Res =  0.4024E+02
 MRCHDU: Convergence failed at  47  side 2    Res =  0.3406E+02
 MRCHDU: Convergence failed at  48  side 2    Res =  0.3386E+02
 MRCHDU: Convergence failed at  49  side 2    Res =  0.2872E+02
 MRCHDU: Convergence failed at  50  side 2    Res =  0.2649E+02
 MRCHDU: Convergence failed at  51  side 2    Res =  0.2024E+02
 MRCHDU: Convergence failed at  52  side 2    Res =  0.1908E+02
 MRCHDU: Convergence failed at  53  side 2    Res =  0.1791E+02
 MRCHDU: Convergence failed at  54  side 2    Res =  0.2072E+02
 MRCHDU: Convergence failed at  55  side 2    Res =  0.1955E+02
 MRCHDU: Convergence failed at  56  side 2    Res =  0.2289E+02
 MRCHDU: Convergence failed at  57  side 2    Res =  0.2136E+02
 MRCHDU: Convergence failed at  58  side 2    Res =  0.2161E+02
 MRCHDU: Convergence failed at  59  side 2    Res =  0.2054E+02
 MRCHDU: Convergence failed at  60  side 2    Res =  0.2226E+02
 MRCHDU: Convergence failed at  61  side 2    Res =  0.2242E+02
 MRCHDU: Convergence failed at  62  side 2    Res =  0.2421E+02
 MRCHDU: Convergence failed at  63  side 2    Res =  0.2645E+02
 MRCHDU: Convergence failed at  64  side 2    Res =  0.3023E+02
 MRCHDU: Convergence failed at  65  side 2    Res =  0.3500E+02
 MRCHDU: Convergence failed at  66  side 2    Res =  0.4623E+02
 MRCHDU: Convergence failed at  67  side 2    Res =  0.5611E+02
 MRCHDU: Convergence failed at  68  side 2    Res =  0.1015E+03
 MRCHDU: Convergence failed at  69  side 2    Res =  0.1139E+03
 MRCHDU: Convergence failed at  70  side 2    Res =  0.3802E+02
 MRCHDU: Convergence failed at  71  side 2    Res =  0.2814E+02
 MRCHDU: Convergence failed at  72  side 2    Res =  0.1777E+02
 MRCHDU: Convergence failed at  73  side 2    Res =  0.1656E+03
 MRCHDU: Convergence failed at  74  side 2    Res =  0.4284E+03
 MRCHDU: Convergence failed at  75  side 2    Res =  0.3080E+03
 MRCHDU: Convergence failed at  76  side 2    Res =  0.2612E+03
 MRCHDU: Convergence failed at  77  side 2    Res =  0.2012E+03
 MRCHDU: Convergence failed at  78  side 2    Res =  0.1464E+03
 MRCHDU: Convergence failed at  79  side 2    Res =  0.1158E+03
 MRCHDU: Convergence failed at  80  side 2    Res =  0.9435E+02
 MRCHDU: Convergence failed at  81  side 2    Res =  0.7564E+02
 MRCHDU: Convergence failed at  82  side 2    Res =  0.5733E+02
 MRCHDU: Convergence failed at  83  side 2    Res =  0.4498E+02
 MRCHDU: Convergence failed at  84  side 2    Res =  0.3760E+02
 MRCHDU: Convergence failed at  85  side 2    Res =  0.9484E+02
 Side 1 forced transition at x/c =  1.0000   77
 Side 2  free  transition at x/c =  0.0422   17

   5   rms: 0.1381E+01   max: 0.4740E+01   D at   90  2   RLX: 0.316
       a = -4.000      CL = -1.3520
      Cm =  0.3000     CD =  0.01013   =>   CDf =  0.00289    CDp =  0.00724

 MRCHDU: Convergence failed at  90  side 2    Res =  0.7763E+01
 MRCHDU: Convergence failed at  91  side 2    Res =  0.1561E+01
 MRCHDU: Convergence failed at  92  side 2    Res =  0.2167E+01
 MRCHDU: Convergence failed at  93  side 2    Res =  0.3652E+01
 MRCHDU: Convergence failed at  94  side 2    Res =  0.5352E+01
 Side 1 forced transition at x/c =  1.0000   77
 Side 2  free  transition at x/c =  0.0472   17

   6   rms: 0.5796E+00   max: -.1803E+01   D at   74  1   RLX: 0.277
       a = -4.000      CL = -0.6217
      Cm =  0.0808     CD =  0.05567   =>   CDf =  0.00354    CDp =  0.05213

 Side 1 forced transition at x/c =  1.0000   77
 Side 2  free  transition at x/c =  0.0487   17

   7   rms: 0.3913E+00   max: -.8012E+00   T at  107  2   RLX: 0.624
       a = -4.000      CL = -0.3006
      Cm = -0.0067     CD =  0.04396   =>   CDf =  0.00397    CDp =  0.03998

 MRCHDU: Convergence failed at  98  side 2    Res =  0.9289E+00
 MRCHDU: Convergence failed at  99  side 2    Res =  0.3477E+01
 MRCHDU: Convergence failed at 100  side 2    Res =  0.3087E+01
 MRCHDU: Convergence failed at 101  side 2    Res =  0.1113E+01
 Side 1 forced transition at x/c =  1.0000   77
 Side 2  free  transition at x/c =  0.0538   17

   8   rms: 0.3452E+00   max: -.1209E+01   D at  104  2   RLX: 0.414
       a = -4.000      CL = -0.2477
      Cm = -0.0320     CD =  0.07594   =>   CDf =  0.00391    CDp =  0.07203

 Side 1 forced transition at x/c =  1.0000   77
 Side 2  free  transition at x/c =  0.0591   18

   9   rms: 0.4251E+01   max: -.4742E+02   T at   18  2   RLX: 0.011
       a = -4.000      CL = -0.1599
      Cm = -0.0575     CD =  0.10060   =>   CDf =  0.00367    CDp =  0.09693

 Side 1 forced transition at x/c =  1.0000   77
 Side 2  free  transition at x/c =  0.0658   18

  10   rms: 0.7434E+00   max: -.4966E+01   T at   18  2   RLX: 0.101
       a = -4.000      CL = -0.2111
      Cm = -0.0507     CD =  0.09379   =>   CDf =  0.00369    CDp =  0.09010

 Side 1 forced transition at x/c =  1.0000   77
 Side 2  free  transition at x/c =  0.0876   20

  11   rms: 0.3216E+01   max: -.3099E+02   T at   20  2   RLX: 0.016
       a = -4.000      CL = -0.1214
      Cm = -0.0769     CD =  0.09581   =>   CDf =  0.00351    CDp =  0.09230

 Side 1 forced transition at x/c =  1.0000   77
 Side 2  free  transition at x/c =  0.0937   20

  12   rms: 0.1289E+02   max: 0.1265E+03   T at   20  2   RLX: 0.009
       a = -4.000      CL = -0.0968
      Cm = -0.0619     CD =  0.10153   =>   CDf =  0.00361    CDp =  0.09792

 Side 1 forced transition at x/c =  1.0000   78
 Side 2  free  transition at x/c =  0.1057   20

  13   rms: 0.1471E+02   max: -.3189E+03   T at   20  2   RLX: 0.002
       a = -4.000      CL = -0.1450
      Cm = -0.0469     CD =  0.10698   =>   CDf =  0.00365    CDp =  0.10333

 Side 1 forced transition at x/c =  1.0000   78
 Side 2  free  transition at x/c =  0.1423   23

  14   rms: 0.2664E+01   max: -.3314E+02   T at   23  2   RLX: 0.015
       a = -4.000      CL = -0.1145
      Cm = -0.0545     CD =  0.10410   =>   CDf =  0.00359    CDp =  0.10051

 Side 1 forced transition at x/c =  1.0000   78
 Side 2  free  transition at x/c =  0.1476   23

  15   rms: 0.1776E+01   max: 0.3951E+02   T at   23  2   RLX: 0.037
       a = -4.000      CL = -0.1325
      Cm = -0.0489     CD =  0.10043   =>   CDf =  0.00362    CDp =  0.09681

 Side 1 forced transition at x/c =  1.0000   78
 Side 2  free  transition at x/c =  0.1439   23

  16   rms: 0.1921E+01   max: -.2992E+02   T at   23  2   RLX: 0.017
       a = -4.000      CL = -0.1310
      Cm = -0.0442     CD =  0.10738   =>   CDf =  0.00361    CDp =  0.10377

 Side 1 forced transition at x/c =  1.0000   78
 Side 2  free  transition at x/c =  0.1493   23

  17   rms: 0.4760E+01   max: 0.9417E+02   T at   23  2   RLX: 0.013
       a = -4.000      CL = -0.1318
      Cm = -0.0402     CD =  0.10683   =>   CDf =  0.00362    CDp =  0.10321

 Side 1 forced transition at x/c =  1.0000   78
 Side 2  free  transition at x/c =  0.1412   23

  18   rms: 0.1433E+01   max: -.1901E+02   T at   23  2   RLX: 0.026
       a = -4.000      CL = -0.1285
      Cm = -0.0345     CD =  0.11472   =>   CDf =  0.00364    CDp =  0.11108

 Side 1 forced transition at x/c =  1.0000   78
 Side 2  free  transition at x/c =  0.1386   22

  19   rms: 0.5027E+01   max: 0.6121E+02   T at   24  2   RLX: 0.025
       a = -4.000      CL = -0.1605
      Cm = -0.0315     CD =  0.12993   =>   CDf =  0.00367    CDp =  0.12626

 Side 1 forced transition at x/c =  1.0000   78
 Side 2  free  transition at x/c =  0.1358   22

  20   rms: 0.3559E+00   max: -.1827E+01   T at   22  2   RLX: 0.274
       a = -4.000      CL = -0.2390
      Cm = -0.0237     CD =  0.09310   =>   CDf =  0.00358    CDp =  0.08952

 Side 1 forced transition at x/c =  1.0000   78
 Side 2  free  transition at x/c =  0.1224   21

  21   rms: 0.4646E+00   max: -.6725E+01   T at   22  2   RLX: 0.074
       a = -4.000      CL = -0.2654
      Cm = -0.0195     CD =  0.09968   =>   CDf =  0.00342    CDp =  0.09626

 Side 1  free  transition at x/c =  0.9972   78
 Side 2  free  transition at x/c =  0.1097   20

  22   rms: 0.2985E+00   max: -.9928E+00   D at  102  2   RLX: 0.504
       a = -4.000      CL = -0.2222
      Cm = -0.0295     CD =  0.07441   =>   CDf =  0.00341    CDp =  0.07099

 Side 1  free  transition at x/c =  0.9883   77
 Side 2  free  transition at x/c =  0.0992   20
 idif Ue xi dudx           1  0.19087824      3.65519524E-03   52.221081    
 Uenew xinew           2  6.33106707E-03  1.21235847E-04

  23   rms: 0.3279E+00   max: 0.1995E+01   T at   22  2   RLX: 0.481
       a = -4.000      CL = -0.2016
      Cm = -0.0482     CD =  0.06552   =>   CDf =  0.00334    CDp =  0.06218

 Side 1  free  transition at x/c =  0.9784   75
 Side 2  free  transition at x/c =  0.0993   21

  24   rms: 0.4465E+00   max: 0.3022E+01   T at    2  2   RLX: 0.342
       a = -4.000      CL = -0.2099
      Cm = -0.0705     CD =  0.06450   =>   CDf =  0.00331    CDp =  0.06119

 Side 1  free  transition at x/c =  0.9620   74
 Side 2  free  transition at x/c =  0.0947   20

  25   rms: 0.3772E+00   max: 0.1207E+01   T at   74  1   RLX: 0.453
       a = -4.000      CL = -0.2390
      Cm = -0.0821     CD =  0.05229   =>   CDf =  0.00333    CDp =  0.04896

 Side 1  free  transition at x/c =  0.9475   73
 Side 2  free  transition at x/c =  0.0915   20

  26   rms: 0.2684E+00   max: -.1283E+01   T at   20  2   RLX: 0.390
       a = -4.000      CL = -0.2281
      Cm = -0.0827     CD =  0.04729   =>   CDf =  0.00367    CDp =  0.04362

 Side 1  free  transition at x/c =  0.9420   72
 Side 2  free  transition at x/c =  0.0898   20

  27   rms: 0.2149E+00   max: -.7877E+00   D at   84  2   RLX: 0.635
       a = -4.000      CL = -0.2291
      Cm = -0.0801     CD =  0.04055   =>   CDf =  0.00379    CDp =  0.03676

 Side 1  free  transition at x/c =  0.9322   72
 Side 2  free  transition at x/c =  0.0955   20

  28   rms: 0.1411E+01   max: 0.8208E+01   T at   28  2   RLX: 0.077
       a = -4.000      CL = -0.2092
      Cm = -0.0855     CD =  0.05760   =>   CDf =  0.00419    CDp =  0.05341

 Side 1  free  transition at x/c =  0.9302   71
 Side 2  free  transition at x/c =  0.0915   20

  29   rms: 0.2451E+00   max: -.1773E+01   T at   71  1   RLX: 0.282
       a = -4.000      CL = -0.1585
      Cm = -0.0942     CD =  0.03400   =>   CDf =  0.00478    CDp =  0.02922

 Side 1  free  transition at x/c =  0.9459   73
 Side 2  free  transition at x/c =  0.0923   20

  30   rms: 0.8586E-01   max: -.6089E+00   D at   20  2   RLX: 0.821
       a = -4.000      CL = -0.1293
      Cm = -0.0887     CD =  0.03645   =>   CDf =  0.00509    CDp =  0.03136

 MRCHDU: Convergence failed at  32  side 2    Res =  0.9558E+00
 MRCHDU: Convergence failed at  33  side 2    Res =  0.3539E+02
 MRCHDU: Convergence failed at  34  side 2    Res =  0.3620E+02
 MRCHDU: Convergence failed at  35  side 2    Res =  0.2280E+02
 MRCHDU: Convergence failed at  36  side 2    Res =  0.1998E+02
 MRCHDU: Convergence failed at  37  side 2    Res =  0.2468E+02
 MRCHDU: Convergence failed at  38  side 2    Res =  0.3623E+02
 MRCHDU: Convergence failed at  39  side 2    Res =  0.5640E+02
 MRCHDU: Convergence failed at  40  side 2    Res =  0.9209E+02
 MRCHDU: Convergence failed at  41  side 2    Res =  0.1680E+03
 MRCHDU: Convergence failed at  42  side 2    Res =  0.4295E+03
 MRCHDU: Convergence failed at  43  side 2    Res =  0.7880E+04
 MRCHDU: Convergence failed at  44  side 2    Res =  0.6275E+03
 MRCHDU: Convergence failed at  45  side 2    Res =  0.3470E+03
 MRCHDU: Convergence failed at  46  side 2    Res =  0.2574E+03
 MRCHDU: Convergence failed at  47  side 2    Res =  0.2122E+03
 MRCHDU: Convergence failed at  48  side 2    Res =  0.1947E+03
 MRCHDU: Convergence failed at  49  side 2    Res =  0.1838E+03
 MRCHDU: Convergence failed at  50  side 2    Res =  0.1810E+03
 MRCHDU: Convergence failed at  51  side 2    Res =  0.1753E+03
 MRCHDU: Convergence failed at  52  side 2    Res =  0.1786E+03
 MRCHDU: Convergence failed at  53  side 2    Res =  0.1827E+03
 MRCHDU: Convergence failed at  54  side 2    Res =  0.1908E+03
 MRCHDU: Convergence failed at  55  side 2    Res =  0.1995E+03
 MRCHDU: Convergence failed at  56  side 2    Res =  0.2105E+03
 MRCHDU: Convergence failed at  57  side 2    Res =  0.2287E+03
 MRCHDU: Convergence failed at  58  side 2    Res =  0.2455E+03
 MRCHDU: Convergence failed at  59  side 2    Res =  0.2626E+03
 MRCHDU: Convergence failed at  60  side 2    Res =  0.2917E+03
 MRCHDU: Convergence failed at  61  side 2    Res =  0.3131E+03
 MRCHDU: Convergence failed at  62  side 2    Res =  0.3387E+03
 MRCHDU: Convergence failed at  63  side 2    Res =  0.3831E+03
 MRCHDU: Convergence failed at  64  side 2    Res =  0.4154E+03
 MRCHDU: Convergence failed at  65  side 2    Res =  0.4777E+03
 MRCHDU: Convergence failed at  66  side 2    Res =  0.5224E+03
 MRCHDU: Convergence failed at  67  side 2    Res =  0.5780E+03
 MRCHDU: Convergence failed at  68  side 2    Res =  0.6436E+03
 MRCHDU: Convergence failed at  69  side 2    Res =  0.7188E+03
 MRCHDU: Convergence failed at  70  side 2    Res =  0.7971E+03
 MRCHDU: Convergence failed at  71  side 2    Res =  0.8715E+03
 MRCHDU: Convergence failed at  72  side 2    Res =  0.9576E+03
 MRCHDU: Convergence failed at  73  side 2    Res =  0.1012E+04
 MRCHDU: Convergence failed at  74  side 2    Res =  0.9697E+03
 MRCHDU: Convergence failed at  75  side 2    Res =  0.7047E+03
 MRCHDU: Convergence failed at  76  side 2    Res =  0.6909E+03
 MRCHDU: Convergence failed at  77  side 2    Res =  0.5214E+03
 MRCHDU: Convergence failed at  78  side 2    Res =  0.3457E+03
 MRCHDU: Convergence failed at  79  side 2    Res =  0.2664E+03
 MRCHDU: Convergence failed at  80  side 2    Res =  0.1937E+03
 MRCHDU: Convergence failed at  81  side 2    Res =  0.1864E+03
 MRCHDU: Convergence failed at  82  side 2    Res =  0.1769E+03
 MRCHDU: Convergence failed at  83  side 2    Res =  0.1715E+03
 MRCHDU: Convergence failed at  84  side 2    Res =  0.1710E+03
 MRCHDU: Convergence failed at  85  side 2    Res =  0.1934E+03
 Side 1  free  transition at x/c =  0.9452   72
 Side 2  free  transition at x/c =  0.9292   79

  31   rms: 0.1332E+01   max: 0.8592E+01   C at   79  2   RLX: 0.060
       a = -4.000      CL = -0.9164
      Cm =  0.2067     CD =  0.01137   =>   CDf =  0.00254    CDp =  0.00883

 Side 1  free  transition at x/c =  0.9620   74
 Side 2  free  transition at x/c =  0.0929   20

  32   rms: 0.4078E+01   max: 0.6805E+02   T at   20  2   RLX: 0.011
       a = -4.000      CL = -0.7315
      Cm =  0.1402     CD =  0.07099   =>   CDf =  0.00329    CDp =  0.06770

 Side 1  free  transition at x/c =  0.9637   74
 Side 2  free  transition at x/c =  0.1014   21

  33   rms: 0.1833E+01   max: -.3148E+02   T at   21  2   RLX: 0.016
       a = -4.000      CL = -0.7936
      Cm =  0.1578     CD =  0.07548   =>   CDf =  0.00326    CDp =  0.07222

 Side 1  free  transition at x/c =  0.9665   74
 Side 2  free  transition at x/c =  0.1008   21

  34   rms: 0.9708E+00   max: 0.4460E+01   D at   91  2   RLX: 0.112
       a = -4.000      CL = -0.8542
      Cm =  0.1688     CD =  0.08136   =>   CDf =  0.00327    CDp =  0.07810

 Side 1  free  transition at x/c =  0.9857   76
 Side 2  free  transition at x/c =  0.0949   20

  35   rms: 0.5982E+00   max: -.5679E+01   T at   21  2   RLX: 0.088
       a = -4.000      CL = -0.8249
      Cm =  0.1614     CD =  0.10201   =>   CDf =  0.00329    CDp =  0.09872

 Side 1  free  transition at x/c =  0.9942   76
 Side 2  free  transition at x/c =  0.0890   20

  36   rms: 0.6324E+00   max: -.3505E+01   T at   76  1   RLX: 0.143
       a = -4.000      CL = -0.7540
      Cm =  0.1415     CD =  0.10152   =>   CDf =  0.00332    CDp =  0.09819

 Side 1 forced transition at x/c =  1.0000   77
 Side 2  free  transition at x/c =  0.0859   20

  37   rms: 0.1038E+01   max: -.5634E+01   T at   20  2   RLX: 0.089
       a = -4.000      CL = -0.6655
      Cm =  0.1200     CD =  0.11148   =>   CDf =  0.00339    CDp =  0.10810

 Side 1 forced transition at x/c =  1.0000   77
 Side 2  free  transition at x/c =  0.0876   20

  38   rms: 0.9079E+00   max: -.4589E+01   D at   76  1   RLX: 0.109
       a = -4.000      CL = -0.5682
      Cm =  0.0935     CD =  0.11343   =>   CDf =  0.00375    CDp =  0.10968

 Side 1 forced transition at x/c =  1.0000   78
 Side 2  free  transition at x/c =  0.0877   19

  39   rms: 0.5549E+00   max: -.1893E+01   D at  105  2   RLX: 0.264
       a = -4.000      CL = -0.4414
      Cm =  0.0543     CD =  0.08191   =>   CDf =  0.00413    CDp =  0.07779

 MRCHDU: Convergence failed at  98  side 2    Res =  0.1589E+01
 MRCHDU: Convergence failed at  99  side 2    Res =  0.1295E+01
 MRCHDU: Convergence failed at 100  side 2    Res =  0.1667E+01
 MRCHDU: Convergence failed at 101  side 2    Res =  0.2218E+01
 MRCHDU: Convergence failed at 102  side 2    Res =  0.7578E+01
 MRCHDU: Convergence failed at 103  side 2    Res =  0.1738E+01
 Side 1 forced transition at x/c =  1.0000   78
 Side 2  free  transition at x/c =  0.0892   19

  40   rms: 0.4877E+00   max: -.1719E+01   D at  104  2   RLX: 0.291
       a = -4.000      CL = -0.3426
      Cm =  0.0232     CD =  0.07662   =>   CDf =  0.00449    CDp =  0.07212

 Side 1 forced transition at x/c =  1.0000   78
 Side 2  free  transition at x/c =  0.0915   19

  41   rms: 0.4667E+00   max: -.2204E+01   D at  104  2   RLX: 0.227
       a = -4.000      CL = -0.2937
      Cm =  0.0057     CD =  0.09699   =>   CDf =  0.00461    CDp =  0.09238

 Side 1 forced transition at x/c =  1.0000   78
 Side 2  free  transition at x/c =  0.0925   19

  42   rms: 0.4564E+00   max: -.2423E+01   D at  104  2   RLX: 0.206
       a = -4.000      CL = -0.2704
      Cm = -0.0058     CD =  0.10614   =>   CDf =  0.00466    CDp =  0.10148

 MRCHDU: Convergence failed at 100  side 2    Res =  0.1260E+01
 MRCHDU: Convergence failed at 101  side 2    Res =  0.2527E+01
 MRCHDU: Convergence failed at 102  side 2    Res =  0.1505E+02
 Side 1 forced transition at x/c =  1.0000   78
 Side 2  free  transition at x/c =  0.0926   19

  43   rms: 0.4347E+00   max: -.2164E+01   D at  104  2   RLX: 0.231
       a = -4.000      CL = -0.2460
      Cm = -0.0174     CD =  0.10212   =>   CDf =  0.00469    CDp =  0.09743

 Side 1 forced transition at x/c =  1.0000   78
 Side 2  free  transition at x/c =  0.0932   19

  44   rms: 0.4704E+00   max: -.2906E+01   D at  104  2   RLX: 0.172
       a = -4.000      CL = -0.2527
      Cm = -0.0243     CD =  0.11406   =>   CDf =  0.00467    CDp =  0.10939

 Side 1 forced transition at x/c =  1.0000   78
 Side 2  free  transition at x/c =  0.0902   19
 idif Ue xi dudx           1  0.19042507      3.61752510E-03   52.639599    
 Uenew xinew           2  4.39886563E-03  8.35657120E-05

  45   rms: 0.4784E+00   max: -.3008E+01   D at  104  2   RLX: 0.166
       a = -4.000      CL = -0.2710
      Cm = -0.0284     CD =  0.12078   =>   CDf =  0.00463    CDp =  0.11615

 MRCHDU: Convergence failed at 107  side 2    Res =  0.1261E+01
 Side 1 forced transition at x/c =  1.0000   77
 Side 2  free  transition at x/c =  0.0864   20

  46   rms: 0.4297E+00   max: -.2437E+01   D at  103  2   RLX: 0.205
       a = -4.000      CL = -0.2731
      Cm = -0.0338     CD =  0.09509   =>   CDf =  0.00473    CDp =  0.09036

 MRCHDU: Convergence failed at 106  side 2    Res =  0.3712E+01
 Side 1 forced transition at x/c =  1.0000   77
 Side 2  free  transition at x/c =  0.0858   20

  47   rms: 0.3902E+00   max: -.1901E+01   D at  103  2   RLX: 0.263
       a = -4.000      CL = -0.2540
      Cm = -0.0415     CD =  0.09295   =>   CDf =  0.00467    CDp =  0.08828

 MRCHDU: Convergence failed at 104  side 2    Res =  0.2516E+01
 MRCHDU: Convergence failed at 107  side 2    Res =  0.1851E+01
 Side 1 forced transition at x/c =  1.0000   77
 Side 2  free  transition at x/c =  0.0871   20

  48   rms: 0.8172E+00   max: 0.5390E+01   T at   20  2   RLX: 0.121
       a = -4.000      CL = -0.3025
      Cm = -0.0458     CD =  0.10301   =>   CDf =  0.00448    CDp =  0.09853

 MRCHDU: Convergence failed at 106  side 2    Res =  0.7039E+01
 MRCHDU: Convergence failed at 107  side 2    Res =  0.1007E+01
 Side 1 forced transition at x/c =  1.0000   77
 Side 2  free  transition at x/c =  0.0818   19

  49   rms: 0.4539E+00   max: -.6267E+00   U at  107  2   RLX: 0.235
       a = -4.000      CL = -0.3601
      Cm = -0.0317     CD =  0.08919   =>   CDf =  0.00457    CDp =  0.08462

 MRCHDU: Convergence failed at 107  side 2    Res =  0.1403E+01
 Side 1 forced transition at x/c =  1.0000   77
 Side 2  free  transition at x/c =  0.0817   19

  50   rms: 0.5014E+00   max: -.2816E+01   D at  103  2   RLX: 0.178
       a = -4.000      CL = -0.3572
      Cm = -0.0381     CD =  0.09580   =>   CDf =  0.00444    CDp =  0.09135

 MRCHDU: Convergence failed at 105  side 2    Res =  0.2114E+01
 Side 1 forced transition at x/c =  1.0000   77
 Side 2  free  transition at x/c =  0.0798   19

  51   rms: 0.5357E+00   max: -.3051E+01   D at  103  2   RLX: 0.164
       a = -4.000      CL = -0.3629
      Cm = -0.0449     CD =  0.07509   =>   CDf =  0.00445    CDp =  0.07064

 MRCHDU: Convergence failed at 107  side 2    Res =  0.9589E+00
 Side 1 forced transition at x/c =  1.0000   77
 Side 2  free  transition at x/c =  0.0769   19

  52   rms: 0.4562E+00   max: -.2445E+01   D at  103  2   RLX: 0.205
       a = -4.000      CL = -0.3475
      Cm = -0.0512     CD =  0.06806   =>   CDf =  0.00438    CDp =  0.06368

 Side 1 forced transition at x/c =  1.0000   77
 Side 2  free  transition at x/c =  0.0791   19

  53   rms: 0.5140E+00   max: -.2500E+01   D at  103  2   RLX: 0.200
       a = -4.000      CL = -0.3288
      Cm = -0.0612     CD =  0.05655   =>   CDf =  0.00420    CDp =  0.05235

 Side 1 forced transition at x/c =  1.0000   77
 Side 2  free  transition at x/c =  0.0798   19

  54   rms: 0.5079E+00   max: 0.2545E+01   D at   75  1   RLX: 0.290
       a = -4.000      CL = -0.3284
      Cm = -0.0689     CD =  0.04397   =>   CDf =  0.00401    CDp =  0.03996

 Side 1 forced transition at x/c =  1.0000   77
 Side 2  free  transition at x/c =  0.0794   19

  55   rms: 0.5541E+00   max: 0.3025E+01   D at   73  1   RLX: 0.211
       a = -4.000      CL = -0.3608
      Cm = -0.0616     CD =  0.03545   =>   CDf =  0.00381    CDp =  0.03164

 Side 1 forced transition at x/c =  1.0000   77
 Side 2  free  transition at x/c =  0.0730   19
 idif Ue xi dudx           1  0.26954234      5.82063198E-03   46.308086    
 Uenew xinew           2  5.48060760E-02  1.18350983E-03

  56   rms: 0.7963E+00   max: 0.5778E+01   T at   19  2   RLX: 0.260
       a = -4.000      CL = -0.5127
      Cm = -0.0375     CD =  0.04835   =>   CDf =  0.00336    CDp =  0.04499

 MRCHDU: Convergence failed at  68  side 2    Res =  0.2517E+01
 MRCHDU: Convergence failed at  69  side 2    Res =  0.2168E+01
 MRCHDU: Convergence failed at  70  side 2    Res =  0.1803E+01
 MRCHDU: Convergence failed at  71  side 2    Res =  0.1708E+01
 MRCHDU: Convergence failed at  72  side 2    Res =  0.1691E+01
 MRCHDU: Convergence failed at  73  side 2    Res =  0.1809E+01
 MRCHDU: Convergence failed at  74  side 2    Res =  0.2117E+01
 MRCHDU: Convergence failed at  75  side 2    Res =  0.2963E+01
 MRCHDU: Convergence failed at  76  side 2    Res =  0.5170E+01
 MRCHDU: Convergence failed at  77  side 2    Res =  0.1738E+02
 MRCHDU: Convergence failed at  78  side 2    Res =  0.1314E+02
 MRCHDU: Convergence failed at  79  side 2    Res =  0.3023E+01
 MRCHDU: Convergence failed at  80  side 2    Res =  0.1785E+01
 MRCHDU: Convergence failed at  81  side 2    Res =  0.1862E+01
 MRCHDU: Convergence failed at  82  side 2    Res =  0.2274E+01
 MRCHDU: Convergence failed at  83  side 2    Res =  0.3524E+01
 MRCHDU: Convergence failed at  84  side 2    Res =  0.1560E+02
 MRCHDU: Convergence failed at  85  side 2    Res =  0.3554E+01
 MRCHDU: Convergence failed at  86  side 2    Res =  0.2103E+01
 Side 1  free  transition at x/c =  0.9944   75
 Side 2  free  transition at x/c =  0.0608   19

  57   rms: 0.4907E+00   max: -.3210E+01   D at  108  2   RLX: 0.156
       a = -4.000      CL = -0.5560
      Cm = -0.0201     CD =  0.05253   =>   CDf =  0.00321    CDp =  0.04932

 Side 1  free  transition at x/c =  0.9845   74
 Side 2  free  transition at x/c =  0.0610   19

  58   rms: 0.4179E+00   max: 0.3100E+01   T at   74  1   RLX: 0.241
       a = -4.000      CL = -0.4910
      Cm = -0.0346     CD =  0.04895   =>   CDf =  0.00344    CDp =  0.04550

 Side 1  free  transition at x/c =  0.9691   74
 Side 2  free  transition at x/c =  0.0617   18

  59   rms: 0.1080E+01   max: -.1796E+02   D at    2  1   RLX: 0.028
       a = -4.000      CL = -0.4993
      Cm = -0.0317     CD =  0.05864   =>   CDf =  0.00348    CDp =  0.05516

 Side 1  free  transition at x/c =  0.9676   74
 Side 2  free  transition at x/c =  0.0619   18

  60   rms: 0.3495E+00   max: 0.1538E+01   T at   74  1   RLX: 0.407
       a = -4.000      CL = -0.3639
      Cm = -0.0590     CD =  0.04044   =>   CDf =  0.00352    CDp =  0.03692

 Side 1  free  transition at x/c =  0.9510   73
 Side 2  free  transition at x/c =  0.0640   18

  61   rms: 0.2742E+00   max: -.8265E+00   D at  106  2   RLX: 0.605
       a = -4.000      CL = -0.2318
      Cm = -0.0793     CD =  0.03560   =>   CDf =  0.00388    CDp =  0.03172

 Side 1  free  transition at x/c =  0.9414   72
 Side 2  free  transition at x/c =  0.0666   18

  62   rms: 0.2206E+00   max: -.6410E+00   D at   66  2   RLX: 0.780
       a = -4.000      CL = -0.1437
      Cm = -0.0894     CD =  0.03414   =>   CDf =  0.00445    CDp =  0.02969

 TRCHEK2: N2 convergence failed.
 x:  0.11304  0.12718  0.12718  N:  8.955  9.000  9.147  Nx:  13.150   dN: 0.147E+00
 TRCHEK2: N2 convergence failed.
 x:  0.11304  0.12718  0.12718  N:  8.955  9.000  9.143  Nx:  12.763   dN: 0.143E+00
 TRCHEK2: N2 convergence failed.
 x:  0.11304  0.12718  0.12718  N:  8.955  9.000  9.136  Nx:  12.217   dN: 0.136E+00
 TRCHEK2: N2 convergence failed.
 x:  0.11304  0.12604  0.12718  N:  8.955  9.000  9.001  Nx:  12.335   dN:-0.133E+00
 TRCHEK2: N2 convergence failed.
 x:  0.11304  0.12612  0.12718  N:  8.955  9.000  9.006  Nx:  12.246   dN: 0.141E+00
 TRCHEK2: N2 convergence failed.
 x:  0.11304  0.11592  0.12718  N:  8.955  9.000  9.230  Nx:  44.488   dN: 0.876E+00
 TRCHEK2: N2 convergence failed.
 x:  0.11304  0.11408  0.12718  N:  8.955  9.000  9.561  Nx:  42.817   dN:-0.989E-03
 TRCHEK2: N2 convergence failed.
 x:  0.11304  0.11481  0.12718  N:  8.955  9.000  9.458  Nx:  46.064   dN: 0.272E+00
 TRCHEK2: N2 convergence failed.
 x:  0.11304  0.11408  0.12718  N:  8.955  9.000  9.562  Nx:  42.882   dN:-0.109E-02
 TRCHEK2: N2 convergence failed.
 x:  0.11304  0.12602  0.12718  N:  8.955  9.000  9.001  Nx:  12.397   dN:-0.917E-01
 MRCHDU: Convergence failed at  21  side 2    Res =  0.2357E+02
 MRCHDU: Convergence failed at  22  side 2    Res =  0.1781E+02
 MRCHDU: Convergence failed at  23  side 2    Res =  0.2464E+02
 MRCHDU: Convergence failed at  24  side 2    Res =  0.4309E+02
 MRCHDU: Convergence failed at  25  side 2    Res =  0.1115E+03
 MRCHDU: Convergence failed at  26  side 2    Res =  0.5800E+02
 MRCHDU: Convergence failed at  27  side 2    Res =  0.4108E+02
 MRCHDU: Convergence failed at  28  side 2    Res =  0.3294E+02
 MRCHDU: Convergence failed at  29  side 2    Res =  0.3879E+02
 MRCHDU: Convergence failed at  30  side 2    Res =  0.4340E+02
 MRCHDU: Convergence failed at  31  side 2    Res =  0.5500E+02
 MRCHDU: Convergence failed at  32  side 2    Res =  0.9072E+02
 MRCHDU: Convergence failed at  33  side 2    Res =  0.5613E+02
 MRCHDU: Convergence failed at  34  side 2    Res =  0.5783E+02
 MRCHDU: Convergence failed at  35  side 2    Res =  0.6025E+02
 MRCHDU: Convergence failed at  36  side 2    Res =  0.8278E+02
 MRCHDU: Convergence failed at  37  side 2    Res =  0.7890E+02
 MRCHDU: Convergence failed at  38  side 2    Res =  0.6885E+02
 MRCHDU: Convergence failed at  39  side 2    Res =  0.7664E+02
 MRCHDU: Convergence failed at  40  side 2    Res =  0.1311E+03
 MRCHDU: Convergence failed at  41  side 2    Res =  0.8457E+02
 MRCHDU: Convergence failed at  42  side 2    Res =  0.8410E+02
 MRCHDU: Convergence failed at  43  side 2    Res =  0.8576E+02
 MRCHDU: Convergence failed at  44  side 2    Res =  0.9042E+02
 MRCHDU: Convergence failed at  45  side 2    Res =  0.9539E+02
 MRCHDU: Convergence failed at  46  side 2    Res =  0.9930E+02
 MRCHDU: Convergence failed at  47  side 2    Res =  0.1033E+03
 MRCHDU: Convergence failed at  48  side 2    Res =  0.1069E+03
 MRCHDU: Convergence failed at  49  side 2    Res =  0.1102E+03
 MRCHDU: Convergence failed at  50  side 2    Res =  0.1133E+03
 MRCHDU: Convergence failed at  51  side 2    Res =  0.1198E+03
 MRCHDU: Convergence failed at  52  side 2    Res =  0.1238E+03
 MRCHDU: Convergence failed at  53  side 2    Res =  0.1268E+03
 MRCHDU: Convergence failed at  54  side 2    Res =  0.1289E+03
 MRCHDU: Convergence failed at  55  side 2    Res =  0.1296E+03
 MRCHDU: Convergence failed at  56  side 2    Res =  0.1301E+03
 MRCHDU: Convergence failed at  57  side 2    Res =  0.1299E+03
 MRCHDU: Convergence failed at  58  side 2    Res =  0.1296E+03
 MRCHDU: Convergence failed at  59  side 2    Res =  0.1289E+03
 MRCHDU: Convergence failed at  60  side 2    Res =  0.1285E+03
 MRCHDU: Convergence failed at  61  side 2    Res =  0.1282E+03
 MRCHDU: Convergence failed at  62  side 2    Res =  0.1276E+03
 MRCHDU: Convergence failed at  63  side 2    Res =  0.1412E+03
 MRCHDU: Convergence failed at  64  side 2    Res =  0.1463E+03
 MRCHDU: Convergence failed at  65  side 2    Res =  0.1512E+03
 MRCHDU: Convergence failed at  66  side 2    Res =  0.1574E+03
 MRCHDU: Convergence failed at  67  side 2    Res =  0.1610E+03
 MRCHDU: Convergence failed at  68  side 2    Res =  0.1646E+03
 MRCHDU: Convergence failed at  69  side 2    Res =  0.1678E+03
 MRCHDU: Convergence failed at  70  side 2    Res =  0.1711E+03
 MRCHDU: Convergence failed at  71  side 2    Res =  0.1732E+03
 MRCHDU: Convergence failed at  72  side 2    Res =  0.1756E+03
 MRCHDU: Convergence failed at  73  side 2    Res =  0.1766E+03
 MRCHDU: Convergence failed at  74  side 2    Res =  0.1747E+03
 MRCHDU: Convergence failed at  75  side 2    Res =  0.1724E+03
 MRCHDU: Convergence failed at  76  side 2    Res =  0.1712E+03
 MRCHDU: Convergence failed at  77  side 2    Res =  0.1684E+03
 MRCHDU: Convergence failed at  78  side 2    Res =  0.1637E+03
 MRCHDU: Convergence failed at  79  side 2    Res =  0.1585E+03
 MRCHDU: Convergence failed at  80  side 2    Res =  0.1566E+03
 MRCHDU: Convergence failed at  81  side 2    Res =  0.1542E+03
 MRCHDU: Convergence failed at  82  side 2    Res =  0.1502E+03
 MRCHDU: Convergence failed at  83  side 2    Res =  0.1485E+03
 MRCHDU: Convergence failed at  84  side 2    Res =  0.1481E+03
 MRCHDU: Convergence failed at  85  side 2    Res =  0.1555E+03
 Side 1  free  transition at x/c =  0.9415   72
 Side 2  free  transition at x/c =  0.0985   21

  63   rms: 0.3777E+01   max: -.6798E+02   T at   21  2   RLX: 0.007
       a = -4.000      CL = -1.2581
      Cm =  0.2950     CD =  0.01069   =>   CDf =  0.00271    CDp =  0.00798

 Side 1  free  transition at x/c =  0.9423   72
 Side 2  free  transition at x/c =  0.0988   21

  64   rms: 0.2535E+01   max: 0.4941E+02   T at   21  2   RLX: 0.030
       a = -4.000      CL = -0.9859
      Cm =  0.1970     CD =  0.06911   =>   CDf =  0.00312    CDp =  0.06599

 Side 1  free  transition at x/c =  0.9536   73
 Side 2  free  transition at x/c =  0.0758   19

  65   rms: 0.1732E+01   max: 0.3458E+02   T at   19  2   RLX: 0.043
       a = -4.000      CL = -0.9968
      Cm =  0.1948     CD =  0.07246   =>   CDf =  0.00321    CDp =  0.06926

 Side 1  free  transition at x/c =  0.9662   74
 Side 2  free  transition at x/c =  0.0731   19

  66   rms: 0.4312E+01   max: 0.6797E+02   T at   19  2   RLX: 0.022
       a = -4.000      CL = -1.0234
      Cm =  0.1897     CD =  0.07286   =>   CDf =  0.00322    CDp =  0.06964

 Side 1  free  transition at x/c =  0.9678   74
 Side 2  free  transition at x/c =  0.0635   18

  67   rms: 0.1765E+01   max: 0.3271E+02   T at   18  2   RLX: 0.046
       a = -4.000      CL = -1.2100
      Cm =  0.2334     CD =  0.07640   =>   CDf =  0.00320    CDp =  0.07320

 Side 1  free  transition at x/c =  0.9791   75
 Side 2  free  transition at x/c =  0.0594   18
 idif Ue xi dudx           1  0.25817168      5.10942936E-03   50.528477    
 Uenew xinew           2  2.38649640E-02  4.72307205E-04

  68   rms: 0.6160E+01   max: 0.8400E+02   T at   18  2   RLX: 0.018
       a = -4.000      CL = -1.2058
      Cm =  0.2172     CD =  0.07609   =>   CDf =  0.00304    CDp =  0.07304

 MRCHDU: Convergence failed at  19  side 2    Res =  0.1264E+02
 MRCHDU: Convergence failed at  20  side 2    Res =  0.7834E+02
 MRCHDU: Convergence failed at  21  side 2    Res =  0.3180E+02
 Side 1  free  transition at x/c =  0.9797   74
 Side 2  free  transition at x/c =  0.0504   18

  69   rms: 0.4198E+01   max: -.9004E+02   T at   18  2   RLX: 0.006
       a = -4.000      CL = -1.7703
      Cm =  0.3622     CD =  0.08245   =>   CDf =  0.00310    CDp =  0.07935

 Side 1  free  transition at x/c =  0.9814   74
 Side 2  free  transition at x/c =  0.0519   18

  70   rms: 0.1478E+01   max: -.9024E+01   T at   74  1   RLX: 0.055
       a = -4.000      CL = -1.8422
      Cm =  0.3906     CD =  0.09273   =>   CDf =  0.00314    CDp =  0.08959

 Side 1 forced transition at x/c =  1.0000   76
 Side 2  free  transition at x/c =  0.0514   18

  71   rms: 0.1575E+01   max: -.7008E+01   D at   75  1   RLX: 0.071
       a = -4.000      CL = -1.6852
      Cm =  0.3487     CD =  0.08444   =>   CDf =  0.00319    CDp =  0.08125

 Side 1 forced transition at x/c =  1.0000   76
 Side 2  free  transition at x/c =  0.0511   18

  72   rms: 0.1131E+01   max: -.5281E+01   D at   75  1   RLX: 0.095
       a = -4.000      CL = -1.4937
      Cm =  0.2964     CD =  0.09408   =>   CDf =  0.00379    CDp =  0.09029

 Side 1 forced transition at x/c =  1.0000   77
 Side 2  free  transition at x/c =  0.0507   17

  73   rms: 0.7548E+00   max: -.1738E+01   D at    2  1   RLX: 0.288
       a = -4.000      CL = -1.0641
      Cm =  0.1836     CD =  0.08271   =>   CDf =  0.00408    CDp =  0.07863

 MRCHDU: Convergence failed at 101  side 2    Res =  0.1491E+01
 MRCHDU: Convergence failed at 102  side 2    Res =  0.2331E+01
 MRCHDU: Convergence failed at 103  side 2    Res =  0.1873E+01
 MRCHDU: Convergence failed at 104  side 2    Res =  0.2982E+02
 MRCHDU: Convergence failed at 105  side 2    Res =  0.1804E+01
 Side 1 forced transition at x/c =  1.0000   77
 Side 2  free  transition at x/c =  0.0515   17

  74   rms: 0.6780E+00   max: -.6442E+01   D at  107  2   RLX: 0.078
       a = -4.000      CL = -1.0062
      Cm =  0.1594     CD =  0.14148   =>   CDf =  0.00450    CDp =  0.13697

 Side 1 forced transition at x/c =  1.0000   77
 Side 2  free  transition at x/c =  0.0517   17

  75   rms: 0.5938E+00   max: -.1575E+01   C at  100  2   RLX: 0.317
       a = -4.000      CL = -0.6847
      Cm =  0.0798     CD =  0.09555   =>   CDf =  0.00469    CDp =  0.09086

 Side 1 forced transition at x/c =  1.0000   77
 Side 2  free  transition at x/c =  0.0519   17

  76   rms: 0.5025E+00   max: -.1392E+01   T at  107  2   RLX: 0.359
       a = -4.000      CL = -0.4257
      Cm =  0.0150     CD =  0.09988   =>   CDf =  0.00471    CDp =  0.09517

 Side 1 forced transition at x/c =  1.0000   77
 Side 2  free  transition at x/c =  0.0484   17

  77   rms: 0.4780E+00   max: -.2637E+01   T at   83  2   RLX: 0.190
       a = -4.000      CL = -0.3506
      Cm = -0.0092     CD =  0.12900   =>   CDf =  0.00455    CDp =  0.12445

 Side 1 forced transition at x/c =  1.0000   77
 Side 2  free  transition at x/c =  0.0468   17

  78   rms: 0.3943E+00   max: 0.1805E+01   T at   86  2   RLX: 0.426
       a = -4.000      CL = -0.2473
      Cm = -0.0407     CD =  0.09574   =>   CDf =  0.00446    CDp =  0.09128

 Side 1 forced transition at x/c =  1.0000   77
 Side 2  free  transition at x/c =  0.0469   17

  79   rms: 0.3869E+00   max: -.1884E+01   T at   17  2   RLX: 0.265
       a = -4.000      CL = -0.2096
      Cm = -0.0596     CD =  0.09715   =>   CDf =  0.00423    CDp =  0.09292

 Side 1 forced transition at x/c =  1.0000   77
 Side 2  free  transition at x/c =  0.0540   17

  80   rms: 0.1034E+01   max: -.6854E+01   T at   18  2   RLX: 0.073
       a = -4.000      CL = -0.2210
      Cm = -0.0420     CD =  0.12515   =>   CDf =  0.00408    CDp =  0.12107

 Side 1 forced transition at x/c =  1.0000   77
 Side 2  free  transition at x/c =  0.0554   18

  81   rms: 0.7041E+00   max: 0.4078E+01   T at   18  2   RLX: 0.302
       a = -4.000      CL = -0.2898
      Cm = -0.0535     CD =  0.07400   =>   CDf =  0.00409    CDp =  0.06992

 Side 1 forced transition at x/c =  1.0000   77
 Side 2  free  transition at x/c =  0.0556   18

  82   rms: 0.9442E+00   max: 0.1082E+02   T at   18  2   RLX: 0.139
       a = -4.000      CL = -0.2460
      Cm = -0.0741     CD =  0.06961   =>   CDf =  0.00528    CDp =  0.06433

 MRCHDU: Convergence failed at  18  side 2    Res =  0.2536E+02
 MRCHDU: Convergence failed at  19  side 2    Res =  0.4989E+03
 MRCHDU: Convergence failed at  20  side 2    Res =  0.1012E+03
 MRCHDU: Convergence failed at  21  side 2    Res =  0.1900E+03
 MRCHDU: Convergence failed at  22  side 2    Res =  0.1390E+03
 MRCHDU: Convergence failed at  23  side 2    Res =  0.3236E+03
 MRCHDU: Convergence failed at  24  side 2    Res =  0.2768E+03
 MRCHDU: Convergence failed at  25  side 2    Res =  0.3221E+03
 MRCHDU: Convergence failed at  26  side 2    Res =  0.1538E+03
 MRCHDU: Convergence failed at  27  side 2    Res =  0.1563E+03
 MRCHDU: Convergence failed at  28  side 2    Res =  0.1110E+03
 MRCHDU: Convergence failed at  29  side 2    Res =  0.1134E+03
 MRCHDU: Convergence failed at  30  side 2    Res =  0.1159E+03
 MRCHDU: Convergence failed at  31  side 2    Res =  0.1909E+03
 MRCHDU: Convergence failed at  32  side 2    Res =  0.2014E+03
 MRCHDU: Convergence failed at  33  side 2    Res =  0.2121E+03
 MRCHDU: Convergence failed at  34  side 2    Res =  0.6247E+02
 MRCHDU: Convergence failed at  35  side 2    Res =  0.6455E+02
 MRCHDU: Convergence failed at  36  side 2    Res =  0.8252E+02
 MRCHDU: Convergence failed at  37  side 2    Res =  0.1832E+03
 MRCHDU: Convergence failed at  38  side 2    Res =  0.6569E+02
 MRCHDU: Convergence failed at  39  side 2    Res =  0.7920E+02
 MRCHDU: Convergence failed at  40  side 2    Res =  0.1495E+03
 MRCHDU: Convergence failed at  41  side 2    Res =  0.7859E+02
 MRCHDU: Convergence failed at  42  side 2    Res =  0.8074E+02
 MRCHDU: Convergence failed at  43  side 2    Res =  0.1867E+03
 MRCHDU: Convergence failed at  44  side 2    Res =  0.7507E+02
 MRCHDU: Convergence failed at  45  side 2    Res =  0.9116E+02
 MRCHDU: Convergence failed at  46  side 2    Res =  0.9154E+02
 MRCHDU: Convergence failed at  47  side 2    Res =  0.9175E+02
 MRCHDU: Convergence failed at  48  side 2    Res =  0.9190E+02
 MRCHDU: Convergence failed at  49  side 2    Res =  0.9179E+02
 MRCHDU: Convergence failed at  50  side 2    Res =  0.9146E+02
 MRCHDU: Convergence failed at  51  side 2    Res =  0.9082E+02
 MRCHDU: Convergence failed at  52  side 2    Res =  0.8962E+02
 MRCHDU: Convergence failed at  53  side 2    Res =  0.1001E+03
 MRCHDU: Convergence failed at  54  side 2    Res =  0.3960E+03
 MRCHDU: Convergence failed at  55  side 2    Res =  0.5547E+03
 MRCHDU: Convergence failed at  56  side 2    Res =  0.3427E+03
 MRCHDU: Convergence failed at  57  side 2    Res =  0.1517E+03
 MRCHDU: Convergence failed at  58  side 2    Res =  0.1136E+03
 MRCHDU: Convergence failed at  59  side 2    Res =  0.1250E+03
 MRCHDU: Convergence failed at  60  side 2    Res =  0.1075E+03
 MRCHDU: Convergence failed at  61  side 2    Res =  0.8801E+02
 MRCHDU: Convergence failed at  62  side 2    Res =  0.1592E+03
 MRCHDU: Convergence failed at  63  side 2    Res =  0.1329E+03
 MRCHDU: Convergence failed at  64  side 2    Res =  0.4800E+03
 MRCHDU: Convergence failed at  65  side 2    Res =  0.1635E+03
 MRCHDU: Convergence failed at  66  side 2    Res =  0.2690E+04
 MRCHDU: Convergence failed at  67  side 2    Res =  0.1243E+03
 MRCHDU: Convergence failed at  68  side 2    Res =  0.1079E+03
 MRCHDU: Convergence failed at  69  side 2    Res =  0.9018E+02
 MRCHDU: Convergence failed at  70  side 2    Res =  0.8279E+02
 MRCHDU: Convergence failed at  71  side 2    Res =  0.1229E+03
 MRCHDU: Convergence failed at  72  side 2    Res =  0.1180E+03
 MRCHDU: Convergence failed at  73  side 2    Res =  0.3997E+03
 MRCHDU: Convergence failed at  74  side 2    Res =  0.1148E+04
 MRCHDU: Convergence failed at  75  side 2    Res =  0.8026E+02
 MRCHDU: Convergence failed at  76  side 2    Res =  0.9797E+02
 MRCHDU: Convergence failed at  77  side 2    Res =  0.1596E+03
 MRCHDU: Convergence failed at  78  side 2    Res =  0.3128E+03
 MRCHDU: Convergence failed at  79  side 2    Res =  0.8407E+02
 MRCHDU: Convergence failed at  80  side 2    Res =  0.9718E+02
 MRCHDU: Convergence failed at  81  side 2    Res =  0.6260E+03
 MRCHDU: Convergence failed at  82  side 2    Res =  0.1522E+03
 MRCHDU: Convergence failed at  83  side 2    Res =  0.8300E+02
 MRCHDU: Convergence failed at  84  side 2    Res =  0.7210E+02
 MRCHDU: Convergence failed at  85  side 2    Res =  0.7015E+02
 MRCHDU: Convergence failed at  96  side 2    Res =  0.3798E+01
 MRCHDU: Convergence failed at  97  side 2    Res =  0.7058E+01
 Side 1 forced transition at x/c =  1.0000   77
 Side 2  free  transition at x/c =  0.0496   17

  83   rms: 0.9343E+00   max: 0.6543E+01   T at   17  2   RLX: 0.229
       a = -4.000      CL = -1.2979
      Cm =  0.2891     CD =  0.01652   =>   CDf =  0.00333    CDp =  0.01319

 MRCHDU: Convergence failed at  91  side 2    Res =  0.2462E+01
 MRCHDU: Convergence failed at  92  side 2    Res =  0.4927E+01
 MRCHDU: Convergence failed at  93  side 2    Res =  0.2566E+01
 MRCHDU: Convergence failed at  94  side 2    Res =  0.1914E+01
 MRCHDU: Convergence failed at  95  side 2    Res =  0.2344E+01
 Side 1 forced transition at x/c =  1.0000   77
 Side 2  free  transition at x/c =  0.0441   17

  84   rms: 0.1558E+01   max: 0.1677E+02   T at   17  2   RLX: 0.089
       a = -4.000      CL = -0.8315
      Cm =  0.1266     CD =  0.08910   =>   CDf =  0.00380    CDp =  0.08530

 MRCHDU: Convergence failed at  17  side 2    Res =  0.1589E+02
 Side 1 forced transition at x/c =  1.0000   77
 Side 2  free  transition at x/c =  0.0387   16

  85   rms: 0.6631E+00   max: -.1638E+01   T at  107  2   RLX: 0.305
       a = -4.000      CL = -0.8106
      Cm =  0.1223     CD =  0.06166   =>   CDf =  0.00395    CDp =  0.05772

 Side 1 forced transition at x/c =  1.0000   77
 Side 2  free  transition at x/c =  0.0405   16

  86   rms: 0.5225E+00   max: -.1450E+01   D at  106  2   RLX: 0.345
       a = -4.000      CL = -0.5569
      Cm =  0.0589     CD =  0.07363   =>   CDf =  0.00420    CDp =  0.06943

 Side 1 forced transition at x/c =  1.0000   77
 Side 2  free  transition at x/c =  0.0409   16

  87   rms: 0.4276E+00   max: -.1780E+01   D at  106  2   RLX: 0.281
       a = -4.000      CL = -0.4217
      Cm =  0.0153     CD =  0.09630   =>   CDf =  0.00430    CDp =  0.09200

 Side 1 forced transition at x/c =  1.0000   77
 Side 2  free  transition at x/c =  0.0411   16

  88   rms: 0.4494E+00   max: -.2132E+01   D at  106  2   RLX: 0.235
       a = -4.000      CL = -0.3643
      Cm = -0.0114     CD =  0.10075   =>   CDf =  0.00433    CDp =  0.09641

 Side 1 forced transition at x/c =  1.0000   77
 Side 2  free  transition at x/c =  0.0411   16

  89   rms: 0.5433E+00   max: -.2556E+01   D at  106  2   RLX: 0.196
       a = -4.000      CL = -0.3200
      Cm = -0.0393     CD =  0.09316   =>   CDf =  0.00432    CDp =  0.08884

 Side 1 forced transition at x/c =  1.0000   77
 Side 2  free  transition at x/c =  0.0421   17

  90   rms: 0.6347E+00   max: -.3283E+01   D at  106  2   RLX: 0.152
       a = -4.000      CL = -0.2242
      Cm = -0.0850     CD =  0.07602   =>   CDf =  0.00424    CDp =  0.07178

 Side 1 forced transition at x/c =  1.0000   77
 Side 2  free  transition at x/c =  0.0450   17

  91   rms: 0.3746E+01   max: -.1346E+02   T at   17  2   RLX: 0.037
       a = -4.000      CL = -0.1846
      Cm = -0.0814     CD =  0.10382   =>   CDf =  0.00413    CDp =  0.09969

 Side 1 forced transition at x/c =  1.0000   77
 Side 2  free  transition at x/c =  0.0511   17

  92   rms: 0.5725E+00   max: -.2498E+01   D at  106  2   RLX: 0.200
       a = -4.000      CL = -0.2331
      Cm = -0.0760     CD =  0.07091   =>   CDf =  0.00411    CDp =  0.06680

 Side 1 forced transition at x/c =  1.0000   77
 Side 2  free  transition at x/c =  0.0674   18

  93   rms: 0.5429E+00   max: 0.6504E+01   T at   18  2   RLX: 0.141
       a = -4.000      CL = -0.2786
      Cm = -0.0715     CD =  0.07479   =>   CDf =  0.00390    CDp =  0.07088

 Side 1 forced transition at x/c =  1.0000   77
 Side 2  free  transition at x/c =  0.0756   19

  94   rms: 0.1337E+01   max: -.1367E+02   T at   19  2   RLX: 0.037
       a = -4.000      CL = -0.2552
      Cm = -0.0731     CD =  0.08464   =>   CDf =  0.00374    CDp =  0.08090

 Side 1 forced transition at x/c =  1.0000   77
 Side 2  free  transition at x/c =  0.0813   19

  95   rms: 0.2220E+01   max: -.9060E+01   T at   20  2   RLX: 0.055
       a = -4.000      CL = -0.2385
      Cm = -0.0499     CD =  0.09470   =>   CDf =  0.00373    CDp =  0.09098

 Side 1 forced transition at x/c =  1.0000   77
 Side 2  free  transition at x/c =  0.0784   19

  96   rms: 0.6400E+00   max: -.9102E+01   T at   19  2   RLX: 0.055
       a = -4.000      CL = -0.2728
      Cm = -0.0387     CD =  0.09216   =>   CDf =  0.00384    CDp =  0.08833

 TRCHEK2: N2 convergence failed.
 x:  0.35375  0.36684  0.36789  N:  8.989  9.000  9.000  Nx:   4.284   dN:-0.231E-01
 TRCHEK2: N2 convergence failed.
 x:  0.35375  0.36691  0.36789  N:  8.989  9.000  9.000  Nx:   4.144   dN:-0.184E-01
 TRCHEK2: N2 convergence failed.
 x:  0.35375  0.36707  0.36789  N:  8.989  9.000  9.000  Nx:   3.864   dN:-0.124E-01
 TRCHEK2: N2 convergence failed.
 x:  0.35375  0.36789  0.36789  N:  8.989  9.000  9.036  Nx:   3.233   dN: 0.356E-01
 TRCHEK2: N2 convergence failed.
 x:  0.35375  0.36464  0.36789  N:  8.989  9.000  9.002  Nx:   4.321   dN:-0.573E-02
 TRCHEK2: N2 convergence failed.
 x:  0.35375  0.36692  0.36789  N:  8.989  9.000  9.001  Nx:   2.969   dN: 0.402E-01
 TRCHEK2: N2 convergence failed.
 x:  0.35375  0.36549  0.36789  N:  8.989  9.000  9.001  Nx:   3.101   dN:-0.997E-02
 TRCHEK2: N2 convergence failed.
 x:  0.35375  0.36548  0.36789  N:  8.989  9.000  9.001  Nx:   3.069   dN:-0.665E-02
 TRCHEK2: N2 convergence failed.
 x:  0.35375  0.36547  0.36789  N:  8.989  9.000  9.003  Nx:   3.092   dN: 0.429E-01
 TRCHEK2: N2 convergence failed.
 x:  0.35375  0.36540  0.36789  N:  8.989  9.000  9.002  Nx:   3.230   dN:-0.481E-02
 TRCHEK2: N2 convergence failed.
 x:  0.35375  0.36542  0.36789  N:  8.989  9.000  9.002  Nx:   3.272   dN:-0.348E-02
 TRCHEK2: N2 convergence failed.
 x:  0.35375  0.36540  0.36789  N:  8.989  9.000  9.002  Nx:   3.257   dN:-0.394E-02
 TRCHEK2: N2 convergence failed.
 x:  0.35375  0.36541  0.36789  N:  8.989  9.000  9.002  Nx:   3.314   dN:-0.297E-02
 TRCHEK2: N2 convergence failed.
 x:  0.35375  0.36540  0.36789  N:  8.989  9.000  9.002  Nx:   3.286   dN:-0.335E-02
 TRCHEK2: N2 convergence failed.
 x:  0.35375  0.36541  0.36789  N:  8.989  9.000  9.002  Nx:   3.351   dN:-0.266E-02
 TRCHEK2: N2 convergence failed.
 x:  0.35375  0.36539  0.36789  N:  8.989  9.000  9.002  Nx:   3.321   dN:-0.285E-02
 TRCHEK2: N2 convergence failed.
 x:  0.35375  0.36540  0.36789  N:  8.989  9.000  9.002  Nx:   3.399   dN:-0.237E-02
 TRCHEK2: N2 convergence failed.
 x:  0.35375  0.36683  0.36789  N:  8.989  9.000  9.002  Nx:   3.072   dN: 0.460E-01
 TRCHEK2: N2 convergence failed.
 x:  0.35375  0.36538  0.36789  N:  8.989  9.000  9.002  Nx:   3.690   dN:-0.160E-02
 TRCHEK2: N2 convergence failed.
 x:  0.35375  0.36681  0.36789  N:  8.989  9.000  9.002  Nx:   3.096   dN: 0.473E-01
 TRCHEK2: N2 convergence failed.
 x:  0.35375  0.36535  0.36789  N:  8.989  9.000  9.002  Nx:   4.111   dN:-0.129E-02
 TRCHEK2: N2 convergence failed.
 x:  0.35375  0.36678  0.36789  N:  8.989  9.000  9.002  Nx:   3.120   dN: 0.485E-01
 TRCHEK2: N2 convergence failed.
 x:  0.35375  0.36675  0.36789  N:  8.989  9.000  9.002  Nx:   3.168   dN: 0.510E-01
 TRCHEK2: N2 convergence failed.
 x:  0.35375  0.36671  0.36789  N:  8.989  9.000  9.002  Nx:   3.167   dN: 0.508E-01
 MRCHDU: Convergence failed at  38  side 2    Res =  0.4751E+01
 MRCHDU: Convergence failed at  39  side 2    Res =  0.3730E+02
 MRCHDU: Convergence failed at  40  side 2    Res =  0.2865E+02
 MRCHDU: Convergence failed at  41  side 2    Res =  0.2369E+02
 MRCHDU: Convergence failed at  42  side 2    Res =  0.2147E+02
 MRCHDU: Convergence failed at  43  side 2    Res =  0.2159E+02
 MRCHDU: Convergence failed at  44  side 2    Res =  0.2078E+02
 MRCHDU: Convergence failed at  45  side 2    Res =  0.2078E+02
 MRCHDU: Convergence failed at  46  side 2    Res =  0.2072E+02
 MRCHDU: Convergence failed at  47  side 2    Res =  0.3111E+02
 MRCHDU: Convergence failed at  48  side 2    Res =  0.3300E+02
 MRCHDU: Convergence failed at  49  side 2    Res =  0.3555E+02
 MRCHDU: Convergence failed at  50  side 2    Res =  0.3335E+02
 MRCHDU: Convergence failed at  51  side 2    Res =  0.3429E+02
 MRCHDU: Convergence failed at  52  side 2    Res =  0.3473E+02
 MRCHDU: Convergence failed at  53  side 2    Res =  0.3487E+02
 MRCHDU: Convergence failed at  54  side 2    Res =  0.3839E+02
 MRCHDU: Convergence failed at  55  side 2    Res =  0.3827E+02
 MRCHDU: Convergence failed at  56  side 2    Res =  0.3656E+02
 MRCHDU: Convergence failed at  57  side 2    Res =  0.2937E+02
 MRCHDU: Convergence failed at  58  side 2    Res =  0.3111E+02
 MRCHDU: Convergence failed at  59  side 2    Res =  0.3270E+02
 MRCHDU: Convergence failed at  60  side 2    Res =  0.3506E+02
 MRCHDU: Convergence failed at  61  side 2    Res =  0.3752E+02
 MRCHDU: Convergence failed at  62  side 2    Res =  0.4000E+02
 MRCHDU: Convergence failed at  63  side 2    Res =  0.4216E+02
 MRCHDU: Convergence failed at  64  side 2    Res =  0.4652E+02
 MRCHDU: Convergence failed at  65  side 2    Res =  0.5188E+02
 MRCHDU: Convergence failed at  66  side 2    Res =  0.6029E+02
 MRCHDU: Convergence failed at  67  side 2    Res =  0.7027E+02
 MRCHDU: Convergence failed at  68  side 2    Res =  0.8404E+02
 MRCHDU: Convergence failed at  69  side 2    Res =  0.9860E+02
 MRCHDU: Convergence failed at  70  side 2    Res =  0.1332E+03
 MRCHDU: Convergence failed at  71  side 2    Res =  0.2096E+03
 MRCHDU: Convergence failed at  72  side 2    Res =  0.1517E+04
 MRCHDU: Convergence failed at  73  side 2    Res =  0.1398E+04
 MRCHDU: Convergence failed at  74  side 2    Res =  0.5455E+03
 MRCHDU: Convergence failed at  75  side 2    Res =  0.2049E+03
 MRCHDU: Convergence failed at  76  side 2    Res =  0.1303E+03
 MRCHDU: Convergence failed at  77  side 2    Res =  0.1011E+03
 MRCHDU: Convergence failed at  78  side 2    Res =  0.7541E+02
 MRCHDU: Convergence failed at  79  side 2    Res =  0.7915E+02
 MRCHDU: Convergence failed at  80  side 2    Res =  0.6336E+02
 MRCHDU: Convergence failed at  81  side 2    Res =  0.5172E+02
 MRCHDU: Convergence failed at  82  side 2    Res =  0.4437E+02
 MRCHDU: Convergence failed at  83  side 2    Res =  0.4024E+02
 MRCHDU: Convergence failed at  84  side 2    Res =  0.4576E+02
 MRCHDU: Convergence failed at  85  side 2    Res =  0.7648E+02
 Side 1 forced transition at x/c =  1.0000   77
 Side 2  free  transition at x/c =  0.3396   38

  97   rms: 0.1138E+01   max: 0.8528E+01   T at   38  2   RLX: 0.176
       a = -4.000      CL = -0.7556
      Cm =  0.1551     CD =  0.01196   =>   CDf =  0.00329    CDp =  0.00867

 Side 1 forced transition at x/c =  1.0000   78
 Side 2  free  transition at x/c =  0.1544   24
 idif Ue xi dudx           1  0.21213375      4.03618813E-03   52.557945    
 Uenew xinew           2  2.63961107E-02  5.02228737E-04

  98   rms: 0.1681E+01   max: 0.2189E+02   T at   24  2   RLX: 0.069
       a = -4.000      CL = -0.5760
      Cm =  0.0763     CD =  0.09395   =>   CDf =  0.00367    CDp =  0.09028

 Side 1 forced transition at x/c =  1.0000   77
 Side 2  free  transition at x/c =  0.1497   24

  99   rms: 0.7344E+00   max: -.2788E+01   D at  106  2   RLX: 0.179
       a = -4.000      CL = -0.5125
      Cm =  0.0578     CD =  0.06046   =>   CDf =  0.00383    CDp =  0.05663

 Side 1 forced transition at x/c =  1.0000   77
 Side 2  free  transition at x/c =  0.1490   24

 100   rms: 0.9130E+00   max: 0.1571E+02   T at   24  2   RLX: 0.079
       a = -4.000      CL = -0.4685
      Cm =  0.0442     CD =  0.11158   =>   CDf =  0.00431    CDp =  0.10727

 Side 1 forced transition at x/c =  1.0000   78
 Side 2  free  transition at x/c =  0.1452   23

 101   rms: 0.7411E+00   max: -.9032E+01   T at   23  2   RLX: 0.055
       a = -4.000      CL = -0.4468
      Cm =  0.0426     CD =  0.12591   =>   CDf =  0.00430    CDp =  0.12161

 Side 1 forced transition at x/c =  1.0000   78
 Side 2  free  transition at x/c =  0.1499   23

 102   rms: 0.1080E+02   max: -.1911E+03   T at   23  2   RLX: 0.003
       a = -4.000      CL = -0.4465
      Cm =  0.0416     CD =  0.13773   =>   CDf =  0.00434    CDp =  0.13340

 Side 1 forced transition at x/c =  1.0000   78
 Side 2  free  transition at x/c =  0.1497   23

 103   rms: 0.4226E+00   max: -.1992E+01   D at  105  2   RLX: 0.251
       a = -4.000      CL = -0.3924
      Cm =  0.0249     CD =  0.08199   =>   CDf =  0.00434    CDp =  0.07765

 MRCHDU: Convergence failed at  99  side 2    Res =  0.7874E+00
 MRCHDU: Convergence failed at 100  side 2    Res =  0.1214E+01
 MRCHDU: Convergence failed at 101  side 2    Res =  0.1542E+01
 MRCHDU: Convergence failed at 102  side 2    Res =  0.1572E+01
 MRCHDU: Convergence failed at 103  side 2    Res =  0.1507E+01
 MRCHDU: Convergence failed at 104  side 2    Res =  0.2205E+01
 Side 1 forced transition at x/c =  1.0000   78
 Side 2  free  transition at x/c =  0.1221   21

 104   rms: 0.4179E+00   max: -.1574E+01   D at  106  2   RLX: 0.318
       a = -4.000      CL = -0.3066
      Cm =  0.0042     CD =  0.06921   =>   CDf =  0.00448    CDp =  0.06473

 Side 1 forced transition at x/c =  1.0000   78
 Side 2  free  transition at x/c =  0.1206   21

 105   rms: 0.5958E+00   max: 0.9078E+01   T at   21  2   RLX: 0.143
       a = -4.000      CL = -0.2700
      Cm = -0.0085     CD =  0.10596   =>   CDf =  0.00446    CDp =  0.10150

 Side 1 forced transition at x/c =  1.0000   78
 Side 2  free  transition at x/c =  0.1158   21

 106   rms: 0.4054E+00   max: -.1814E+01   D at  104  2   RLX: 0.276
       a = -4.000      CL = -0.2454
      Cm = -0.0164     CD =  0.08006   =>   CDf =  0.00443    CDp =  0.07563

 Side 1 forced transition at x/c =  1.0000   78
 Side 2  free  transition at x/c =  0.1138   21

 107   rms: 0.4253E+00   max: 0.2006E+01   T at   21  2   RLX: 0.273
       a = -4.000      CL = -0.2282
      Cm = -0.0318     CD =  0.08113   =>   CDf =  0.00438    CDp =  0.07676

 Side 1 forced transition at x/c =  1.0000   78
 Side 2  free  transition at x/c =  0.1131   21
 idif Ue xi dudx           1  0.21131469      4.00602818E-03   52.749180    
 Uenew xinew           2  2.49012411E-02  4.72068787E-04

 108   rms: 0.4320E+00   max: -.1978E+01   D at  103  2   RLX: 0.253
       a = -4.000      CL = -0.2343
      Cm = -0.0453     CD =  0.08118   =>   CDf =  0.00421    CDp =  0.07697

 MRCHDU: Convergence failed at 100  side 2    Res =  0.1288E+01
 Side 1 forced transition at x/c =  1.0000   77
 Side 2  free  transition at x/c =  0.1082   21

 109   rms: 0.3558E+00   max: -.1206E+01   D at  104  2   RLX: 0.414
       a = -4.000      CL = -0.2347
      Cm = -0.0529     CD =  0.06982   =>   CDf =  0.00419    CDp =  0.06563

 Side 1 forced transition at x/c =  1.0000   77
 Side 2  free  transition at x/c =  0.1058   21

 110   rms: 0.4238E+00   max: 0.4043E+01   T at   21  2   RLX: 0.339
       a = -4.000      CL = -0.2525
      Cm = -0.0626     CD =  0.06018   =>   CDf =  0.00388    CDp =  0.05630

 Side 1 forced transition at x/c =  1.0000   77
 Side 2  free  transition at x/c =  0.0941   20

 111   rms: 0.3865E+00   max: 0.1929E+01   T at   20  2   RLX: 0.342
       a = -4.000      CL = -0.3411
      Cm = -0.0360     CD =  0.06589   =>   CDf =  0.00364    CDp =  0.06224

 Side 1 forced transition at x/c =  1.0000   77
 Side 2  free  transition at x/c =  0.0810   19

 112   rms: 0.3252E+00   max: 0.1297E+01   D at   71  1   RLX: 0.580
       a = -4.000      CL = -0.4124
      Cm = -0.0176     CD =  0.06500   =>   CDf =  0.00346    CDp =  0.06154

 MRCHDU: Convergence failed at 101  side 2    Res =  0.4601E+01
 Side 1  free  transition at x/c =  0.9928   76
 Side 2  free  transition at x/c =  0.0737   19

 113   rms: 0.3751E+00   max: 0.1913E+01   T at   76  1   RLX: 0.418
       a = -4.000      CL = -0.3534
      Cm = -0.0574     CD =  0.06096   =>   CDf =  0.00324    CDp =  0.05772

 Side 1  free  transition at x/c =  0.9738   75
 Side 2  free  transition at x/c =  0.0743   19

 114   rms: 0.2902E+00   max: -.1739E+01   T at   19  2   RLX: 0.288
       a = -4.000      CL = -0.3146
      Cm = -0.0645     CD =  0.06012   =>   CDf =  0.00354    CDp =  0.05658

 Side 1  free  transition at x/c =  0.9663   74
 Side 2  free  transition at x/c =  0.0773   19

 115   rms: 0.2781E+00   max: 0.1362E+01   T at   74  1   RLX: 0.562
       a = -4.000      CL = -0.2832
      Cm = -0.0705     CD =  0.04959   =>   CDf =  0.00358    CDp =  0.04601

 Side 1  free  transition at x/c =  0.9452   72
 Side 2  free  transition at x/c =  0.0781   19

 116   rms: 0.2003E+00   max: 0.7909E+00   T at   72  1   RLX: 0.736
       a = -4.000      CL = -0.2405
      Cm = -0.0721     CD =  0.04056   =>   CDf =  0.00398    CDp =  0.03658

 Side 1  free  transition at x/c =  0.9313   71
 Side 2  free  transition at x/c =  0.0812   19

 117   rms: 0.3367E+00   max: -.1570E+01   T at   71  1   RLX: 0.318
       a = -4.000      CL = -0.1698
      Cm = -0.0842     CD =  0.04576   =>   CDf =  0.00443    CDp =  0.04133

 Side 1  free  transition at x/c =  0.9462   73
 Side 2  free  transition at x/c =  0.0810   19

 118   rms: 0.6241E-01   max: -.4734E+00   D at   19  2
       a = -4.000      CL = -0.1157
      Cm = -0.0878     CD =  0.03629   =>   CDf =  0.00546    CDp =  0.03083

 Side 1  free  transition at x/c =  0.9448   72
 Side 2  free  transition at x/c =  0.0854   20

 119   rms: 0.2336E+00   max: 0.9234E+00   D at   25  2
       a = -4.000      CL = -0.1299
      Cm = -0.0869     CD =  0.03367   =>   CDf =  0.00711    CDp =  0.02656

 Side 1  free  transition at x/c =  0.9408   72
 Side 2  free  transition at x/c =  0.0771   19

 120   rms: 0.5342E-01   max: 0.4276E+00   D at   22  2
       a = -4.000      CL = -0.1247
      Cm = -0.0869     CD =  0.03374   =>   CDf =  0.00568    CDp =  0.02806

 Side 1  free  transition at x/c =  0.9437   72
 Side 2  free  transition at x/c =  0.0765   19

 121   rms: 0.1018E+01   max: -.1867E+02   T at   19  2   RLX: 0.027
       a = -4.000      CL = -0.1243
      Cm = -0.0863     CD =  0.03201   =>   CDf =  0.00606    CDp =  0.02595

 TRCHEK2: N2 convergence failed.
 x:  0.14091  0.15509  0.15509  N:  8.935  9.000  9.058  Nx:   8.569   dN: 0.584E-01
 TRCHEK2: N2 convergence failed.
 x:  0.14091  0.15291  0.15509  N:  8.935  9.000  9.007  Nx:   9.989   dN:-0.277E-01
 TRCHEK2: N2 convergence failed.
 x:  0.14091  0.15485  0.15509  N:  8.935  9.000  9.004  Nx:   6.370   dN: 0.720E-01
 TRCHEK2: N2 convergence failed.
 x:  0.14091  0.15076  0.15509  N:  8.935  9.000  9.022  Nx:  16.372   dN:-0.619E-01
 TRCHEK2: N2 convergence failed.
 x:  0.14091  0.15412  0.15509  N:  8.935  9.000  9.001  Nx:   6.913   dN:-0.930E-02
 TRCHEK2: N2 convergence failed.
 x:  0.14091  0.15439  0.15509  N:  8.935  9.000  9.007  Nx:   6.409   dN: 0.236E-01
 TRCHEK2: N2 convergence failed.
 x:  0.14091  0.15369  0.15509  N:  8.935  9.000  9.011  Nx:   6.457   dN: 0.204E-01
 TRCHEK2: N2 convergence failed.
 x:  0.14091  0.15318  0.15509  N:  8.935  9.000  9.006  Nx:   6.612   dN:-0.163E-01
 TRCHEK2: N2 convergence failed.
 x:  0.14091  0.15318  0.15509  N:  8.935  9.000  9.006  Nx:   6.685   dN:-0.948E-02
 TRCHEK2: N2 convergence failed.
 x:  0.14091  0.15343  0.15509  N:  8.935  9.000  9.013  Nx:   6.501   dN: 0.195E-01
 TRCHEK2: N2 convergence failed.
 x:  0.14091  0.15362  0.15509  N:  8.935  9.000  9.012  Nx:   6.468   dN: 0.202E-01
 TRCHEK2: N2 convergence failed.
 x:  0.14091  0.15323  0.15509  N:  8.935  9.000  9.006  Nx:   6.626   dN:-0.147E-01
 TRCHEK2: N2 convergence failed.
 x:  0.14091  0.15323  0.15509  N:  8.935  9.000  9.006  Nx:   6.680   dN:-0.104E-01
 TRCHEK2: N2 convergence failed.
 x:  0.14091  0.15345  0.15509  N:  8.935  9.000  9.013  Nx:   6.510   dN: 0.197E-01
 TRCHEK2: N2 convergence failed.
 x:  0.14091  0.15366  0.15509  N:  8.935  9.000  9.011  Nx:   6.475   dN: 0.205E-01
 TRCHEK2: N2 convergence failed.
 x:  0.14091  0.15330  0.15509  N:  8.935  9.000  9.005  Nx:   6.612   dN:-0.199E-01
 TRCHEK2: N2 convergence failed.
 x:  0.14091  0.15342  0.15509  N:  8.935  9.000  9.013  Nx:   6.551   dN: 0.202E-01
 TRCHEK2: N2 convergence failed.
 x:  0.14091  0.15280  0.15509  N:  8.935  9.000  9.009  Nx:   9.029   dN:-0.369E-02
 TRCHEK2: N2 convergence failed.
 x:  0.14091  0.15367  0.15509  N:  8.935  9.000  9.011  Nx:   6.485   dN: 0.221E-01
 TRCHEK2: N2 convergence failed.
 x:  0.14091  0.15330  0.15509  N:  8.935  9.000  9.005  Nx:   6.652   dN:-0.125E-01
 TRCHEK2: N2 convergence failed.
 x:  0.14091  0.15270  0.15509  N:  8.935  9.000  9.009  Nx:  10.198   dN:-0.374E-02
 TRCHEK2: N2 convergence failed.
 x:  0.14091  0.15418  0.15509  N:  8.935  9.000  9.008  Nx:   6.512   dN: 0.242E-01
 TRCHEK2: N2 convergence failed.
 x:  0.14091  0.15340  0.15509  N:  8.935  9.000  9.013  Nx:   6.569   dN: 0.725E-01
 TRCHEK2: N2 convergence failed.
 x:  0.14091  0.15288  0.15509  N:  8.935  9.000  9.008  Nx:   9.437   dN:-0.365E-02
 TRCHEK2: N2 convergence failed.
 x:  0.14091  0.15407  0.15509  N:  8.935  9.000  9.009  Nx:   6.547   dN: 0.242E-01
 MRCHDU: Convergence failed at  23  side 2    Res =  0.1629E+03
 MRCHDU: Convergence failed at  24  side 2    Res =  0.8694E+02
 MRCHDU: Convergence failed at  25  side 2    Res =  0.2077E+02
 MRCHDU: Convergence failed at  26  side 2    Res =  0.8434E+02
 MRCHDU: Convergence failed at  27  side 2    Res =  0.1625E+03
 MRCHDU: Convergence failed at  28  side 2    Res =  0.1900E+03
 MRCHDU: Convergence failed at  29  side 2    Res =  0.4076E+02
 MRCHDU: Convergence failed at  30  side 2    Res =  0.4892E+02
 MRCHDU: Convergence failed at  31  side 2    Res =  0.3240E+02
 MRCHDU: Convergence failed at  32  side 2    Res =  0.2552E+03
 MRCHDU: Convergence failed at  33  side 2    Res =  0.1014E+03
 MRCHDU: Convergence failed at  34  side 2    Res =  0.3657E+02
 MRCHDU: Convergence failed at  35  side 2    Res =  0.6177E+02
 MRCHDU: Convergence failed at  36  side 2    Res =  0.1399E+03
 MRCHDU: Convergence failed at  37  side 2    Res =  0.1290E+03
 MRCHDU: Convergence failed at  38  side 2    Res =  0.1220E+03
 MRCHDU: Convergence failed at  39  side 2    Res =  0.1184E+03
 MRCHDU: Convergence failed at  40  side 2    Res =  0.1170E+03
 MRCHDU: Convergence failed at  41  side 2    Res =  0.1171E+03
 MRCHDU: Convergence failed at  42  side 2    Res =  0.1181E+03
 MRCHDU: Convergence failed at  43  side 2    Res =  0.1298E+03
 MRCHDU: Convergence failed at  44  side 2    Res =  0.1283E+03
 MRCHDU: Convergence failed at  45  side 2    Res =  0.1277E+03
 MRCHDU: Convergence failed at  46  side 2    Res =  0.1280E+03
 MRCHDU: Convergence failed at  47  side 2    Res =  0.1287E+03
 MRCHDU: Convergence failed at  48  side 2    Res =  0.1304E+03
 MRCHDU: Convergence failed at  49  side 2    Res =  0.1321E+03
 MRCHDU: Convergence failed at  50  side 2    Res =  0.1346E+03
 MRCHDU: Convergence failed at  51  side 2    Res =  0.1375E+03
 MRCHDU: Convergence failed at  52  side 2    Res =  0.1411E+03
 MRCHDU: Convergence failed at  53  side 2    Res =  0.1452E+03
 MRCHDU: Convergence failed at  54  side 2    Res =  0.1501E+03
 MRCHDU: Convergence failed at  55  side 2    Res =  0.1555E+03
 MRCHDU: Convergence failed at  56  side 2    Res =  0.1616E+03
 MRCHDU: Convergence failed at  57  side 2    Res =  0.1683E+03
 MRCHDU: Convergence failed at  58  side 2    Res =  0.1757E+03
 MRCHDU: Convergence failed at  59  side 2    Res =  0.1833E+03
 MRCHDU: Convergence failed at  60  side 2    Res =  0.1915E+03
 MRCHDU: Convergence failed at  61  side 2    Res =  0.2001E+03
 MRCHDU: Convergence failed at  62  side 2    Res =  0.2088E+03
 MRCHDU: Convergence failed at  63  side 2    Res =  0.2180E+03
 MRCHDU: Convergence failed at  64  side 2    Res =  0.2277E+03
 MRCHDU: Convergence failed at  65  side 2    Res =  0.2374E+03
 MRCHDU: Convergence failed at  66  side 2    Res =  0.2468E+03
 MRCHDU: Convergence failed at  67  side 2    Res =  0.3722E+03
 MRCHDU: Convergence failed at  68  side 2    Res =  0.3897E+03
 MRCHDU: Convergence failed at  69  side 2    Res =  0.4070E+03
 MRCHDU: Convergence failed at  70  side 2    Res =  0.4219E+03
 MRCHDU: Convergence failed at  71  side 2    Res =  0.4346E+03
 MRCHDU: Convergence failed at  72  side 2    Res =  0.4464E+03
 MRCHDU: Convergence failed at  73  side 2    Res =  0.4569E+03
 MRCHDU: Convergence failed at  74  side 2    Res =  0.4571E+03
 MRCHDU: Convergence failed at  75  side 2    Res =  0.2612E+03
 MRCHDU: Convergence failed at  76  side 2    Res =  0.2532E+03
 MRCHDU: Convergence failed at  77  side 2    Res =  0.2426E+03
 MRCHDU: Convergence failed at  78  side 2    Res =  0.2262E+03
 MRCHDU: Convergence failed at  79  side 2    Res =  0.2145E+03
 MRCHDU: Convergence failed at  80  side 2    Res =  0.2086E+03
 MRCHDU: Convergence failed at  81  side 2    Res =  0.2006E+03
 MRCHDU: Convergence failed at  82  side 2    Res =  0.1898E+03
 MRCHDU: Convergence failed at  83  side 2    Res =  0.1838E+03
 MRCHDU: Convergence failed at  84  side 2    Res =  0.1832E+03
[...]
       a = 13.250      CL =  1.2842
      Cm = -0.0374     CD =  0.07209   =>   CDf =  0.00552    CDp =  0.06657

 Side 1  free  transition at x/c =  0.0183   17
 Side 2 forced transition at x/c =  1.0000   72

   5   rms: 0.1586E-04   max: 0.1109E-03   C at   72  2
       a = 13.250      CL =  1.2842
      Cm = -0.0374     CD =  0.07210   =>   CDf =  0.00552    CDp =  0.06657
 plradd ia,ip,cpol           41           0 -1.10779991E-04

 Point added to stored polar  1
 Point written to save file  hq3510_Re150k.base.pol                          
 Dump file unspecified or not available
 Calculating wake trajectory ...
 Calculating source influence matrix ...

 Solving BL system ...

 Side 1  free  transition at x/c =  0.0183   17
 Side 2 forced transition at x/c =  1.0000   72

   1   rms: 0.4230E-01   max: 0.1372E+00   D at   58  1   RLX: 0.622
       a = 13.500      CL =  1.2782
      Cm = -0.0377     CD =  0.07571   =>   CDf =  0.00552    CDp =  0.07019

 Side 1  free  transition at x/c =  0.0184   17
 Side 2 forced transition at x/c =  1.0000   72

   2   rms: 0.1703E-01   max: 0.6206E-01   D at   65  1
       a = 13.500      CL =  1.2713
      Cm = -0.0380     CD =  0.07759   =>   CDf =  0.00534    CDp =  0.07225

 Side 1  free  transition at x/c =  0.0185   17
 Side 2 forced transition at x/c =  1.0000   72

   3   rms: 0.1679E-02   max: 0.9600E-02   D at   88  2
       a = 13.500      CL =  1.2702
      Cm = -0.0380     CD =  0.07719   =>   CDf =  0.00525    CDp =  0.07193

 Side 1  free  transition at x/c =  0.0185   17
 Side 2 forced transition at x/c =  1.0000   72

   4   rms: 0.1708E-03   max: -.5227E-03   D at   65  1
       a = 13.500      CL =  1.2704
      Cm = -0.0380     CD =  0.07717   =>   CDf =  0.00526    CDp =  0.07191

 Side 1  free  transition at x/c =  0.0185   17
 Side 2 forced transition at x/c =  1.0000   72

   5   rms: 0.1917E-04   max: 0.1374E-03   C at   72  2
       a = 13.500      CL =  1.2703
      Cm = -0.0380     CD =  0.07717   =>   CDf =  0.00526    CDp =  0.07191
 plradd ia,ip,cpol           42           0 -1.10779991E-04

 Point added to stored polar  1
 Point written to save file  hq3510_Re150k.base.pol                          
 Dump file unspecified or not available
 Calculating wake trajectory ...
 Calculating source influence matrix ...

 Solving BL system ...

 Side 1  free  transition at x/c =  0.0185   17
 Side 2 forced transition at x/c =  1.0000   72

   1   rms: 0.4433E-01   max: 0.1474E+00   D at   57  1   RLX: 0.589
       a = 13.750      CL =  1.2632
      Cm = -0.0386     CD =  0.08110   =>   CDf =  0.00526    CDp =  0.07584

 Side 1  free  transition at x/c =  0.0186   17
 Side 2 forced transition at x/c =  1.0000   72

   2   rms: 0.1944E-01   max: 0.7208E-01   D at   63  1
       a = 13.750      CL =  1.2553
      Cm = -0.0393     CD =  0.08339   =>   CDf =  0.00509    CDp =  0.07831

 Side 1  free  transition at x/c =  0.0186   17
 Side 2 forced transition at x/c =  1.0000   72

   3   rms: 0.2358E-02   max: 0.1334E-01   D at   88  2
       a = 13.750      CL =  1.2538
      Cm = -0.0392     CD =  0.08280   =>   CDf =  0.00499    CDp =  0.07781

 Side 1  free  transition at x/c =  0.0186   17
 Side 2 forced transition at x/c =  1.0000   72

   4   rms: 0.2199E-03   max: -.6469E-03   D at   63  1
       a = 13.750      CL =  1.2540
      Cm = -0.0392     CD =  0.08278   =>   CDf =  0.00500    CDp =  0.07778

 Side 1  free  transition at x/c =  0.0186   17
 Side 2 forced transition at x/c =  1.0000   72

   5   rms: 0.2059E-04   max: -.6073E-04   T at   63  1
       a = 13.750      CL =  1.2539
      Cm = -0.0392     CD =  0.08278   =>   CDf =  0.00500    CDp =  0.07778
 plradd ia,ip,cpol           43           0 -1.10779991E-04

 Point added to stored polar  1
 Point written to save file  hq3510_Re150k.base.pol                          
 Dump file unspecified or not available
 Calculating wake trajectory ...
 Calculating source influence matrix ...

 Solving BL system ...

 Side 1  free  transition at x/c =  0.0186   17
 Side 2 forced transition at x/c =  1.0000   72

   1   rms: 0.4514E-01   max: 0.1542E+00   D at   55  1   RLX: 0.559
       a = 14.000      CL =  1.2463
      Cm = -0.0403     CD =  0.08684   =>   CDf =  0.00500    CDp =  0.08184

 Side 1  free  transition at x/c =  0.0187   17
 Side 2 forced transition at x/c =  1.0000   72

   2   rms: 0.2110E-01   max: 0.7651E-01   D at   60  1
       a = 14.000      CL =  1.2378
      Cm = -0.0413     CD =  0.08959   =>   CDf =  0.00485    CDp =  0.08474

 Side 1  free  transition at x/c =  0.0188   17
 Side 2 forced transition at x/c =  1.0000   72

   3   rms: 0.2621E-02   max: 0.1550E-01   D at   89  2
       a = 14.000      CL =  1.2362
      Cm = -0.0412     CD =  0.08887   =>   CDf =  0.00475    CDp =  0.08412

 Side 1  free  transition at x/c =  0.0188   17
 Side 2 forced transition at x/c =  1.0000   72

   4   rms: 0.2416E-03   max: -.7345E-03   D at   60  1
       a = 14.000      CL =  1.2364
      Cm = -0.0412     CD =  0.08884   =>   CDf =  0.00476    CDp =  0.08407

 Side 1  free  transition at x/c =  0.0188   17
 Side 2 forced transition at x/c =  1.0000   72

   5   rms: 0.2071E-04   max: -.6133E-04   T at   60  1
       a = 14.000      CL =  1.2364
      Cm = -0.0412     CD =  0.08884   =>   CDf =  0.00476    CDp =  0.08408
 plradd ia,ip,cpol           44           0 -1.10779991E-04

 Point added to stored polar  1
 Point written to save file  hq3510_Re150k.base.pol                          
 Dump file unspecified or not available
 Calculating wake trajectory ...
 Calculating source influence matrix ...

 Solving BL system ...

 Side 1  free  transition at x/c =  0.0188   17
 Side 2 forced transition at x/c =  1.0000   72

   1   rms: 0.4684E-01   max: 0.1628E+00   D at   53  1   RLX: 0.532
       a = 14.250      CL =  1.2287
      Cm = -0.0428     CD =  0.09316   =>   CDf =  0.00476    CDp =  0.08840

 Side 1  free  transition at x/c =  0.0189   17
 Side 2 forced transition at x/c =  1.0000   72

   2   rms: 0.2303E-01   max: 0.8665E-01   D at   58  1
       a = 14.250      CL =  1.2193
      Cm = -0.0442     CD =  0.09630   =>   CDf =  0.00462    CDp =  0.09168

 Side 1  free  transition at x/c =  0.0189   17
 Side 2 forced transition at x/c =  1.0000   72

   3   rms: 0.3032E-02   max: 0.2176E-01   D at   89  2
       a = 14.250      CL =  1.2177
      Cm = -0.0441     CD =  0.09545   =>   CDf =  0.00452    CDp =  0.09093

 Side 1  free  transition at x/c =  0.0189   17
 Side 2 forced transition at x/c =  1.0000   72

   4   rms: 0.2692E-03   max: 0.1115E-02   D at   89  2
       a = 14.250      CL =  1.2178
      Cm = -0.0441     CD =  0.09541   =>   CDf =  0.00454    CDp =  0.09088

 Side 1  free  transition at x/c =  0.0189   17
 Side 2 forced transition at x/c =  1.0000   72

   5   rms: 0.2304E-04   max: -.6891E-04   D at   89  2
       a = 14.250      CL =  1.2178
      Cm = -0.0441     CD =  0.09542   =>   CDf =  0.00453    CDp =  0.09089
 plradd ia,ip,cpol           45           0 -1.10779991E-04

 Point added to stored polar  1
 Point written to save file  hq3510_Re150k.base.pol                          
 Dump file unspecified or not available
 Calculating wake trajectory ...
 Calculating source influence matrix ...

 Solving BL system ...

 Side 1  free  transition at x/c =  0.0189   17
 Side 2 forced transition at x/c =  1.0000   72

   1   rms: 0.4755E-01   max: 0.1677E+00   D at   50  1   RLX: 0.506
       a = 14.500      CL =  1.2102
      Cm = -0.0459     CD =  0.09998   =>   CDf =  0.00453    CDp =  0.09544

 Side 1  free  transition at x/c =  0.0190   17
 Side 2 forced transition at x/c =  1.0000   72

   2   rms: 0.2474E-01   max: 0.9294E-01   D at   55  1
       a = 14.500      CL =  1.2008
      Cm = -0.0479     CD =  0.10367   =>   CDf =  0.00441    CDp =  0.09926

 Side 1  free  transition at x/c =  0.0191   17
 Side 2 forced transition at x/c =  1.0000   72

   3   rms: 0.3412E-02   max: 0.1780E-01   D at   89  2
       a = 14.500      CL =  1.1991
      Cm = -0.0477     CD =  0.10254   =>   CDf =  0.00431    CDp =  0.09822

 Side 1  free  transition at x/c =  0.0191   17
 Side 2 forced transition at x/c =  1.0000   72

   4   rms: 0.3094E-03   max: -.8538E-03   D at   54  1
       a = 14.500      CL =  1.1992
      Cm = -0.0477     CD =  0.10248   =>   CDf =  0.00433    CDp =  0.09815

 Side 1  free  transition at x/c =  0.0191   17
 Side 2 forced transition at x/c =  1.0000   72

   5   rms: 0.2468E-04   max: -.1020E-03   D at   89  2
       a = 14.500      CL =  1.1992
      Cm = -0.0477     CD =  0.10249   =>   CDf =  0.00433    CDp =  0.09817
 plradd ia,ip,cpol           46           0 -1.10779991E-04

 Point added to stored polar  1
 Point written to save file  hq3510_Re150k.base.pol                          
 Dump file unspecified or not available
 Calculating wake trajectory ...
 Calculating source influence matrix ...

 Solving BL system ...

 Side 1  free  transition at x/c =  0.0191   17
 Side 2 forced transition at x/c =  1.0000   72

   1   rms: 0.5050E-01   max: 0.1798E+00   D at   48  1   RLX: 0.483
       a = 14.750      CL =  1.1916
      Cm = -0.0499     CD =  0.10734   =>   CDf =  0.00433    CDp =  0.10301

 Side 1  free  transition at x/c =  0.0191   17
 Side 2 forced transition at x/c =  1.0000   72

   2   rms: 0.2744E-01   max: 0.1015E+00   D at   52  1
       a = 14.750      CL =  1.1815
      Cm = -0.0524     CD =  0.11175   =>   CDf =  0.00421    CDp =  0.10753

 Side 1  free  transition at x/c =  0.0192   17
 Side 2 forced transition at x/c =  1.0000   72

   3   rms: 0.3881E-02   max: 0.2122E-01   D at   90  2
       a = 14.750      CL =  1.1796
      Cm = -0.0522     CD =  0.11038   =>   CDf =  0.00411    CDp =  0.10627

 Side 1  free  transition at x/c =  0.0192   17
 Side 2 forced transition at x/c =  1.0000   72

   4   rms: 0.3508E-03   max: -.9364E-03   D at   51  1
       a = 14.750      CL =  1.1798
      Cm = -0.0522     CD =  0.11031   =>   CDf =  0.00413    CDp =  0.10618

 Side 1  free  transition at x/c =  0.0192   17
 Side 2 forced transition at x/c =  1.0000   72

   5   rms: 0.3109E-04   max: -.1366E-03   D at   89  2
       a = 14.750      CL =  1.1798
      Cm = -0.0522     CD =  0.11032   =>   CDf =  0.00413    CDp =  0.10620
 plradd ia,ip,cpol           47           0 -1.10779991E-04

 Point added to stored polar  1
 Point written to save file  hq3510_Re150k.base.pol                          
 Dump file unspecified or not available
 Calculating wake trajectory ...
 Calculating source influence matrix ...

 Solving BL system ...

 Side 1  free  transition at x/c =  0.0192   17
 Side 2 forced transition at x/c =  1.0000   72

   1   rms: 0.5246E-01   max: 0.1890E+00   D at   45  1   RLX: 0.462
       a = 15.000      CL =  1.1725
      Cm = -0.0548     CD =  0.11545   =>   CDf =  0.00413    CDp =  0.11132

 Side 1  free  transition at x/c =  0.0193   17
 Side 2 forced transition at x/c =  1.0000   72

   2   rms: 0.2950E-01   max: 0.1092E+00   D at   48  1
       a = 15.000      CL =  1.1624
      Cm = -0.0578     CD =  0.12061   =>   CDf =  0.00403    CDp =  0.11658

 Side 1  free  transition at x/c =  0.0194   17
 Side 2 forced transition at x/c =  1.0000   72

   3   rms: 0.4492E-02   max: 0.2392E-01   D at   90  2
       a = 15.000      CL =  1.1604
      Cm = -0.0575     CD =  0.11881   =>   CDf =  0.00393    CDp =  0.11488

 Side 1  free  transition at x/c =  0.0194   17
 Side 2 forced transition at x/c =  1.0000   72

   4   rms: 0.4172E-03   max: 0.3498E-02   D at   90  2
       a = 15.000      CL =  1.1606
      Cm = -0.0575     CD =  0.11869   =>   CDf =  0.00395    CDp =  0.11474

 Side 1  free  transition at x/c =  0.0194   17
 Side 2 forced transition at x/c =  1.0000   72

   5   rms: 0.4195E-04   max: -.2249E-03   D at   89  2
       a = 15.000      CL =  1.1606
      Cm = -0.0575     CD =  0.11872   =>   CDf =  0.00395    CDp =  0.11477
 plradd ia,ip,cpol           48           0 -1.10779991E-04

 Point added to stored polar  1
 Point written to save file  hq3510_Re150k.base.pol                          
 Dump file unspecified or not available
 Calculating wake trajectory ...
 Calculating source influence matrix ...

 Solving BL system ...

 Side 1  free  transition at x/c =  0.0194   17
 Side 2 forced transition at x/c =  1.0000   72

   1   rms: 0.5623E-01   max: 0.2042E+00   D at   42  1   RLX: 0.443
       a = 15.250      CL =  1.1536
      Cm = -0.0604     CD =  0.12435   =>   CDf =  0.00395    CDp =  0.12040

 Side 1  free  transition at x/c =  0.0194   17
 Side 2 forced transition at x/c =  1.0000   72

   2   rms: 0.3270E-01   max: 0.1216E+00   D at   45  1
       a = 15.250      CL =  1.1431
      Cm = -0.0640     CD =  0.13032   =>   CDf =  0.00386    CDp =  0.12646

 Side 1  free  transition at x/c =  0.0195   17
 Side 2 forced transition at x/c =  1.0000   72

   3   rms: 0.5280E-02   max: 0.2655E-01   D at   90  2
       a = 15.250      CL =  1.1408
      Cm = -0.0635     CD =  0.12792   =>   CDf =  0.00377    CDp =  0.12415

 Side 1  free  transition at x/c =  0.0195   17
 Side 2 forced transition at x/c =  1.0000   72

   4   rms: 0.4921E-03   max: -.1700E-02   D at   92  2
       a = 15.250      CL =  1.1411
      Cm = -0.0635     CD =  0.12780   =>   CDf =  0.00379    CDp =  0.12401

 Side 1  free  transition at x/c =  0.0195   17
 Side 2 forced transition at x/c =  1.0000   72

   5   rms: 0.5156E-04   max: -.2829E-03   D at   90  2
       a = 15.250      CL =  1.1411
      Cm = -0.0635     CD =  0.12783   =>   CDf =  0.00379    CDp =  0.12404
 plradd ia,ip,cpol           49           0 -1.10779991E-04

 Point added to stored polar  1
 Point written to save file  hq3510_Re150k.base.pol                          
 Dump file unspecified or not available
 Calculating wake trajectory ...
 Calculating source influence matrix ...

 Solving BL system ...

 Side 1  free  transition at x/c =  0.0195   17
 Side 2 forced transition at x/c =  1.0000   72

   1   rms: 0.5962E-01   max: 0.2180E+00   D at   39  1   RLX: 0.425
       a = 15.500      CL =  1.1345
      Cm = -0.0667     CD =  0.13371   =>   CDf =  0.00379    CDp =  0.12992

 Side 1  free  transition at x/c =  0.0196   17
 Side 2 forced transition at x/c =  1.0000   72

   2   rms: 0.3532E-01   max: 0.1299E+00   D at   41  1
       a = 15.500      CL =  1.1244
      Cm = -0.0707     CD =  0.14052   =>   CDf =  0.00372    CDp =  0.13680

 Side 1  free  transition at x/c =  0.0198   17
 Side 2 forced transition at x/c =  1.0000   72

   3   rms: 0.6408E-02   max: 0.3163E-01   D at   90  2
       a = 15.500      CL =  1.1217
      Cm = -0.0701     CD =  0.13764   =>   CDf =  0.00364    CDp =  0.13400

 Side 1  free  transition at x/c =  0.0197   17
 Side 2 forced transition at x/c =  1.0000   72

   4   rms: 0.6158E-03   max: -.2293E-02   D at   92  2
       a = 15.500      CL =  1.1220
      Cm = -0.0701     CD =  0.13752   =>   CDf =  0.00365    CDp =  0.13386

 Side 1  free  transition at x/c =  0.0197   17
 Side 2 forced transition at x/c =  1.0000   72

   5   rms: 0.6121E-04   max: -.2961E-03   D at   90  2
       a = 15.500      CL =  1.1220
      Cm = -0.0701     CD =  0.13756   =>   CDf =  0.00365    CDp =  0.13391
 plradd ia,ip,cpol           50           0 -1.10779991E-04

 Point added to stored polar  1
 Point written to save file  hq3510_Re150k.base.pol                          
 Dump file unspecified or not available
 Calculating wake trajectory ...
 Calculating source influence matrix ...

 Solving BL system ...

 Side 1  free  transition at x/c =  0.0197   17
 Side 2 forced transition at x/c =  1.0000   72

   1   rms: 0.6543E-01   max: 0.2376E+00   D at   35  1   RLX: 0.409
       a = 15.750      CL =  1.1154
      Cm = -0.0734     CD =  0.14398   =>   CDf =  0.00365    CDp =  0.14033

 Side 1  free  transition at x/c =  0.0198   17
 Side 2 forced transition at x/c =  1.0000   72

   2   rms: 0.3935E-01   max: 0.1438E+00   D at   38  1
       a = 15.750      CL =  1.1045
      Cm = -0.0779     CD =  0.15150   =>   CDf =  0.00359    CDp =  0.14791

 Side 1  free  transition at x/c =  0.0200   17
 Side 2 forced transition at x/c =  1.0000   72

   3   rms: 0.6742E-02   max: 0.2741E-01   D at   92  2
       a = 15.750      CL =  1.1021
      Cm = -0.0771     CD =  0.14816   =>   CDf =  0.00353    CDp =  0.14463

 Side 1  free  transition at x/c =  0.0200   17
 Side 2 forced transition at x/c =  1.0000   72

   4   rms: 0.7562E-03   max: -.2399E-02   T at   17  1
       a = 15.750      CL =  1.1025
      Cm = -0.0772     CD =  0.14809   =>   CDf =  0.00355    CDp =  0.14454

 Side 1  free  transition at x/c =  0.0200   17
 Side 2 forced transition at x/c =  1.0000   72

   5   rms: 0.7582E-04   max: -.3226E-03   D at   90  2
       a = 15.750      CL =  1.1025
      Cm = -0.0772     CD =  0.14814   =>   CDf =  0.00355    CDp =  0.14460
 plradd ia,ip,cpol           51           0 -1.10779991E-04

 Point added to stored polar  1
 Point written to save file  hq3510_Re150k.base.pol                          
 Dump file unspecified or not available
 Calculating wake trajectory ...
 Calculating source influence matrix ...

 Solving BL system ...

 Side 1  free  transition at x/c =  0.0200   17
 Side 2 forced transition at x/c =  1.0000   72

   1   rms: 0.6933E-01   max: 0.2523E+00   D at   32  1   RLX: 0.394
       a = 16.000      CL =  1.0963
      Cm = -0.0804     CD =  0.15487   =>   CDf =  0.00355    CDp =  0.15132

 Side 1  free  transition at x/c =  0.0201   17
 Side 2 forced transition at x/c =  1.0000   72

   2   rms: 0.3933E-01   max: -.1362E+00   T at   17  1
       a = 16.000      CL =  1.0866
      Cm = -0.0841     CD =  0.16261   =>   CDf =  0.00351    CDp =  0.15910

 Side 1  free  transition at x/c =  0.0204   18
 Side 2 forced transition at x/c =  1.0000   72

   3   rms: 0.1336E+00   max: 0.8338E+00   D at   35  1
       a = 16.000      CL =  1.1444
      Cm = -0.0691     CD =  0.14425   =>   CDf =  0.00381    CDp =  0.14044

 Side 1  free  transition at x/c =  0.0212   18
 Side 2 forced transition at x/c =  1.0000   72

   4   rms: 0.1532E+00   max: 0.5287E+00   D at   40  1
       a = 16.000      CL =  1.1002
      Cm = -0.0864     CD =  0.17050   =>   CDf =  0.00355    CDp =  0.16696

 Side 1  free  transition at x/c =  0.0204   18
 Side 2 forced transition at x/c =  1.0000   72

   5   rms: 0.4720E-01   max: -.1466E+00   D at   26  1
       a = 16.000      CL =  1.0817
      Cm = -0.0833     CD =  0.15769   =>   CDf =  0.00338    CDp =  0.15431

 Side 1  free  transition at x/c =  0.0203   18
 Side 2 forced transition at x/c =  1.0000   72

   6   rms: 0.1191E-01   max: -.3783E-01   D at   90  2
       a = 16.000      CL =  1.0885
      Cm = -0.0833     CD =  0.15787   =>   CDf =  0.00348    CDp =  0.15439

 Side 1  free  transition at x/c =  0.0203   18
 Side 2 forced transition at x/c =  1.0000   72

   7   rms: 0.1449E-02   max: 0.4380E-02   D at   28  1
       a = 16.000      CL =  1.0881
      Cm = -0.0834     CD =  0.15813   =>   CDf =  0.00346    CDp =  0.15467

 Side 1  free  transition at x/c =  0.0203   18
 Side 2 forced transition at x/c =  1.0000   72

   8   rms: 0.2995E-03   max: 0.1625E-02   D at   90  2
       a = 16.000      CL =  1.0879
      Cm = -0.0833     CD =  0.15794   =>   CDf =  0.00345    CDp =  0.15449

 Side 1  free  transition at x/c =  0.0203   18
 Side 2 forced transition at x/c =  1.0000   72

   9   rms: 0.2273E-04   max: -.5908E-04   D at   79  1
       a = 16.000      CL =  1.0880
      Cm = -0.0833     CD =  0.15793   =>   CDf =  0.00346    CDp =  0.15448
 plradd ia,ip,cpol           52           0 -1.10779991E-04

 Point added to stored polar  1
 Point written to save file  hq3510_Re150k.base.pol                          
 Dump file unspecified or not available

.OPERva   c>  
 Polar accumulation disabled

.OPERv   c>  
 XFOIL   c>  
 XFOIL   c>  