  
       XFOIL         Version 6.99
  
 Calculated polar for: HQ 3.5/18 AIRFOIL                               
  
 1 1 Reynolds number fixed          Mach number fixed         
  
 xtrf =   1.000 (top)        1.000 (bottom)  
 Mach =   0.000     Re =     0.200 e 6     Ncrit =   9.000
  
   alpha    CL        CD       CDp       CM     Top_Xtr  Bot_Xtr
  ------ -------- --------- --------- -------- -------- --------
-4.000  -0.0006   0.01533   0.00919  -0.0995   0.7950   0.5051
-3.500   0.0467   0.01567   0.00958  -0.0976   0.7854   0.5558
-3.000   0.1027   0.01592   0.00978  -0.0970   0.7788   0.5896
-2.500   0.1547   0.01641   0.01023  -0.0958   0.7713   0.6152
-2.000   0.2077   0.01672   0.01048  -0.0948   0.7627   0.6358
-1.500   0.2642   0.01685   0.01054  -0.0941   0.7542   0.6525
-1.000   0.3201   0.01686   0.01050  -0.0933   0.7437   0.6691
-0.500   0.3720   0.01695   0.01057  -0.0923   0.7336   0.6806
0.000   0.4324   0.01673   0.01021  -0.0929   0.7247   0.6925
0.500   0.4829   0.01671   0.01023  -0.0917   0.7125   0.7014
1.000   0.5480   0.01643   0.00980  -0.0930   0.7044   0.7128
1.500   0.5948   0.01647   0.00991  -0.0914   0.6909   0.7241
2.000   0.6477   0.01633   0.00978  -0.0907   0.6778   0.7340
2.500   0.7052   0.01607   0.00945  -0.0908   0.6644   0.7468
3.000   0.7620   0.01580   0.00917  -0.0906   0.6510   0.7587
3.500   0.8108   0.01564   0.00906  -0.0892   0.6344   0.7718
4.000   0.8604   0.01543   0.00884  -0.0878   0.6162   0.7867
4.500   0.9038   0.01530   0.00876  -0.0854   0.5949   0.8025
5.000   0.9445   0.01524   0.00875  -0.0825   0.5719   0.8194
5.500   0.9864   0.01517   0.00864  -0.0797   0.5479   0.8372
6.000   1.0186   0.01529   0.00882  -0.0754   0.5213   0.8572
6.500   1.0476   0.01549   0.00898  -0.0705   0.4942   0.8821
7.500   1.1228   0.01676   0.01015  -0.0657   0.4348   1.0000
8.000   1.1569   0.01787   0.01104  -0.0635   0.4078   1.0000
8.500   1.1817   0.01900   0.01218  -0.0598   0.3820   1.0000
9.000   1.2035   0.02030   0.01339  -0.0558   0.3575   1.0000
9.500   1.2238   0.02186   0.01485  -0.0519   0.3344   1.0000
10.000   1.2452   0.02367   0.01652  -0.0485   0.3132   1.0000
10.250   1.2579   0.02461   0.01737  -0.0471   0.3030   1.0000
10.500   1.2694   0.02558   0.01829  -0.0456   0.2924   1.0000
10.750   1.2803   0.02660   0.01932  -0.0441   0.2821   1.0000
11.000   1.2933   0.02760   0.02020  -0.0429   0.2722   1.0000
11.250   1.3004   0.02873   0.02144  -0.0412   0.2628   1.0000
11.500   1.3139   0.02974   0.02232  -0.0401   0.2543   1.0000
11.750   1.3210   0.03094   0.02365  -0.0386   0.2463   1.0000
12.000   1.3328   0.03200   0.02464  -0.0374   0.2394   1.0000
12.250   1.3430   0.03316   0.02588  -0.0363   0.2326   1.0000
12.500   1.3526   0.03434   0.02708  -0.0351   0.2263   1.0000
12.750   1.3657   0.03541   0.02810  -0.0342   0.2207   1.0000
13.000   1.3743   0.03671   0.02952  -0.0332   0.2150   1.0000
13.250   1.3843   0.03795   0.03075  -0.0322   0.2098   1.0000
13.500   1.3974   0.03908   0.03186  -0.0315   0.2050   1.0000
13.750   1.4054   0.04051   0.03340  -0.0305   0.2001   1.0000
14.000   1.4145   0.04188   0.03479  -0.0297   0.1954   1.0000
14.250   1.4294   0.04295   0.03579  -0.0292   0.1908   1.0000
14.500   1.4354   0.04462   0.03761  -0.0283   0.1867   1.0000
14.750   1.4439   0.04613   0.03917  -0.0276   0.1826   1.0000
15.000   1.4572   0.04732   0.04031  -0.0271   0.1784   1.0000
15.250   1.4670   0.04884   0.04190  -0.0266   0.1745   1.0000
15.500   1.4721   0.05071   0.04392  -0.0259   0.1709   1.0000
15.750   1.4805   0.05234   0.04561  -0.0255   0.1675   1.0000
16.000   1.4935   0.05362   0.04685  -0.0251   0.1638   1.0000
16.250   1.5049   0.05511   0.04840  -0.0247   0.1604   1.0000
16.500   1.5056   0.05750   0.05098  -0.0243   0.1574   1.0000
16.750   1.5095   0.05964   0.05324  -0.0239   0.1542   1.0000
17.000   1.5158   0.06155   0.05518  -0.0237   0.1508   1.0000
17.250   1.5309   0.06271   0.05627  -0.0235   0.1466   1.0000
17.500   1.5222   0.06616   0.05997  -0.0234   0.1438   1.0000
17.750   1.5183   0.06927   0.06323  -0.0235   0.1403   1.0000
18.000   1.5189   0.07192   0.06594  -0.0237   0.1367   1.0000
18.250   1.5277   0.07365   0.06761  -0.0237   0.1325   1.0000
18.750   1.5076   0.08199   0.07635  -0.0253   0.1258   1.0000
19.250   1.5017   0.08885   0.08330  -0.0271   0.1181   1.0000
19.750   1.4816   0.09828   0.09304  -0.0304   0.1103   1.0000
20.250   1.4633   0.10778   0.10277  -0.0341   0.1020   1.0000
20.750   1.4448   0.11760   0.11272  -0.0386   0.0935   1.0000
21.250   1.4261   0.12761   0.12281  -0.0435   0.0849   1.0000
21.750   1.4009   0.13913   0.13454  -0.0497   0.0770   1.0000
22.250   1.3802   0.14998   0.14556  -0.0559   0.0698   1.0000
