
 ===================================================
  XFOIL Version 6.99
  Copyright (C) 2000   Mark Drela, Harold Youngren

  This software comes with ABSOLUTELY NO WARRANTY,
    subject to the GNU General Public License.

  Caveat computor
 ===================================================

 File  xfoil.def  not found

   QUIT    Exit program

  .OPER    Direct operating point(s)
  .MDES    Complex mapping design routine
  .QDES    Surface speed design routine
  .GDES    Geometry design routine

   SAVE f  Write airfoil to labeled coordinate file
   PSAV f  Write airfoil to plain coordinate file
   ISAV f  Write airfoil to ISES coordinate file
   MSAV f  Write airfoil to MSES coordinate file
   REVE    Reverse written-airfoil node ordering

   LOAD f  Read buffer airfoil from coordinate file
   NACA i  Set NACA 4,5-digit airfoil and buffer airfoil
   INTE    Set buffer airfoil by interpolating two airfoils
   NORM    Buffer airfoil normalization toggle
   XYCM rr Change CM reference location, currently  0.25000 0.00000

   BEND    Display structural properties of current airfoil

   PCOP    Set current-airfoil panel nodes directly from buffer airfoil points
   PANE    Set current-airfoil panel nodes ( 160 ) based on curvature
  .PPAR    Show/change paneling

  .PLOP    Plotting options

   WDEF f  Write  current-settings file
   RDEF f  Reread current-settings file
   NAME s  Specify new airfoil name
   NINC    Increment name version number

   Z       Zoom    | (available in all menus)
   U       Unzoom  | 

 XFOIL   c>  
 Labeled airfoil file.  Name:   HAM-STD HS1-430 AIRFOIL                        

 Number of input coordinate points: 123
 Counterclockwise ordering
 Max thickness =     0.299964  at x =   0.340
 Max camber    =     0.029615  at x =   0.440

  LE  x,y  =   0.00000   0.00008  |   Chord =   1.00000
  TE  x,y  =   1.00000  -0.00056  |

 Current airfoil nodes set from buffer airfoil nodes ( 123 )

 XFOIL   c>  
 XFOIL   c>  
 Blunt trailing edge.  Gap =  0.04049

 Paneling parameters used...
   Number of panel nodes       160
   Panel bunching parameter    1.000
   TE/LE panel density ratio   0.150
   Refined-area/LE panel density ratio    0.200
   Top    side refined area x/c limits  1.000 1.000
   Bottom side refined area x/c limits  1.000 1.000

 XFOIL   c>  
.OPERi   c>  
 Xtr/c     =  1.0000    top    side
 Xtr/c     =  1.0000    bottom side
 Ncrit     =    9.00   ( 0.070 % turb. level )
 Vacc      =  0.0100

 Klag  =  5.6000     Uxwt  =    1.00
 A     =  6.7000     B     =  0.7500       KCt = 0.01485
 CtiniK=  1.8000     CtiniX=  3.3000

..VPAR   c>  
..VPAR   c>  
.OPERi   c>  
 M  =    0.0000
 Re =    300000

.OPERv   c>  
.OPERv   c>  
.OPERv   c>  
 Polar  1 newly created for accumulation
 Airfoil archived with polar: HAM-STD HS1-430 AIRFOIL                         

Enter  polar save filename  OR  <return> for no file   s>  
 New polar save file available

Enter  polar dump filename  OR  <return> for no file   s>  
 Polar dump file will NOT be written

 Polar accumulation enabled

.OPERva   c>   Calculating unit vorticity distributions ...
 Calculating wake trajectory ...
 Calculating source influence matrix ...

 Solving BL system ...

 Initializing BL ...
    side            1  ...
 MRCHUE: Inverse mode at  61     Hk =   3.800
 MRCHUE: Inverse mode at  62     Hk =   4.314
 MRCHUE: Convergence failed at  63  side 1    Res =  0.4489E+01
 MRCHUE: Inverse mode at  64     Hk =   4.790
 MRCHUE: Inverse mode at  65     Hk =   5.244
 MRCHUE: Inverse mode at  69     Hk =   3.800
 MRCHUE: Convergence failed at  70  side 1    Res =  0.1076E+02
 MRCHUE: Convergence failed at  71  side 1    Res =  0.1116E+02
 MRCHUE: Inverse mode at  72     Hk =   4.316
 MRCHUE: Inverse mode at  73     Hk =   4.854
 MRCHUE: Inverse mode at  74     Hk =   5.422
 MRCHUE: Inverse mode at  75     Hk =   6.033
 MRCHUE: Inverse mode at  76     Hk =   6.702
 MRCHUE: Inverse mode at  77     Hk =   5.067
 MRCHUE: Inverse mode at  78     Hk =   2.500
 MRCHUE: Inverse mode at 105     Hk =   2.500
 MRCHUE: Inverse mode at 106     Hk =   2.500
 MRCHUE: Inverse mode at 107     Hk =   2.500
 MRCHUE: Inverse mode at 108     Hk =   2.500
 MRCHUE: Inverse mode at 109     Hk =   2.500
 MRCHUE: Inverse mode at 110     Hk =   2.500
 MRCHUE: Inverse mode at 111     Hk =   2.500
 MRCHUE: Inverse mode at 112     Hk =   2.500
 MRCHUE: Convergence failed at 113  side 1    Res =  0.5310E+01
 MRCHUE: Inverse mode at 114     Hk =   2.500
 MRCHUE: Convergence failed at 115  side 1    Res =  0.8552E+01
 MRCHUE: Convergence failed at 116  side 1    Res =  0.6699E+01
    side            2  ...
 MRCHUE: Inverse mode at  41     Hk =   3.800
 MRCHUE: Inverse mode at  42     Hk =   4.452
 MRCHUE: Inverse mode at  43     Hk =   5.048
 MRCHUE: Convergence failed at  44  side 2    Res =  0.3143E+01
 MRCHUE: Convergence failed at  45  side 2    Res =  0.3479E+01
 MRCHUE: Inverse mode at  46     Hk =   5.373
 MRCHUE: Inverse mode at  48     Hk =   2.667
 MRCHUE: Inverse mode at  49     Hk =   2.524
 MRCHUE: Inverse mode at  50     Hk =   2.401

 MRCHDU: Convergence failed at  70  side 1    Res =  0.5024E+01
 MRCHDU: Convergence failed at  71  side 1    Res =  0.1229E+02
 MRCHDU: Convergence failed at  72  side 1    Res =  0.6762E+01
 MRCHDU: Convergence failed at  73  side 1    Res =  0.2911E+01
 MRCHDU: Convergence failed at  74  side 1    Res =  0.2481E+01
 MRCHDU: Convergence failed at  75  side 1    Res =  0.3657E+01
 MRCHDU: Convergence failed at  76  side 1    Res =  0.9563E+01
 MRCHDU: Convergence failed at  77  side 1    Res =  0.4807E+01
 MRCHDU: Convergence failed at  78  side 1    Res =  0.1508E+02
 MRCHDU: Convergence failed at  79  side 1    Res =  0.2710E+02
 MRCHDU: Convergence failed at  80  side 1    Res =  0.8893E+01
 MRCHDU: Convergence failed at  81  side 1    Res =  0.2972E+01
 MRCHDU: Convergence failed at  82  side 1    Res =  0.3208E+01
 MRCHDU: Convergence failed at  83  side 1    Res =  0.3528E+01
 MRCHDU: Convergence failed at  84  side 1    Res =  0.4005E+01
 MRCHDU: Convergence failed at  85  side 1    Res =  0.5064E+01
 MRCHDU: Convergence failed at  86  side 1    Res =  0.7118E+01
 MRCHDU: Convergence failed at  87  side 1    Res =  0.9410E+01
 MRCHDU: Convergence failed at  88  side 1    Res =  0.1454E+02
 MRCHDU: Convergence failed at  89  side 1    Res =  0.3605E+02
 MRCHDU: Convergence failed at  90  side 1    Res =  0.8289E+02
 MRCHDU: Convergence failed at  91  side 1    Res =  0.1809E+02
 MRCHDU: Convergence failed at  92  side 1    Res =  0.8418E+01
 MRCHDU: Convergence failed at  93  side 1    Res =  0.3422E+03
 MRCHDU: Convergence failed at  94  side 1    Res =  0.5675E+02
 MRCHDU: Convergence failed at  95  side 1    Res =  0.3535E+02
 MRCHDU: Convergence failed at  96  side 1    Res =  0.2114E+02
 MRCHDU: Convergence failed at  97  side 1    Res =  0.2062E+02
 MRCHDU: Convergence failed at  98  side 1    Res =  0.1523E+02
 MRCHDU: Convergence failed at  99  side 1    Res =  0.9196E+01
 MRCHDU: Convergence failed at 100  side 1    Res =  0.1050E+02
 MRCHDU: Convergence failed at 101  side 1    Res =  0.1793E+02
 MRCHDU: Convergence failed at 102  side 1    Res =  0.2571E+02
 MRCHDU: Convergence failed at 103  side 1    Res =  0.3097E+03
 MRCHDU: Convergence failed at 104  side 1    Res =  0.1476E+03
 MRCHDU: Convergence failed at 105  side 1    Res =  0.6696E+02
 MRCHDU: Convergence failed at 106  side 1    Res =  0.5587E+02
 MRCHDU: Convergence failed at 107  side 1    Res =  0.4722E+02
 MRCHDU: Convergence failed at 108  side 1    Res =  0.4176E+02
 MRCHDU: Convergence failed at 109  side 1    Res =  0.3897E+02
 MRCHDU: Convergence failed at 110  side 1    Res =  0.3783E+02
 MRCHDU: Convergence failed at 111  side 1    Res =  0.3776E+02
 MRCHDU: Convergence failed at 112  side 1    Res =  0.3749E+02
 MRCHDU: Convergence failed at 113  side 1    Res =  0.7309E+02
 MRCHDU: Convergence failed at 114  side 1    Res =  0.8029E+02
 MRCHDU: Convergence failed at 115  side 1    Res =  0.1247E+02
 MRCHDU: Convergence failed at 116  side 1    Res =  0.7869E+01
 MRCHDU: Convergence failed at  45  side 2    Res =  0.5879E+01
 MRCHDU: Convergence failed at  46  side 2    Res =  0.7478E+01
 MRCHDU: Convergence failed at  51  side 2    Res =  0.2559E+00
 MRCHDU: Convergence failed at  52  side 2    Res =  0.2046E+00
 MRCHDU: Convergence failed at  53  side 2    Res =  0.1472E+00
 MRCHDU: Convergence failed at  54  side 2    Res =  0.7277E-01
 Side 1  free  transition at x/c =  0.2800   80
 Side 2 forced transition at x/c =  1.0000   46

   1   rms: 0.1669E+01   max: 0.6075E+01   D at   54  2   RLX: 0.230
       a = 16.250      CL =  4.5633
      Cm = -1.0097     CD =  0.00136   =>   CDf =  0.00528    CDp = -0.00393

 Side 1  free  transition at x/c =  0.2627   78
 Side 2 forced transition at x/c =  1.0000   46

   2   rms: 0.9235E+00   max: 0.2398E+01   D at   54  2   RLX: 0.279
       a = 16.250      CL =  3.9660
      Cm = -0.7431     CD =  0.00340   =>   CDf =  0.01766    CDp = -0.01426

 Side 1  free  transition at x/c =  0.2406   77
 Side 2 forced transition at x/c =  1.0000   46

   3   rms: 0.7608E+00   max: 0.2261E+01   D at   54  2   RLX: 0.365
       a = 16.250      CL =  3.4130
      Cm = -0.5141     CD =  0.00623   =>   CDf =  0.01532    CDp = -0.00908

 MRCHDU: Convergence failed at  77  side 1    Res =  0.3555E+01
 MRCHDU: Convergence failed at  78  side 1    Res =  0.3048E+01
 Side 1  free  transition at x/c =  0.2298   75
 Side 2 forced transition at x/c =  1.0000   46
 idif Ue xi dudx           1  9.90741029E-02  1.10681057E-02   8.9513149    
 Uenew xinew           2  3.78717333E-02  4.23085690E-03

   4   rms: 0.6485E+00   max: 0.1882E+01   D at   56  2   RLX: 0.425
       a = 16.250      CL =  2.8918
      Cm = -0.3283     CD =  0.01188   =>   CDf =  0.01284    CDp = -0.00095

 Side 1  free  transition at x/c =  0.2220   74
 Side 2 forced transition at x/c =  1.0000   47
 idif Ue xi dudx           2  0.13349283      1.41580105E-02   9.4287844    
 Uenew xinew           3  7.13829100E-02  7.57074356E-03

   5   rms: 0.5863E+00   max: 0.1547E+01   D at   58  2   RLX: 0.456
       a = 16.250      CL =  2.3669
      Cm = -0.1834     CD =  0.02164   =>   CDf =  0.01241    CDp =  0.00922

 MRCHDU: Convergence failed at 105  side 1    Res =  0.2158E+01
 MRCHDU: Convergence failed at 106  side 1    Res =  0.2147E+01
 MRCHDU: Convergence failed at 107  side 1    Res =  0.3603E+01
 MRCHDU: Convergence failed at 108  side 1    Res =  0.6317E+01
 MRCHDU: Convergence failed at 109  side 1    Res =  0.1237E+01
 Side 1  free  transition at x/c =  0.2226   72
 Side 2 forced transition at x/c =  1.0000   49
 idif Ue xi dudx           1  7.40560144E-02  7.23099709E-03   10.241467    
 Uenew xinew           2  1.11637078E-02  1.09004974E-03

   6   rms: 0.6144E+00   max: 0.2233E+01   D at  109  1   RLX: 0.254
       a = 16.250      CL =  2.1201
      Cm = -0.1320     CD =  0.02499   =>   CDf =  0.01045    CDp =  0.01454

 Side 1  free  transition at x/c =  0.2232   71
 Side 2 forced transition at x/c =  1.0000   50
 idif Ue xi dudx           1  0.10921782      9.77730751E-03   11.170541    
 Uenew xinew           2  4.28186357E-02  3.83317471E-03

   7   rms: 0.4508E+00   max: 0.1714E+01   D at  108  1   RLX: 0.563
       a = 16.250      CL =  1.7324
      Cm = -0.0489     CD =  0.03827   =>   CDf =  0.00983    CDp =  0.02844

 Side 1  free  transition at x/c =  0.2242   70
 Side 2 forced transition at x/c =  1.0000   51
 idif Ue xi dudx           1  0.12002043      1.03204250E-02   11.629408    
 Uenew xinew           2  5.29828928E-02  4.55594063E-03

   8   rms: 0.2027E+00   max: 0.9421E+00   D at   98  1
       a = 16.250      CL =  1.4482
      Cm =  0.0052     CD =  0.05495   =>   CDf =  0.00892    CDp =  0.04604

 Side 1  free  transition at x/c =  0.2238   69
 Side 2 forced transition at x/c =  1.0000   52

   9   rms: 0.2431E-01   max: 0.2483E+00   D at   93  1
       a = 16.250      CL =  1.4471
      Cm =  0.0031     CD =  0.05639   =>   CDf =  0.00803    CDp =  0.04836

 Side 1  free  transition at x/c =  0.2233   69
 Side 2 forced transition at x/c =  1.0000   52

  10   rms: 0.1581E-02   max: 0.2220E-01   D at   92  1
       a = 16.250      CL =  1.4477
      Cm =  0.0031     CD =  0.05595   =>   CDf =  0.00801    CDp =  0.04794

 Side 1  free  transition at x/c =  0.2233   69
 Side 2 forced transition at x/c =  1.0000   52

  11   rms: 0.5201E-04   max: 0.9359E-03   D at   67  2
       a = 16.250      CL =  1.4477
      Cm =  0.0031     CD =  0.05594   =>   CDf =  0.00801    CDp =  0.04793
 plradd ia,ip,cpol            1           0  8.07262361E-02

 Point added to stored polar  1
 Point written to save file  hs1430_Re300k.ext.pol                           
 Dump file unspecified or not available
 Calculating wake trajectory ...
 Calculating source influence matrix ...

 Solving BL system ...

 Side 1  free  transition at x/c =  0.2233   69
 Side 2 forced transition at x/c =  1.0000   52

   1   rms: 0.2730E-01   max: 0.1111E+00   T at   69  1   RLX: 0.380
       a = 16.500      CL =  1.4573
      Cm =  0.0029     CD =  0.05605   =>   CDf =  0.00802    CDp =  0.04803

 Side 1  free  transition at x/c =  0.2228   69
 Side 2 forced transition at x/c =  1.0000   52

   2   rms: 0.1949E-01   max: 0.7436E-01   T at   69  1
       a = 16.500      CL =  1.4779
      Cm =  0.0021     CD =  0.05584   =>   CDf =  0.00805    CDp =  0.04779

 Side 1  free  transition at x/c =  0.2219   69
 Side 2 forced transition at x/c =  1.0000   52

   3   rms: 0.4776E-02   max: -.2543E-01   D at   92  1
       a = 16.500      CL =  1.4827
      Cm =  0.0017     CD =  0.05553   =>   CDf =  0.00813    CDp =  0.04740

 Side 1  free  transition at x/c =  0.2219   69
 Side 2 forced transition at x/c =  1.0000   52

   4   rms: 0.2496E-03   max: -.1534E-02   D at   67  2
       a = 16.500      CL =  1.4830
      Cm =  0.0017     CD =  0.05558   =>   CDf =  0.00815    CDp =  0.04743

 Side 1  free  transition at x/c =  0.2219   69
 Side 2 forced transition at x/c =  1.0000   52

   5   rms: 0.6424E-05   max: -.4634E-04   C at   52  2
       a = 16.500      CL =  1.4830
      Cm =  0.0017     CD =  0.05558   =>   CDf =  0.00815    CDp =  0.04743
 plradd ia,ip,cpol            2           0  7.45841041E-02

 Point added to stored polar  1
 Point written to save file  hs1430_Re300k.ext.pol                           
 Dump file unspecified or not available
 Calculating wake trajectory ...
 Calculating source influence matrix ...

 Solving BL system ...

 Side 1  free  transition at x/c =  0.2219   69
 Side 2 forced transition at x/c =  1.0000   52

   1   rms: 0.4116E-01   max: 0.1549E+00   T at   69  1   RLX: 0.387
       a = 16.750      CL =  1.5015
      Cm =  0.0008     CD =  0.05512   =>   CDf =  0.00816    CDp =  0.04696

 Side 1  free  transition at x/c =  0.2213   68
 Side 2 forced transition at x/c =  1.0000   52

   2   rms: 0.3367E-01   max: 0.1701E+00   D at   92  1
       a = 16.750      CL =  1.4736
      Cm =  0.0041     CD =  0.05853   =>   CDf =  0.00818    CDp =  0.05035

 Side 1  free  transition at x/c =  0.2200   68
 Side 2 forced transition at x/c =  1.0000   52

   3   rms: 0.2024E-02   max: 0.3221E-01   D at   92  1
       a = 16.750      CL =  1.4736
      Cm =  0.0040     CD =  0.05817   =>   CDf =  0.00797    CDp =  0.05020

 Side 1  free  transition at x/c =  0.2200   68
 Side 2 forced transition at x/c =  1.0000   52

   4   rms: 0.2301E-03   max: -.1606E-02   D at   92  1
       a = 16.750      CL =  1.4739
      Cm =  0.0040     CD =  0.05816   =>   CDf =  0.00797    CDp =  0.05019

 Side 1  free  transition at x/c =  0.2200   68
 Side 2 forced transition at x/c =  1.0000   52

   5   rms: 0.7284E-05   max: -.6200E-04   C at   52  2
       a = 16.750      CL =  1.4739
      Cm =  0.0040     CD =  0.05816   =>   CDf =  0.00797    CDp =  0.05019
 plradd ia,ip,cpol            3           0  7.45841041E-02

 Point added to stored polar  1
 Point written to save file  hs1430_Re300k.ext.pol                           
 Dump file unspecified or not available
 Calculating wake trajectory ...
 Calculating source influence matrix ...

 Solving BL system ...

 Side 1  free  transition at x/c =  0.2200   68
 Side 2 forced transition at x/c =  1.0000   52

   1   rms: 0.2490E-01   max: 0.1246E+00   T at   68  1   RLX: 0.361
       a = 17.000      CL =  1.4726
      Cm =  0.0046     CD =  0.05909   =>   CDf =  0.00797    CDp =  0.05112

 Side 1  free  transition at x/c =  0.2192   68
 Side 2 forced transition at x/c =  1.0000   52

   2   rms: 0.1456E-01   max: 0.7189E-01   T at   68  1
       a = 17.000      CL =  1.4746
      Cm =  0.0053     CD =  0.06031   =>   CDf =  0.00792    CDp =  0.05239

 Side 1  free  transition at x/c =  0.2180   68
 Side 2 forced transition at x/c =  1.0000   52

   3   rms: 0.1979E-02   max: -.1160E-01   D at   69  1
       a = 17.000      CL =  1.4756
      Cm =  0.0053     CD =  0.06005   =>   CDf =  0.00787    CDp =  0.05219

 Side 1  free  transition at x/c =  0.2181   68
 Side 2 forced transition at x/c =  1.0000   52

   4   rms: 0.2634E-03   max: -.1231E-02   D at   91  1
       a = 17.000      CL =  1.4759
      Cm =  0.0052     CD =  0.06006   =>   CDf =  0.00787    CDp =  0.05219

 Side 1  free  transition at x/c =  0.2181   68
 Side 2 forced transition at x/c =  1.0000   52

   5   rms: 0.9251E-05   max: -.7287E-04   D at   67  2
       a = 17.000      CL =  1.4759
      Cm =  0.0052     CD =  0.06006   =>   CDf =  0.00787    CDp =  0.05219
 plradd ia,ip,cpol            4           0  7.45841041E-02

 Point added to stored polar  1
 Point written to save file  hs1430_Re300k.ext.pol                           
 Dump file unspecified or not available
 Calculating wake trajectory ...
 Calculating source influence matrix ...

 Solving BL system ...

 Side 1  free  transition at x/c =  0.2181   68
 Side 2 forced transition at x/c =  1.0000   52

   1   rms: 0.2256E-01   max: 0.1034E+00   T at   68  1   RLX: 0.356
       a = 17.250      CL =  1.4786
      Cm =  0.0055     CD =  0.06069   =>   CDf =  0.00788    CDp =  0.05281

 Side 1  free  transition at x/c =  0.2175   68
 Side 2 forced transition at x/c =  1.0000   52

   2   rms: 0.1447E-01   max: 0.6372E-01   T at   68  1
       a = 17.250      CL =  1.4856
      Cm =  0.0058     CD =  0.06157   =>   CDf =  0.00762    CDp =  0.05394

 Side 1  free  transition at x/c =  0.2164   69
 Side 2 forced transition at x/c =  1.0000   51

   3   rms: 0.2517E-02   max: -.1373E-01   D at   92  1
       a = 17.250      CL =  1.4869
      Cm =  0.0057     CD =  0.06130   =>   CDf =  0.00784    CDp =  0.05345

 Side 1  free  transition at x/c =  0.2165   69
 Side 2 forced transition at x/c =  1.0000   51

   4   rms: 0.4425E-03   max: -.3923E-02   D at    4  1
       a = 17.250      CL =  1.4873
      Cm =  0.0057     CD =  0.06131   =>   CDf =  0.00784    CDp =  0.05346

 Side 1  free  transition at x/c =  0.2165   69
 Side 2 forced transition at x/c =  1.0000   51

   5   rms: 0.9979E-05   max: -.7588E-04   D at   66  2
       a = 17.250      CL =  1.4873
      Cm =  0.0057     CD =  0.06131   =>   CDf =  0.00785    CDp =  0.05347
 plradd ia,ip,cpol            5           0  7.45841041E-02

 Point added to stored polar  1
 Point written to save file  hs1430_Re300k.ext.pol                           
 Dump file unspecified or not available
 Calculating wake trajectory ...
 Calculating source influence matrix ...

 Solving BL system ...

 Side 1  free  transition at x/c =  0.2165   69
 Side 2 forced transition at x/c =  1.0000   51

   1   rms: 0.2394E-01   max: 0.1007E+00   T at   69  1   RLX: 0.353
       a = 17.500      CL =  1.4933
      Cm =  0.0057     CD =  0.06165   =>   CDf =  0.00785    CDp =  0.05379

 Side 1  free  transition at x/c =  0.2160   69
 Side 2 forced transition at x/c =  1.0000   51

   2   rms: 0.1688E-01   max: 0.6592E-01   T at   69  1
       a = 17.500      CL =  1.5085
      Cm =  0.0054     CD =  0.06187   =>   CDf =  0.00786    CDp =  0.05401

 Side 1  free  transition at x/c =  0.2151   69
 Side 2 forced transition at x/c =  1.0000   51

   3   rms: 0.3265E-02   max: -.1872E-01   D at   92  1
       a = 17.500      CL =  1.5109
      Cm =  0.0053     CD =  0.06161   =>   CDf =  0.00790    CDp =  0.05371

 Side 1  free  transition at x/c =  0.2151   69
 Side 2 forced transition at x/c =  1.0000   51

   4   rms: 0.3880E-03   max: -.1650E-02   D at   92  1
       a = 17.500      CL =  1.5113
      Cm =  0.0052     CD =  0.06163   =>   CDf =  0.00791    CDp =  0.05372

 Side 1  free  transition at x/c =  0.2151   69
 Side 2 forced transition at x/c =  1.0000   51

   5   rms: 0.1370E-04   max: -.1082E-03   D at   66  2
       a = 17.500      CL =  1.5113
      Cm =  0.0052     CD =  0.06164   =>   CDf =  0.00791    CDp =  0.05373
 plradd ia,ip,cpol            6           0  6.86333627E-02

 Point added to stored polar  1
 Point written to save file  hs1430_Re300k.ext.pol                           
 Dump file unspecified or not available
 Calculating wake trajectory ...
 Calculating source influence matrix ...

 Solving BL system ...

 Side 1  free  transition at x/c =  0.2151   69
 Side 2 forced transition at x/c =  1.0000   51

   1   rms: 0.2976E-01   max: 0.1123E+00   T at   69  1   RLX: 0.354
       a = 17.750      CL =  1.5220
      Cm =  0.0049     CD =  0.06159   =>   CDf =  0.00792    CDp =  0.05367

 Side 1  free  transition at x/c =  0.2146   69
 Side 2 forced transition at x/c =  1.0000   51

   2   rms: 0.2261E-01   max: 0.7857E-01   T at   69  1
       a = 17.750      CL =  1.5473
      Cm =  0.0039     CD =  0.06104   =>   CDf =  0.00796    CDp =  0.05309

 Side 1  free  transition at x/c =  0.2138   69
 Side 2 forced transition at x/c =  1.0000   51

   3   rms: 0.5898E-02   max: -.2693E-01   D at   93  1
       a = 17.750      CL =  1.5535
      Cm =  0.0034     CD =  0.06064   =>   CDf =  0.00805    CDp =  0.05259

 Side 1  free  transition at x/c =  0.2138   68
 Side 2 forced transition at x/c =  1.0000   51

   4   rms: 0.3104E-02   max: 0.1614E-01   D at   92  1
       a = 17.750      CL =  1.5503
      Cm =  0.0036     CD =  0.06103   =>   CDf =  0.00808    CDp =  0.05295

 Side 1  free  transition at x/c =  0.2138   68
 Side 2 forced transition at x/c =  1.0000   51

   5   rms: 0.1771E-03   max: 0.1064E-02   D at   66  2
       a = 17.750      CL =  1.5501
      Cm =  0.0037     CD =  0.06099   =>   CDf =  0.00806    CDp =  0.05293

 Side 1  free  transition at x/c =  0.2138   68
 Side 2 forced transition at x/c =  1.0000   51

   6   rms: 0.3882E-05   max: 0.3635E-04   D at   66  2
       a = 17.750      CL =  1.5501
      Cm =  0.0037     CD =  0.06099   =>   CDf =  0.00806    CDp =  0.05293
 plradd ia,ip,cpol            7           0  6.86333627E-02

 Point added to stored polar  1
 Point written to save file  hs1430_Re300k.ext.pol                           
 Dump file unspecified or not available
 Calculating wake trajectory ...
 Calculating source influence matrix ...

 Solving BL system ...

 Side 1  free  transition at x/c =  0.2138   68
 Side 2 forced transition at x/c =  1.0000   51

   1   rms: 0.4074E-01   max: 0.1983E+00   D at   90  1   RLX: 0.340
       a = 18.000      CL =  1.5391
      Cm =  0.0049     CD =  0.06267   =>   CDf =  0.00807    CDp =  0.05460

 Side 1  free  transition at x/c =  0.2131   68
 Side 2 forced transition at x/c =  1.0000   51

   2   rms: 0.2258E-01   max: 0.1094E+00   D at   90  1
       a = 18.000      CL =  1.5239
      Cm =  0.0067     CD =  0.06536   =>   CDf =  0.00795    CDp =  0.05741

 Side 1  free  transition at x/c =  0.2117   68
 Side 2 forced transition at x/c =  1.0000   51

   3   rms: 0.5107E-02   max: -.2777E-01   D at   92  1
       a = 18.000      CL =  1.5283
      Cm =  0.0064     CD =  0.06461   =>   CDf =  0.00779    CDp =  0.05682

 Side 1  free  transition at x/c =  0.2118   68
 Side 2 forced transition at x/c =  1.0000   51

   4   rms: 0.4795E-03   max: -.2121E-02   D at   66  2
       a = 18.000      CL =  1.5289
      Cm =  0.0063     CD =  0.06466   =>   CDf =  0.00781    CDp =  0.05686

 Side 1  free  transition at x/c =  0.2118   68
 Side 2 forced transition at x/c =  1.0000   51

   5   rms: 0.1450E-04   max: -.1143E-03   D at   66  2
       a = 18.000      CL =  1.5289
      Cm =  0.0063     CD =  0.06467   =>   CDf =  0.00781    CDp =  0.05686
 plradd ia,ip,cpol            8           0  6.86333627E-02

 Point added to stored polar  1
 Point written to save file  hs1430_Re300k.ext.pol                           
 Dump file unspecified or not available

.OPERva   c>   Calculating wake trajectory ...
 Calculating source influence matrix ...

 Solving BL system ...

 Side 1  free  transition at x/c =  0.2118   68
 Side 2 forced transition at x/c =  1.0000   51

   1   rms: 0.2503E-01   max: 0.1255E+00   T at   68  1   RLX: 0.334
       a = 18.250      CL =  1.5272
      Cm =  0.0067     CD =  0.06567   =>   CDf =  0.00782    CDp =  0.05785

 Side 1  free  transition at x/c =  0.2112   68
 Side 2 forced transition at x/c =  1.0000   51

   2   rms: 0.1507E-01   max: 0.7588E-01   T at   68  1
       a = 18.250      CL =  1.5286
      Cm =  0.0073     CD =  0.06711   =>   CDf =  0.00751    CDp =  0.05960

 Side 1  free  transition at x/c =  0.2100   69
 Side 2 forced transition at x/c =  1.0000   50

   3   rms: 0.2371E-02   max: -.1245E-01   D at   70  1
       a = 18.250      CL =  1.5299
      Cm =  0.0072     CD =  0.06676   =>   CDf =  0.00771    CDp =  0.05905

 Side 1  free  transition at x/c =  0.2100   69
 Side 2 forced transition at x/c =  1.0000   50

   4   rms: 0.3541E-03   max: -.1498E-02   D at   92  1
       a = 18.250      CL =  1.5303
      Cm =  0.0072     CD =  0.06677   =>   CDf =  0.00771    CDp =  0.05906

 Side 1  free  transition at x/c =  0.2100   69
 Side 2 forced transition at x/c =  1.0000   50

   5   rms: 0.1384E-04   max: -.9935E-04   D at   65  2
       a = 18.250      CL =  1.5303
      Cm =  0.0072     CD =  0.06677   =>   CDf =  0.00771    CDp =  0.05906
 plradd ia,ip,cpol            9           0  6.28934950E-02

 Point added to stored polar  1
 Point written to save file  hs1430_Re300k.ext.pol                           
 Dump file unspecified or not available
 Calculating wake trajectory ...
 Calculating source influence matrix ...

 Solving BL system ...

 Side 1  free  transition at x/c =  0.2100   69
 Side 2 forced transition at x/c =  1.0000   50

   1   rms: 0.4450E-01   max: 0.2135E+00   T at   69  1   RLX: 0.325
       a = 18.750      CL =  1.5356
      Cm =  0.0075     CD =  0.06796   =>   CDf =  0.00773    CDp =  0.06023

 Side 1  free  transition at x/c =  0.2090   69
 Side 2 forced transition at x/c =  1.0000   50

   2   rms: 0.3170E-01   max: 0.1332E+00   T at   69  1
       a = 18.750      CL =  1.5589
      Cm =  0.0073     CD =  0.06914   =>   CDf =  0.00770    CDp =  0.06144

 Side 1  free  transition at x/c =  0.2072   69
 Side 2 forced transition at x/c =  1.0000   50

   3   rms: 0.1350E-01   max: -.7464E-01   D at   92  1
       a = 18.750      CL =  1.5706
      Cm =  0.0066     CD =  0.06772   =>   CDf =  0.00775    CDp =  0.05997

 Side 1  free  transition at x/c =  0.2073   69
 Side 2 forced transition at x/c =  1.0000   50

   4   rms: 0.1820E-02   max: -.8310E-02   D at   92  1
       a = 18.750      CL =  1.5728
      Cm =  0.0065     CD =  0.06783   =>   CDf =  0.00778    CDp =  0.06005

 Side 1  free  transition at x/c =  0.2073   69
 Side 2 forced transition at x/c =  1.0000   50

   5   rms: 0.7644E-04   max: -.5343E-03   D at   65  2
       a = 18.750      CL =  1.5729
      Cm =  0.0065     CD =  0.06785   =>   CDf =  0.00779    CDp =  0.06006
 plradd ia,ip,cpol           10           0  6.28934950E-02

 Point added to stored polar  1
 Point written to save file  hs1430_Re300k.ext.pol                           
 Dump file unspecified or not available
 Calculating wake trajectory ...
 Calculating source influence matrix ...

 Solving BL system ...

 Side 1  free  transition at x/c =  0.2073   69
 Side 2 forced transition at x/c =  1.0000   50

   1   rms: 0.6879E-01   max: 0.2306E+00   T at   69  1   RLX: 0.333
       a = 19.250      CL =  1.5982
      Cm =  0.0056     CD =  0.06725   =>   CDf =  0.00780    CDp =  0.05945

 Side 1  free  transition at x/c =  0.2066   69
 Side 2 forced transition at x/c =  1.0000   50

   2   rms: 0.6644E-01   max: 0.1930E+00   T at   69  1
       a = 19.250      CL =  1.6790
      Cm =  0.0017     CD =  0.06383   =>   CDf =  0.00762    CDp =  0.05621

 Side 1  free  transition at x/c =  0.2050   69
 Side 2 forced transition at x/c =  1.0000   49
 idif Ue xi dudx           1  6.50925115E-02  6.27279282E-03   10.376959    
 Uenew xinew           2  1.36815500E-03  1.31845474E-04

   3   rms: 0.9850E-01   max: 0.5066E+00   D at   95  1
       a = 19.250      CL =  1.5746
      Cm =  0.0081     CD =  0.07378   =>   CDf =  0.00822    CDp =  0.06556

 Side 1  free  transition at x/c =  0.2042   68
 Side 2 forced transition at x/c =  1.0000   50

   4   rms: 0.1941E-01   max: 0.1713E+00   D at   92  1
       a = 19.250      CL =  1.5616
      Cm =  0.0085     CD =  0.07378   =>   CDf =  0.00758    CDp =  0.06620

 Side 1  free  transition at x/c =  0.2039   68
 Side 2 forced transition at x/c =  1.0000   50

   5   rms: 0.9593E-03   max: -.1093E-01   D at   92  1
       a = 19.250      CL =  1.5616
      Cm =  0.0086     CD =  0.07337   =>   CDf =  0.00752    CDp =  0.06585

 Side 1  free  transition at x/c =  0.2039   68
 Side 2 forced transition at x/c =  1.0000   50

   6   rms: 0.2776E-04   max: 0.3825E-03   D at   91  1
       a = 19.250      CL =  1.5616
      Cm =  0.0086     CD =  0.07338   =>   CDf =  0.00752    CDp =  0.06586
 plradd ia,ip,cpol           11           0  6.28934950E-02

 Point added to stored polar  1
 Point written to save file  hs1430_Re300k.ext.pol                           
 Dump file unspecified or not available
 Calculating wake trajectory ...
 Calculating source influence matrix ...

 Solving BL system ...

 Side 1  free  transition at x/c =  0.2039   68
 Side 2 forced transition at x/c =  1.0000   50

   1   rms: 0.5237E-01   max: 0.2519E+00   D at   89  1   RLX: 0.299
       a = 19.750      CL =  1.5558
      Cm =  0.0092     CD =  0.07564   =>   CDf =  0.00753    CDp =  0.06811

 Side 1  free  transition at x/c =  0.2028   68
 Side 2 forced transition at x/c =  1.0000   50

   2   rms: 0.3012E-01   max: 0.1477E+00   T at   68  1
       a = 19.750      CL =  1.5658
      Cm =  0.0094     CD =  0.07822   =>   CDf =  0.00718    CDp =  0.07104

 Side 1  free  transition at x/c =  0.2006   69
 Side 2 forced transition at x/c =  1.0000   49

   3   rms: 0.1624E-01   max: -.8193E-01   D at   92  1
       a = 19.750      CL =  1.5772
      Cm =  0.0090     CD =  0.07622   =>   CDf =  0.00742    CDp =  0.06879

 Side 1  free  transition at x/c =  0.2009   69
 Side 2 forced transition at x/c =  1.0000   49

   4   rms: 0.2265E-02   max: -.9402E-02   D at   92  1
       a = 19.750      CL =  1.5798
      Cm =  0.0088     CD =  0.07644   =>   CDf =  0.00745    CDp =  0.06899

 Side 1  free  transition at x/c =  0.2009   69
 Side 2 forced transition at x/c =  1.0000   49

   5   rms: 0.1465E-03   max: -.9526E-03   D at   65  2
       a = 19.750      CL =  1.5800
      Cm =  0.0088     CD =  0.07647   =>   CDf =  0.00746    CDp =  0.06901

 Side 1  free  transition at x/c =  0.2009   69
 Side 2 forced transition at x/c =  1.0000   49

   6   rms: 0.7856E-05   max: -.4628E-04   D at   65  2
       a = 19.750      CL =  1.5800
      Cm =  0.0088     CD =  0.07647   =>   CDf =  0.00746    CDp =  0.06901
 plradd ia,ip,cpol           12           0  5.73856197E-02

 Point added to stored polar  1
 Point written to save file  hs1430_Re300k.ext.pol                           
 Dump file unspecified or not available
 Calculating wake trajectory ...
 Calculating source influence matrix ...

 Solving BL system ...

 Side 1  free  transition at x/c =  0.2009   69
 Side 2 forced transition at x/c =  1.0000   49

   1   rms: 0.5286E-01   max: 0.2082E+00   T at   69  1   RLX: 0.302
       a = 20.250      CL =  1.5943
      Cm =  0.0084     CD =  0.07665   =>   CDf =  0.00748    CDp =  0.06917

 Side 1  free  transition at x/c =  0.2002   69
 Side 2 forced transition at x/c =  1.0000   49

   2   rms: 0.4606E-01   max: 0.1504E+00   T at   69  1
       a = 20.250      CL =  1.6442
      Cm =  0.0069     CD =  0.07534   =>   CDf =  0.00723    CDp =  0.06811

 Side 1  free  transition at x/c =  0.1990   69
 Side 2 forced transition at x/c =  1.0000   48
 idif Ue xi dudx           1  8.96704495E-02  8.93068314E-03   10.040715    
 Uenew xinew           2  2.58588325E-02  2.57539749E-03

   3   rms: 0.8625E-01   max: 0.3733E+00   D at   93  1
       a = 20.250      CL =  1.5518
      Cm =  0.0105     CD =  0.08576   =>   CDf =  0.00785    CDp =  0.07790

 Side 1  free  transition at x/c =  0.1975   68
 Side 2 forced transition at x/c =  1.0000   49

   4   rms: 0.6377E-02   max: 0.1021E+00   D at   91  1
       a = 20.250      CL =  1.5509
      Cm =  0.0104     CD =  0.08415   =>   CDf =  0.00714    CDp =  0.07701

 Side 1  free  transition at x/c =  0.1974   68
 Side 2 forced transition at x/c =  1.0000   49

   5   rms: 0.9846E-03   max: -.7962E-02   D at   91  1
       a = 20.250      CL =  1.5520
      Cm =  0.0104     CD =  0.08400   =>   CDf =  0.00713    CDp =  0.07687

 Side 1  free  transition at x/c =  0.1974   68
 Side 2 forced transition at x/c =  1.0000   49

   6   rms: 0.6817E-04   max: -.4027E-03   D at   65  2
       a = 20.250      CL =  1.5521
      Cm =  0.0104     CD =  0.08401   =>   CDf =  0.00713    CDp =  0.07688
 plradd ia,ip,cpol           13           0  5.73856197E-02

 Point added to stored polar  1
 Point written to save file  hs1430_Re300k.ext.pol                           
 Dump file unspecified or not available
 Calculating wake trajectory ...
 Calculating source influence matrix ...

 Solving BL system ...

 Side 1  free  transition at x/c =  0.1974   68
 Side 2 forced transition at x/c =  1.0000   49

   1   rms: 0.7677E-01   max: 0.4052E+00   D at   88  1   RLX: 0.270
       a = 20.750      CL =  1.5365
      Cm =  0.0108     CD =  0.08759   =>   CDf =  0.00715    CDp =  0.08044

 Side 1  free  transition at x/c =  0.1961   68
 Side 2 forced transition at x/c =  1.0000   49

   2   rms: 0.3642E-01   max: 0.1790E+00   D at   88  1
       a = 20.750      CL =  1.5237
      Cm =  0.0109     CD =  0.09326   =>   CDf =  0.00702    CDp =  0.08624

 Side 1  free  transition at x/c =  0.1936   68
 Side 2 forced transition at x/c =  1.0000   49

   3   rms: 0.2604E-01   max: -.1278E+00   D at   90  1
       a = 20.750      CL =  1.5447
      Cm =  0.0107     CD =  0.08875   =>   CDf =  0.00691    CDp =  0.08184

 Side 1  free  transition at x/c =  0.1942   68
 Side 2 forced transition at x/c =  1.0000   49

   4   rms: 0.3427E-02   max: -.1639E-01   D at   66  2
       a = 20.750      CL =  1.5485
      Cm =  0.0104     CD =  0.08940   =>   CDf =  0.00696    CDp =  0.08244

 Side 1  free  transition at x/c =  0.1942   68
 Side 2 forced transition at x/c =  1.0000   49

   5   rms: 0.2954E-03   max: -.1890E-02   D at   66  2
       a = 20.750      CL =  1.5488
      Cm =  0.0104     CD =  0.08946   =>   CDf =  0.00697    CDp =  0.08249

 Side 1  free  transition at x/c =  0.1942   68
 Side 2 forced transition at x/c =  1.0000   49

   6   rms: 0.1575E-04   max: -.1155E-03   D at   66  2
       a = 20.750      CL =  1.5488
      Cm =  0.0104     CD =  0.08946   =>   CDf =  0.00697    CDp =  0.08249
 plradd ia,ip,cpol           14           0  5.73856197E-02

 Point added to stored polar  1
 Point written to save file  hs1430_Re300k.ext.pol                           
 Dump file unspecified or not available
 Calculating wake trajectory ...
 Calculating source influence matrix ...

 Solving BL system ...

 Side 1  free  transition at x/c =  0.1942   68
 Side 2 forced transition at x/c =  1.0000   49

   1   rms: 0.4853E-01   max: 0.1811E+00   T at   68  1   RLX: 0.274
       a = 21.250      CL =  1.5593
      Cm =  0.0101     CD =  0.08986   =>   CDf =  0.00671    CDp =  0.08315

 Side 1  free  transition at x/c =  0.1936   69
 Side 2 forced transition at x/c =  1.0000   48

   2   rms: 0.4486E-01   max: 0.2933E+00   T at    2  1
       a = 21.250      CL =  1.5994
      Cm =  0.0091     CD =  0.08931   =>   CDf =  0.00701    CDp =  0.08230

 Side 1  free  transition at x/c =  0.1924   68
 Side 2 forced transition at x/c =  1.0000   48
 idif Ue xi dudx           1  0.11610550      1.16840601E-02   9.9370852    
 Uenew xinew           2  5.29524870E-02  5.32877445E-03

   3   rms: 0.2430E+00   max: 0.1019E+01   D at   90  1
       a = 21.250      CL =  1.3465
      Cm =  0.0116     CD =  0.12713   =>   CDf =  0.00729    CDp =  0.11984

 MRCHDU: Convergence failed at  85  side 1    Res =  0.1578E+01
 MRCHDU: Convergence failed at  86  side 1    Res =  0.4029E+02
 MRCHDU: Convergence failed at  87  side 1    Res =  0.9617E+00
 Side 1  free  transition at x/c =  0.1873   67
 Side 2 forced transition at x/c =  1.0000   49

   4   rms: 0.7612E-01   max: 0.4269E+00   D at   87  1
       a = 21.250      CL =  1.4235
      Cm =  0.0114     CD =  0.10519   =>   CDf =  0.00615    CDp =  0.09904

 Side 1  free  transition at x/c =  0.1886   67
 Side 2 forced transition at x/c =  1.0000   49

   5   rms: 0.3166E-01   max: -.1461E+00   D at   84  1
       a = 21.250      CL =  1.4587
      Cm =  0.0106     CD =  0.10381   =>   CDf =  0.00631    CDp =  0.09749

 Side 1  free  transition at x/c =  0.1892   67
 Side 2 forced transition at x/c =  1.0000   49

   6   rms: 0.3644E-02   max: -.2294E-01   D at   84  1
       a = 21.250      CL =  1.4625
      Cm =  0.0103     CD =  0.10444   =>   CDf =  0.00639    CDp =  0.09804

 Side 1  free  transition at x/c =  0.1892   67
 Side 2 forced transition at x/c =  1.0000   49

   7   rms: 0.3719E-03   max: -.1779E-02   D at   66  2
       a = 21.250      CL =  1.4629
      Cm =  0.0103     CD =  0.10450   =>   CDf =  0.00640    CDp =  0.09809

 Side 1  free  transition at x/c =  0.1892   67
 Side 2 forced transition at x/c =  1.0000   49

   8   rms: 0.3218E-04   max: -.1637E-03   D at   66  2
       a = 21.250      CL =  1.4629
      Cm =  0.0103     CD =  0.10450   =>   CDf =  0.00640    CDp =  0.09810
 plradd ia,ip,cpol           15           0  5.21243922E-02

 Point added to stored polar  1
 Point written to save file  hs1430_Re300k.ext.pol                           
 Dump file unspecified or not available
 Calculating wake trajectory ...
 Calculating source influence matrix ...

 Solving BL system ...

 Side 1  free  transition at x/c =  0.1892   67
 Side 2 forced transition at x/c =  1.0000   49

   1   rms: 0.5583E-01   max: 0.2961E+00   D at   85  1   RLX: 0.246
       a = 21.750      CL =  1.4570
      Cm =  0.0097     CD =  0.10723   =>   CDf =  0.00642    CDp =  0.10081

 Side 1  free  transition at x/c =  0.1883   67
 Side 2 forced transition at x/c =  1.0000   49

   2   rms: 0.3161E-01   max: 0.1218E+00   T at   67  1
       a = 21.750      CL =  1.4722
      Cm =  0.0085     CD =  0.11000   =>   CDf =  0.00612    CDp =  0.10387

 Side 1  free  transition at x/c =  0.1866   67
 Side 2 forced transition at x/c =  1.0000   48

   3   rms: 0.5688E-01   max: -.2654E+00   D at   85  1
       a = 21.750      CL =  1.5280
      Cm =  0.0095     CD =  0.10059   =>   CDf =  0.00633    CDp =  0.09427

 Side 1  free  transition at x/c =  0.1888   68
 Side 2 forced transition at x/c =  1.0000   48

   4   rms: 0.7032E-01   max: 0.4028E+00   D at   89  1
       a = 21.750      CL =  1.4786
      Cm =  0.0082     CD =  0.11135   =>   CDf =  0.00642    CDp =  0.10492

 Side 1  free  transition at x/c =  0.1869   67
 Side 2 forced transition at x/c =  1.0000   48

   5   rms: 0.4540E-01   max: -.2251E+00   D at   85  1
       a = 21.750      CL =  1.5228
      Cm =  0.0093     CD =  0.10161   =>   CDf =  0.00634    CDp =  0.09527

 Side 1  free  transition at x/c =  0.1885   68
 Side 2 forced transition at x/c =  1.0000   48

   6   rms: 0.5915E-01   max: 0.3300E+00   D at   88  1
       a = 21.750      CL =  1.4830
      Cm =  0.0083     CD =  0.11046   =>   CDf =  0.00641    CDp =  0.10405

 Side 1  free  transition at x/c =  0.1869   67
 Side 2 forced transition at x/c =  1.0000   48

   7   rms: 0.4325E-01   max: -.2119E+00   D at   85  1
       a = 21.750      CL =  1.5250
      Cm =  0.0093     CD =  0.10145   =>   CDf =  0.00636    CDp =  0.09509

 Side 1  free  transition at x/c =  0.1885   68
 Side 2 forced transition at x/c =  1.0000   48

   8   rms: 0.6245E-01   max: 0.3492E+00   D at   89  1
       a = 21.750      CL =  1.4821
      Cm =  0.0082     CD =  0.11072   =>   CDf =  0.00642    CDp =  0.10430

 Side 1  free  transition at x/c =  0.1869   67
 Side 2 forced transition at x/c =  1.0000   48

   9   rms: 0.4350E-01   max: -.2144E+00   D at   85  1
       a = 21.750      CL =  1.5244
      Cm =  0.0093     CD =  0.10150   =>   CDf =  0.00635    CDp =  0.09515

 Side 1  free  transition at x/c =  0.1885   68
 Side 2 forced transition at x/c =  1.0000   48

  10   rms: 0.6154E-01   max: 0.3432E+00   D at   89  1
       a = 21.750      CL =  1.4823
      Cm =  0.0083     CD =  0.11064   =>   CDf =  0.00642    CDp =  0.10423

 Side 1  free  transition at x/c =  0.1869   67
 Side 2 forced transition at x/c =  1.0000   48

  11   rms: 0.4344E-01   max: -.2137E+00   D at   85  1
       a = 21.750      CL =  1.5246
      Cm =  0.0093     CD =  0.10149   =>   CDf =  0.00635    CDp =  0.09513

 Side 1  free  transition at x/c =  0.1885   68
 Side 2 forced transition at x/c =  1.0000   48

  12   rms: 0.6179E-01   max: 0.3448E+00   D at   89  1
       a = 21.750      CL =  1.4822
      Cm =  0.0083     CD =  0.11067   =>   CDf =  0.00642    CDp =  0.10425

 Side 1  free  transition at x/c =  0.1869   67
 Side 2 forced transition at x/c =  1.0000   48

  13   rms: 0.4346E-01   max: -.2138E+00   D at   85  1
       a = 21.750      CL =  1.5245
      Cm =  0.0093     CD =  0.10149   =>   CDf =  0.00635    CDp =  0.09514

 Side 1  free  transition at x/c =  0.1885   68
 Side 2 forced transition at x/c =  1.0000   48

  14   rms: 0.6170E-01   max: 0.3443E+00   D at   89  1
       a = 21.750      CL =  1.4823
      Cm =  0.0083     CD =  0.11066   =>   CDf =  0.00642    CDp =  0.10424

 Side 1  free  transition at x/c =  0.1869   67
 Side 2 forced transition at x/c =  1.0000   48

  15   rms: 0.4347E-01   max: -.2139E+00   D at   85  1
       a = 21.750      CL =  1.5246
      Cm =  0.0093     CD =  0.10150   =>   CDf =  0.00635    CDp =  0.09515

 Side 1  free  transition at x/c =  0.1885   68
 Side 2 forced transition at x/c =  1.0000   48

  16   rms: 0.6176E-01   max: 0.3445E+00   D at   89  1
       a = 21.750      CL =  1.4823
      Cm =  0.0083     CD =  0.11066   =>   CDf =  0.00642    CDp =  0.10425

 Side 1  free  transition at x/c =  0.1869   67
 Side 2 forced transition at x/c =  1.0000   48

  17   rms: 0.4344E-01   max: -.2137E+00   D at   85  1
       a = 21.750      CL =  1.5245
      Cm =  0.0093     CD =  0.10149   =>   CDf =  0.00635    CDp =  0.09514

 Side 1  free  transition at x/c =  0.1885   68
 Side 2 forced transition at x/c =  1.0000   48

  18   rms: 0.6172E-01   max: 0.3444E+00   D at   89  1
       a = 21.750      CL =  1.4823
      Cm =  0.0083     CD =  0.11066   =>   CDf =  0.00642    CDp =  0.10424

 Side 1  free  transition at x/c =  0.1869   67
 Side 2 forced transition at x/c =  1.0000   48

  19   rms: 0.4348E-01   max: -.2139E+00   D at   85  1
       a = 21.750      CL =  1.5246
      Cm =  0.0093     CD =  0.10150   =>   CDf =  0.00635    CDp =  0.09515

 Side 1  free  transition at x/c =  0.1885   68
 Side 2 forced transition at x/c =  1.0000   48

  20   rms: 0.6177E-01   max: 0.3446E+00   D at   89  1
       a = 21.750      CL =  1.4823
      Cm =  0.0083     CD =  0.11066   =>   CDf =  0.00642    CDp =  0.10425

 Side 1  free  transition at x/c =  0.1869   67
 Side 2 forced transition at x/c =  1.0000   48

  21   rms: 0.4346E-01   max: -.2138E+00   D at   85  1
       a = 21.750      CL =  1.5246
      Cm =  0.0093     CD =  0.10150   =>   CDf =  0.00635    CDp =  0.09514

 Side 1  free  transition at x/c =  0.1885   68
 Side 2 forced transition at x/c =  1.0000   48

  22   rms: 0.6174E-01   max: 0.3444E+00   D at   89  1
       a = 21.750      CL =  1.4823
      Cm =  0.0083     CD =  0.11066   =>   CDf =  0.00642    CDp =  0.10424

 Side 1  free  transition at x/c =  0.1869   67
 Side 2 forced transition at x/c =  1.0000   48

  23   rms: 0.4346E-01   max: -.2138E+00   D at   85  1
       a = 21.750      CL =  1.5246
      Cm =  0.0093     CD =  0.10149   =>   CDf =  0.00635    CDp =  0.09514

 Side 1  free  transition at x/c =  0.1885   68
 Side 2 forced transition at x/c =  1.0000   48

  24   rms: 0.6173E-01   max: 0.3444E+00   D at   89  1
       a = 21.750      CL =  1.4823
      Cm =  0.0083     CD =  0.11066   =>   CDf =  0.00642    CDp =  0.10424

 Side 1  free  transition at x/c =  0.1869   67
 Side 2 forced transition at x/c =  1.0000   48

  25   rms: 0.4345E-01   max: -.2138E+00   D at   85  1
       a = 21.750      CL =  1.5245
      Cm =  0.0093     CD =  0.10150   =>   CDf =  0.00635    CDp =  0.09514

 Side 1  free  transition at x/c =  0.1885   68
 Side 2 forced transition at x/c =  1.0000   48

  26   rms: 0.6172E-01   max: 0.3443E+00   D at   89  1
       a = 21.750      CL =  1.4823
      Cm =  0.0083     CD =  0.11066   =>   CDf =  0.00642    CDp =  0.10424

 Side 1  free  transition at x/c =  0.1869   67
 Side 2 forced transition at x/c =  1.0000   48

  27   rms: 0.4345E-01   max: -.2138E+00   D at   85  1
       a = 21.750      CL =  1.5246
      Cm =  0.0093     CD =  0.10149   =>   CDf =  0.00635    CDp =  0.09514

 Side 1  free  transition at x/c =  0.1885   68
 Side 2 forced transition at x/c =  1.0000   48

  28   rms: 0.6173E-01   max: 0.3444E+00   D at   89  1
       a = 21.750      CL =  1.4823
      Cm =  0.0083     CD =  0.11066   =>   CDf =  0.00642    CDp =  0.10424

 Side 1  free  transition at x/c =  0.1869   67
 Side 2 forced transition at x/c =  1.0000   48

  29   rms: 0.4346E-01   max: -.2138E+00   D at   85  1
       a = 21.750      CL =  1.5246
      Cm =  0.0093     CD =  0.10150   =>   CDf =  0.00635    CDp =  0.09514

 Side 1  free  transition at x/c =  0.1885   68
 Side 2 forced transition at x/c =  1.0000   48

  30   rms: 0.6173E-01   max: 0.3444E+00   D at   89  1
       a = 21.750      CL =  1.4823
      Cm =  0.0083     CD =  0.11066   =>   CDf =  0.00642    CDp =  0.10424

 Side 1  free  transition at x/c =  0.1869   67
 Side 2 forced transition at x/c =  1.0000   48

  31   rms: 0.4343E-01   max: -.2137E+00   D at   85  1
       a = 21.750      CL =  1.5245
      Cm =  0.0093     CD =  0.10149   =>   CDf =  0.00635    CDp =  0.09514

 Side 1  free  transition at x/c =  0.1885   68
 Side 2 forced transition at x/c =  1.0000   48

  32   rms: 0.6169E-01   max: 0.3442E+00   D at   89  1
       a = 21.750      CL =  1.4823
      Cm =  0.0083     CD =  0.11066   =>   CDf =  0.00642    CDp =  0.10424

 Side 1  free  transition at x/c =  0.1869   67
 Side 2 forced transition at x/c =  1.0000   48

  33   rms: 0.4345E-01   max: -.2138E+00   D at   85  1
       a = 21.750      CL =  1.5246
      Cm =  0.0093     CD =  0.10149   =>   CDf =  0.00635    CDp =  0.09514

 Side 1  free  transition at x/c =  0.1885   68
 Side 2 forced transition at x/c =  1.0000   48

  34   rms: 0.6173E-01   max: 0.3444E+00   D at   89  1
       a = 21.750      CL =  1.4823
      Cm =  0.0083     CD =  0.11066   =>   CDf =  0.00642    CDp =  0.10424

 Side 1  free  transition at x/c =  0.1869   67
 Side 2 forced transition at x/c =  1.0000   48

  35   rms: 0.4346E-01   max: -.2138E+00   D at   85  1
       a = 21.750      CL =  1.5246
      Cm =  0.0093     CD =  0.10149   =>   CDf =  0.00635    CDp =  0.09514

 Side 1  free  transition at x/c =  0.1885   68
 Side 2 forced transition at x/c =  1.0000   48

  36   rms: 0.6174E-01   max: 0.3445E+00   D at   89  1
       a = 21.750      CL =  1.4823
      Cm =  0.0083     CD =  0.11066   =>   CDf =  0.00642    CDp =  0.10425

 Side 1  free  transition at x/c =  0.1869   67
 Side 2 forced transition at x/c =  1.0000   48

  37   rms: 0.4345E-01   max: -.2138E+00   D at   85  1
       a = 21.750      CL =  1.5246
      Cm =  0.0093     CD =  0.10150   =>   CDf =  0.00635    CDp =  0.09514

 Side 1  free  transition at x/c =  0.1885   68
 Side 2 forced transition at x/c =  1.0000   48

  38   rms: 0.6172E-01   max: 0.3443E+00   D at   89  1
       a = 21.750      CL =  1.4823
      Cm =  0.0083     CD =  0.11066   =>   CDf =  0.00642    CDp =  0.10424

 Side 1  free  transition at x/c =  0.1869   67
 Side 2 forced transition at x/c =  1.0000   48

  39   rms: 0.4344E-01   max: -.2138E+00   D at   85  1
       a = 21.750      CL =  1.5245
      Cm =  0.0093     CD =  0.10149   =>   CDf =  0.00635    CDp =  0.09514

 Side 1  free  transition at x/c =  0.1885   68
 Side 2 forced transition at x/c =  1.0000   48

  40   rms: 0.6172E-01   max: 0.3444E+00   D at   89  1
       a = 21.750      CL =  1.4823
      Cm =  0.0083     CD =  0.11066   =>   CDf =  0.00642    CDp =  0.10424

 Side 1  free  transition at x/c =  0.1869   67
 Side 2 forced transition at x/c =  1.0000   48

  41   rms: 0.4346E-01   max: -.2139E+00   D at   85  1
       a = 21.750      CL =  1.5246
      Cm =  0.0093     CD =  0.10150   =>   CDf =  0.00635    CDp =  0.09514

 Side 1  free  transition at x/c =  0.1885   68
 Side 2 forced transition at x/c =  1.0000   48

  42   rms: 0.6175E-01   max: 0.3445E+00   D at   89  1
       a = 21.750      CL =  1.4823
      Cm =  0.0083     CD =  0.11066   =>   CDf =  0.00642    CDp =  0.10425

 Side 1  free  transition at x/c =  0.1869   67
 Side 2 forced transition at x/c =  1.0000   48

  43   rms: 0.4346E-01   max: -.2138E+00   D at   85  1
       a = 21.750      CL =  1.5246
      Cm =  0.0093     CD =  0.10150   =>   CDf =  0.00635    CDp =  0.09514

 Side 1  free  transition at x/c =  0.1885   68
 Side 2 forced transition at x/c =  1.0000   48

  44   rms: 0.6174E-01   max: 0.3444E+00   D at   89  1
       a = 21.750      CL =  1.4823
      Cm =  0.0083     CD =  0.11066   =>   CDf =  0.00642    CDp =  0.10424

 Side 1  free  transition at x/c =  0.1869   67
 Side 2 forced transition at x/c =  1.0000   48

  45   rms: 0.4345E-01   max: -.2138E+00   D at   85  1
       a = 21.750      CL =  1.5245
      Cm =  0.0093     CD =  0.10149   =>   CDf =  0.00635    CDp =  0.09514

 Side 1  free  transition at x/c =  0.1885   68
 Side 2 forced transition at x/c =  1.0000   48

  46   rms: 0.6173E-01   max: 0.3444E+00   D at   89  1
       a = 21.750      CL =  1.4823
      Cm =  0.0083     CD =  0.11066   =>   CDf =  0.00642    CDp =  0.10424

 Side 1  free  transition at x/c =  0.1869   67
 Side 2 forced transition at x/c =  1.0000   48

  47   rms: 0.4347E-01   max: -.2139E+00   D at   85  1
       a = 21.750      CL =  1.5246
      Cm =  0.0093     CD =  0.10150   =>   CDf =  0.00635    CDp =  0.09514

 Side 1  free  transition at x/c =  0.1885   68
 Side 2 forced transition at x/c =  1.0000   48

  48   rms: 0.6175E-01   max: 0.3445E+00   D at   89  1
       a = 21.750      CL =  1.4823
      Cm =  0.0083     CD =  0.11066   =>   CDf =  0.00642    CDp =  0.10425

 Side 1  free  transition at x/c =  0.1869   67
 Side 2 forced transition at x/c =  1.0000   48

  49   rms: 0.4345E-01   max: -.2138E+00   D at   85  1
       a = 21.750      CL =  1.5245
      Cm =  0.0093     CD =  0.10149   =>   CDf =  0.00635    CDp =  0.09514

 Side 1  free  transition at x/c =  0.1885   68
 Side 2 forced transition at x/c =  1.0000   48

  50   rms: 0.6171E-01   max: 0.3443E+00   D at   89  1
       a = 21.750      CL =  1.4823
      Cm =  0.0083     CD =  0.11066   =>   CDf =  0.00642    CDp =  0.10424

 Side 1  free  transition at x/c =  0.1869   67
 Side 2 forced transition at x/c =  1.0000   48

  51   rms: 0.4346E-01   max: -.2138E+00   D at   85  1
       a = 21.750      CL =  1.5246
      Cm =  0.0093     CD =  0.10150   =>   CDf =  0.00635    CDp =  0.09514

 Side 1  free  transition at x/c =  0.1885   68
 Side 2 forced transition at x/c =  1.0000   48

  52   rms: 0.6175E-01   max: 0.3445E+00   D at   89  1
       a = 21.750      CL =  1.4823
      Cm =  0.0083     CD =  0.11066   =>   CDf =  0.00642    CDp =  0.10425

 Side 1  free  transition at x/c =  0.1869   67
 Side 2 forced transition at x/c =  1.0000   48

  53   rms: 0.4345E-01   max: -.2138E+00   D at   85  1
       a = 21.750      CL =  1.5245
      Cm =  0.0093     CD =  0.10149   =>   CDf =  0.00635    CDp =  0.09514

 Side 1  free  transition at x/c =  0.1885   68
 Side 2 forced transition at x/c =  1.0000   48

  54   rms: 0.6172E-01   max: 0.3443E+00   D at   89  1
       a = 21.750      CL =  1.4823
      Cm =  0.0083     CD =  0.11066   =>   CDf =  0.00642    CDp =  0.10424

 Side 1  free  transition at x/c =  0.1869   67
 Side 2 forced transition at x/c =  1.0000   48

  55   rms: 0.4345E-01   max: -.2138E+00   D at   85  1
       a = 21.750      CL =  1.5246
      Cm =  0.0093     CD =  0.10150   =>   CDf =  0.00635    CDp =  0.09514

 Side 1  free  transition at x/c =  0.1885   68
 Side 2 forced transition at x/c =  1.0000   48

  56   rms: 0.6174E-01   max: 0.3444E+00   D at   89  1
       a = 21.750      CL =  1.4823
      Cm =  0.0083     CD =  0.11066   =>   CDf =  0.00642    CDp =  0.10424

 Side 1  free  transition at x/c =  0.1869   67
 Side 2 forced transition at x/c =  1.0000   48

  57   rms: 0.4343E-01   max: -.2137E+00   D at   85  1
       a = 21.750      CL =  1.5245
      Cm =  0.0093     CD =  0.10149   =>   CDf =  0.00635    CDp =  0.09514

 Side 1  free  transition at x/c =  0.1885   68
 Side 2 forced transition at x/c =  1.0000   48

  58   rms: 0.6168E-01   max: 0.3442E+00   D at   89  1
       a = 21.750      CL =  1.4823
      Cm =  0.0083     CD =  0.11066   =>   CDf =  0.00642    CDp =  0.10424

 Side 1  free  transition at x/c =  0.1869   67
 Side 2 forced transition at x/c =  1.0000   48

  59   rms: 0.4346E-01   max: -.2138E+00   D at   85  1
       a = 21.750      CL =  1.5246
      Cm =  0.0093     CD =  0.10150   =>   CDf =  0.00635    CDp =  0.09514

 Side 1  free  transition at x/c =  0.1885   68
 Side 2 forced transition at x/c =  1.0000   48

  60   rms: 0.6176E-01   max: 0.3445E+00   D at   89  1
       a = 21.750      CL =  1.4823
      Cm =  0.0083     CD =  0.11066   =>   CDf =  0.00642    CDp =  0.10425

 Side 1  free  transition at x/c =  0.1869   67
 Side 2 forced transition at x/c =  1.0000   48

  61   rms: 0.4344E-01   max: -.2138E+00   D at   85  1
       a = 21.750      CL =  1.5245
      Cm =  0.0093     CD =  0.10149   =>   CDf =  0.00635    CDp =  0.09514

 Side 1  free  transition at x/c =  0.1885   68
 Side 2 forced transition at x/c =  1.0000   48

  62   rms: 0.6172E-01   max: 0.3443E+00   D at   89  1
       a = 21.750      CL =  1.4823
      Cm =  0.0083     CD =  0.11066   =>   CDf =  0.00642    CDp =  0.10424

 Side 1  free  transition at x/c =  0.1869   67
 Side 2 forced transition at x/c =  1.0000   48

  63   rms: 0.4345E-01   max: -.2138E+00   D at   85  1
       a = 21.750      CL =  1.5246
      Cm =  0.0093     CD =  0.10150   =>   CDf =  0.00635    CDp =  0.09514

 Side 1  free  transition at x/c =  0.1885   68
 Side 2 forced transition at x/c =  1.0000   48

  64   rms: 0.6173E-01   max: 0.3444E+00   D at   89  1
       a = 21.750      CL =  1.4823
      Cm =  0.0083     CD =  0.11066   =>   CDf =  0.00642    CDp =  0.10424

 Side 1  free  transition at x/c =  0.1869   67
 Side 2 forced transition at x/c =  1.0000   48

  65   rms: 0.4346E-01   max: -.2138E+00   D at   85  1
       a = 21.750      CL =  1.5246
      Cm =  0.0093     CD =  0.10150   =>   CDf =  0.00635    CDp =  0.09514

 Side 1  free  transition at x/c =  0.1885   68
 Side 2 forced transition at x/c =  1.0000   48

  66   rms: 0.6175E-01   max: 0.3445E+00   D at   89  1
       a = 21.750      CL =  1.4823
      Cm =  0.0083     CD =  0.11066   =>   CDf =  0.00642    CDp =  0.10425

 Side 1  free  transition at x/c =  0.1869   67
 Side 2 forced transition at x/c =  1.0000   48

  67   rms: 0.4345E-01   max: -.2138E+00   D at   85  1
       a = 21.750      CL =  1.5245
      Cm =  0.0093     CD =  0.10149   =>   CDf =  0.00635    CDp =  0.09514

 Side 1  free  transition at x/c =  0.1885   68
 Side 2 forced transition at x/c =  1.0000   48

  68   rms: 0.6172E-01   max: 0.3443E+00   D at   89  1
       a = 21.750      CL =  1.4823
      Cm =  0.0083     CD =  0.11066   =>   CDf =  0.00642    CDp =  0.10424

 Side 1  free  transition at x/c =  0.1869   67
 Side 2 forced transition at x/c =  1.0000   48

  69   rms: 0.4346E-01   max: -.2138E+00   D at   85  1
       a = 21.750      CL =  1.5246
      Cm =  0.0093     CD =  0.10150   =>   CDf =  0.00635    CDp =  0.09514

 Side 1  free  transition at x/c =  0.1885   68
 Side 2 forced transition at x/c =  1.0000   48

  70   rms: 0.6174E-01   max: 0.3444E+00   D at   89  1
       a = 21.750      CL =  1.4823
      Cm =  0.0083     CD =  0.11066   =>   CDf =  0.00642    CDp =  0.10424

 Side 1  free  transition at x/c =  0.1869   67
 Side 2 forced transition at x/c =  1.0000   48

  71   rms: 0.4346E-01   max: -.2138E+00   D at   85  1
       a = 21.750      CL =  1.5246
      Cm =  0.0093     CD =  0.10150   =>   CDf =  0.00635    CDp =  0.09514

 Side 1  free  transition at x/c =  0.1885   68
 Side 2 forced transition at x/c =  1.0000   48

  72   rms: 0.6174E-01   max: 0.3444E+00   D at   89  1
       a = 21.750      CL =  1.4823
      Cm =  0.0083     CD =  0.11066   =>   CDf =  0.00642    CDp =  0.10424

 Side 1  free  transition at x/c =  0.1869   67
 Side 2 forced transition at x/c =  1.0000   48

  73   rms: 0.4345E-01   max: -.2138E+00   D at   85  1
       a = 21.750      CL =  1.5245
      Cm =  0.0093     CD =  0.10150   =>   CDf =  0.00635    CDp =  0.09514

 Side 1  free  transition at x/c =  0.1885   68
 Side 2 forced transition at x/c =  1.0000   48

  74   rms: 0.6173E-01   max: 0.3444E+00   D at   89  1
       a = 21.750      CL =  1.4823
      Cm =  0.0083     CD =  0.11066   =>   CDf =  0.00642    CDp =  0.10424

 Side 1  free  transition at x/c =  0.1869   67
 Side 2 forced transition at x/c =  1.0000   48

  75   rms: 0.4345E-01   max: -.2138E+00   D at   85  1
       a = 21.750      CL =  1.5245
      Cm =  0.0093     CD =  0.10149   =>   CDf =  0.00635    CDp =  0.09514

 Side 1  free  transition at x/c =  0.1885   68
 Side 2 forced transition at x/c =  1.0000   48

  76   rms: 0.6172E-01   max: 0.3443E+00   D at   89  1
       a = 21.750      CL =  1.4823
      Cm =  0.0083     CD =  0.11066   =>   CDf =  0.00642    CDp =  0.10424

 Side 1  free  transition at x/c =  0.1869   67
 Side 2 forced transition at x/c =  1.0000   48

  77   rms: 0.4344E-01   max: -.2138E+00   D at   85  1
       a = 21.750      CL =  1.5245
      Cm =  0.0093     CD =  0.10149   =>   CDf =  0.00635    CDp =  0.09514

 Side 1  free  transition at x/c =  0.1885   68
 Side 2 forced transition at x/c =  1.0000   48

  78   rms: 0.6172E-01   max: 0.3443E+00   D at   89  1
       a = 21.750      CL =  1.4823
      Cm =  0.0083     CD =  0.11066   =>   CDf =  0.00642    CDp =  0.10424

 Side 1  free  transition at x/c =  0.1869   67
 Side 2 forced transition at x/c =  1.0000   48

  79   rms: 0.4346E-01   max: -.2138E+00   D at   85  1
       a = 21.750      CL =  1.5246
      Cm =  0.0093     CD =  0.10150   =>   CDf =  0.00635    CDp =  0.09514

 Side 1  free  transition at x/c =  0.1885   68
 Side 2 forced transition at x/c =  1.0000   48

  80   rms: 0.6175E-01   max: 0.3444E+00   D at   89  1
       a = 21.750      CL =  1.4823
      Cm =  0.0083     CD =  0.11066   =>   CDf =  0.00642    CDp =  0.10425

 Side 1  free  transition at x/c =  0.1869   67
 Side 2 forced transition at x/c =  1.0000   48

  81   rms: 0.4344E-01   max: -.2137E+00   D at   85  1
       a = 21.750      CL =  1.5245
      Cm =  0.0093     CD =  0.10149   =>   CDf =  0.00635    CDp =  0.09514

 Side 1  free  transition at x/c =  0.1885   68
 Side 2 forced transition at x/c =  1.0000   48

  82   rms: 0.6170E-01   max: 0.3443E+00   D at   89  1
       a = 21.750      CL =  1.4823
      Cm =  0.0083     CD =  0.11066   =>   CDf =  0.00642    CDp =  0.10424

 Side 1  free  transition at x/c =  0.1869   67
 Side 2 forced transition at x/c =  1.0000   48

  83   rms: 0.4345E-01   max: -.2138E+00   D at   85  1
       a = 21.750      CL =  1.5245
      Cm =  0.0093     CD =  0.10149   =>   CDf =  0.00635    CDp =  0.09514

 Side 1  free  transition at x/c =  0.1885   68
 Side 2 forced transition at x/c =  1.0000   48

  84   rms: 0.6173E-01   max: 0.3444E+00   D at   89  1
       a = 21.750      CL =  1.4823
      Cm =  0.0083     CD =  0.11066   =>   CDf =  0.00642    CDp =  0.10424

 Side 1  free  transition at x/c =  0.1869   67
 Side 2 forced transition at x/c =  1.0000   48

  85   rms: 0.4347E-01   max: -.2139E+00   D at   85  1
       a = 21.750      CL =  1.5246
      Cm =  0.0093     CD =  0.10150   =>   CDf =  0.00635    CDp =  0.09514

 Side 1  free  transition at x/c =  0.1885   68
 Side 2 forced transition at x/c =  1.0000   48

  86   rms: 0.6175E-01   max: 0.3445E+00   D at   89  1
       a = 21.750      CL =  1.4823
      Cm =  0.0083     CD =  0.11066   =>   CDf =  0.00642    CDp =  0.10424

 Side 1  free  transition at x/c =  0.1869   67
 Side 2 forced transition at x/c =  1.0000   48

  87   rms: 0.4345E-01   max: -.2138E+00   D at   85  1
       a = 21.750      CL =  1.5246
      Cm =  0.0093     CD =  0.10149   =>   CDf =  0.00635    CDp =  0.09514

 Side 1  free  transition at x/c =  0.1885   68
 Side 2 forced transition at x/c =  1.0000   48

  88   rms: 0.6172E-01   max: 0.3443E+00   D at   89  1
       a = 21.750      CL =  1.4823
      Cm =  0.0083     CD =  0.11066   =>   CDf =  0.00642    CDp =  0.10424

 Side 1  free  transition at x/c =  0.1869   67
 Side 2 forced transition at x/c =  1.0000   48

  89   rms: 0.4345E-01   max: -.2138E+00   D at   85  1
       a = 21.750      CL =  1.5245
      Cm =  0.0093     CD =  0.10149   =>   CDf =  0.00635    CDp =  0.09514

 Side 1  free  transition at x/c =  0.1885   68
 Side 2 forced transition at x/c =  1.0000   48

  90   rms: 0.6173E-01   max: 0.3444E+00   D at   89  1
       a = 21.750      CL =  1.4823
      Cm =  0.0083     CD =  0.11066   =>   CDf =  0.00642    CDp =  0.10424

 Side 1  free  transition at x/c =  0.1869   67
 Side 2 forced transition at x/c =  1.0000   48

  91   rms: 0.4345E-01   max: -.2138E+00   D at   85  1
       a = 21.750      CL =  1.5245
      Cm =  0.0093     CD =  0.10149   =>   CDf =  0.00635    CDp =  0.09514

 Side 1  free  transition at x/c =  0.1885   68
 Side 2 forced transition at x/c =  1.0000   48

  92   rms: 0.6172E-01   max: 0.3443E+00   D at   89  1
       a = 21.750      CL =  1.4823
      Cm =  0.0083     CD =  0.11066   =>   CDf =  0.00642    CDp =  0.10424

 Side 1  free  transition at x/c =  0.1869   67
 Side 2 forced transition at x/c =  1.0000   48

  93   rms: 0.4345E-01   max: -.2138E+00   D at   85  1
       a = 21.750      CL =  1.5246
      Cm =  0.0093     CD =  0.10149   =>   CDf =  0.00635    CDp =  0.09514

 Side 1  free  transition at x/c =  0.1885   68
 Side 2 forced transition at x/c =  1.0000   48

  94   rms: 0.6174E-01   max: 0.3445E+00   D at   89  1
       a = 21.750      CL =  1.4823
      Cm =  0.0083     CD =  0.11066   =>   CDf =  0.00642    CDp =  0.10424

 Side 1  free  transition at x/c =  0.1869   67
 Side 2 forced transition at x/c =  1.0000   48

  95   rms: 0.4346E-01   max: -.2138E+00   D at   85  1
       a = 21.750      CL =  1.5246
      Cm =  0.0093     CD =  0.10150   =>   CDf =  0.00635    CDp =  0.09514

 Side 1  free  transition at x/c =  0.1885   68
 Side 2 forced transition at x/c =  1.0000   48

  96   rms: 0.6173E-01   max: 0.3444E+00   D at   89  1
       a = 21.750      CL =  1.4823
      Cm =  0.0083     CD =  0.11066   =>   CDf =  0.00642    CDp =  0.10424

 Side 1  free  transition at x/c =  0.1869   67
 Side 2 forced transition at x/c =  1.0000   48

  97   rms: 0.4343E-01   max: -.2137E+00   D at   85  1
       a = 21.750      CL =  1.5245
      Cm =  0.0093     CD =  0.10149   =>   CDf =  0.00635    CDp =  0.09514

 Side 1  free  transition at x/c =  0.1885   68
 Side 2 forced transition at x/c =  1.0000   48

  98   rms: 0.6170E-01   max: 0.3443E+00   D at   89  1
       a = 21.750      CL =  1.4823
      Cm =  0.0083     CD =  0.11066   =>   CDf =  0.00642    CDp =  0.10424

 Side 1  free  transition at x/c =  0.1869   67
 Side 2 forced transition at x/c =  1.0000   48

  99   rms: 0.4345E-01   max: -.2138E+00   D at   85  1
       a = 21.750      CL =  1.5245
      Cm =  0.0093     CD =  0.10149   =>   CDf =  0.00635    CDp =  0.09514

 Side 1  free  transition at x/c =  0.1885   68
 Side 2 forced transition at x/c =  1.0000   48

 100   rms: 0.6172E-01   max: 0.3444E+00   D at   89  1
       a = 21.750      CL =  1.4823
      Cm =  0.0083     CD =  0.11066   =>   CDf =  0.00642    CDp =  0.10424

 Side 1  free  transition at x/c =  0.1869   67
 Side 2 forced transition at x/c =  1.0000   48

 101   rms: 0.4346E-01   max: -.2138E+00   D at   85  1
       a = 21.750      CL =  1.5246
      Cm =  0.0093     CD =  0.10150   =>   CDf =  0.00635    CDp =  0.09514

 Side 1  free  transition at x/c =  0.1885   68
 Side 2 forced transition at x/c =  1.0000   48

 102   rms: 0.6173E-01   max: 0.3444E+00   D at   89  1
       a = 21.750      CL =  1.4823
      Cm =  0.0083     CD =  0.11066   =>   CDf =  0.00642    CDp =  0.10424

 Side 1  free  transition at x/c =  0.1869   67
 Side 2 forced transition at x/c =  1.0000   48

 103   rms: 0.4343E-01   max: -.2137E+00   D at   85  1
       a = 21.750      CL =  1.5245
      Cm =  0.0093     CD =  0.10149   =>   CDf =  0.00635    CDp =  0.09514

 Side 1  free  transition at x/c =  0.1885   68
 Side 2 forced transition at x/c =  1.0000   48

 104   rms: 0.6169E-01   max: 0.3442E+00   D at   89  1
       a = 21.750      CL =  1.4823
      Cm =  0.0083     CD =  0.11066   =>   CDf =  0.00642    CDp =  0.10424

 Side 1  free  transition at x/c =  0.1869   67
 Side 2 forced transition at x/c =  1.0000   48

 105   rms: 0.4345E-01   max: -.2138E+00   D at   85  1
       a = 21.750      CL =  1.5245
      Cm =  0.0093     CD =  0.10149   =>   CDf =  0.00635    CDp =  0.09514

 Side 1  free  transition at x/c =  0.1885   68
 Side 2 forced transition at x/c =  1.0000   48

 106   rms: 0.6173E-01   max: 0.3444E+00   D at   89  1
       a = 21.750      CL =  1.4823
      Cm =  0.0083     CD =  0.11066   =>   CDf =  0.00642    CDp =  0.10424

 Side 1  free  transition at x/c =  0.1869   67
 Side 2 forced transition at x/c =  1.0000   48

 107   rms: 0.4346E-01   max: -.2138E+00   D at   85  1
       a = 21.750      CL =  1.5246
      Cm =  0.0093     CD =  0.10150   =>   CDf =  0.00635    CDp =  0.09514

 Side 1  free  transition at x/c =  0.1885   68
 Side 2 forced transition at x/c =  1.0000   48

 108   rms: 0.6174E-01   max: 0.3444E+00   D at   89  1
       a = 21.750      CL =  1.4823
      Cm =  0.0083     CD =  0.11066   =>   CDf =  0.00642    CDp =  0.10424

 Side 1  free  transition at x/c =  0.1869   67
 Side 2 forced transition at x/c =  1.0000   48

 109   rms: 0.4344E-01   max: -.2137E+00   D at   85  1
       a = 21.750      CL =  1.5245
      Cm =  0.0093     CD =  0.10149   =>   CDf =  0.00635    CDp =  0.09514

 Side 1  free  transition at x/c =  0.1885   68
 Side 2 forced transition at x/c =  1.0000   48

 110   rms: 0.6170E-01   max: 0.3442E+00   D at   89  1
       a = 21.750      CL =  1.4823
      Cm =  0.0083     CD =  0.11066   =>   CDf =  0.00642    CDp =  0.10424

 Side 1  free  transition at x/c =  0.1869   67
 Side 2 forced transition at x/c =  1.0000   48

 111   rms: 0.4345E-01   max: -.2138E+00   D at   85  1
       a = 21.750      CL =  1.5246
      Cm =  0.0093     CD =  0.10149   =>   CDf =  0.00635    CDp =  0.09514

 Side 1  free  transition at x/c =  0.1885   68
 Side 2 forced transition at x/c =  1.0000   48

 112   rms: 0.6174E-01   max: 0.3445E+00   D at   89  1
       a = 21.750      CL =  1.4823
      Cm =  0.0083     CD =  0.11066   =>   CDf =  0.00642    CDp =  0.10424

 Side 1  free  transition at x/c =  0.1869   67
 Side 2 forced transition at x/c =  1.0000   48

 113   rms: 0.4346E-01   max: -.2138E+00   D at   85  1
       a = 21.750      CL =  1.5245
      Cm =  0.0093     CD =  0.10149   =>   CDf =  0.00635    CDp =  0.09514

 Side 1  free  transition at x/c =  0.1885   68
 Side 2 forced transition at x/c =  1.0000   48

 114   rms: 0.6173E-01   max: 0.3444E+00   D at   89  1
       a = 21.750      CL =  1.4823
      Cm =  0.0083     CD =  0.11066   =>   CDf =  0.00642    CDp =  0.10424

 Side 1  free  transition at x/c =  0.1869   67
 Side 2 forced transition at x/c =  1.0000   48

 115   rms: 0.4344E-01   max: -.2137E+00   D at   85  1
       a = 21.750      CL =  1.5245
      Cm =  0.0093     CD =  0.10149   =>   CDf =  0.00635    CDp =  0.09514

 Side 1  free  transition at x/c =  0.1885   68
 Side 2 forced transition at x/c =  1.0000   48

 116   rms: 0.6171E-01   max: 0.3443E+00   D at   89  1
       a = 21.750      CL =  1.4823
      Cm =  0.0083     CD =  0.11066   =>   CDf =  0.00642    CDp =  0.10424

 Side 1  free  transition at x/c =  0.1869   67
 Side 2 forced transition at x/c =  1.0000   48

 117   rms: 0.4347E-01   max: -.2139E+00   D at   85  1
       a = 21.750      CL =  1.5246
      Cm =  0.0093     CD =  0.10150   =>   CDf =  0.00635    CDp =  0.09514

 Side 1  free  transition at x/c =  0.1885   68
 Side 2 forced transition at x/c =  1.0000   48

 118   rms: 0.6175E-01   max: 0.3445E+00   D at   89  1
       a = 21.750      CL =  1.4823
      Cm =  0.0083     CD =  0.11066   =>   CDf =  0.00642    CDp =  0.10424

 Side 1  free  transition at x/c =  0.1869   67
 Side 2 forced transition at x/c =  1.0000   48

 119   rms: 0.4344E-01   max: -.2138E+00   D at   85  1
       a = 21.750      CL =  1.5245
      Cm =  0.0093     CD =  0.10150   =>   CDf =  0.00635    CDp =  0.09514

 Side 1  free  transition at x/c =  0.1885   68
 Side 2 forced transition at x/c =  1.0000   48

 120   rms: 0.6172E-01   max: 0.3443E+00   D at   89  1
       a = 21.750      CL =  1.4823
      Cm =  0.0083     CD =  0.11066   =>   CDf =  0.00642    CDp =  0.10424

 Side 1  free  transition at x/c =  0.1869   67
 Side 2 forced transition at x/c =  1.0000   48

 121   rms: 0.4346E-01   max: -.2138E+00   D at   85  1
       a = 21.750      CL =  1.5246
      Cm =  0.0093     CD =  0.10149   =>   CDf =  0.00635    CDp =  0.09514

 Side 1  free  transition at x/c =  0.1885   68
 Side 2 forced transition at x/c =  1.0000   48

 122   rms: 0.6174E-01   max: 0.3444E+00   D at   89  1
       a = 21.750      CL =  1.4823
      Cm =  0.0083     CD =  0.11066   =>   CDf =  0.00642    CDp =  0.10424

 Side 1  free  transition at x/c =  0.1869   67
 Side 2 forced transition at x/c =  1.0000   48

 123   rms: 0.4345E-01   max: -.2138E+00   D at   85  1
       a = 21.750      CL =  1.5245
      Cm =  0.0093     CD =  0.10149   =>   CDf =  0.00635    CDp =  0.09514

 Side 1  free  transition at x/c =  0.1885   68
 Side 2 forced transition at x/c =  1.0000   48

 124   rms: 0.6172E-01   max: 0.3444E+00   D at   89  1
       a = 21.750      CL =  1.4823
      Cm =  0.0083     CD =  0.11066   =>   CDf =  0.00642    CDp =  0.10424

 Side 1  free  transition at x/c =  0.1869   67
 Side 2 forced transition at x/c =  1.0000   48

 125   rms: 0.4346E-01   max: -.2138E+00   D at   85  1
       a = 21.750      CL =  1.5246
      Cm =  0.0093     CD =  0.10150   =>   CDf =  0.00635    CDp =  0.09514

 Side 1  free  transition at x/c =  0.1885   68
 Side 2 forced transition at x/c =  1.0000   48

 126   rms: 0.6174E-01   max: 0.3444E+00   D at   89  1
       a = 21.750      CL =  1.4823
      Cm =  0.0083     CD =  0.11066   =>   CDf =  0.00642    CDp =  0.10424

 Side 1  free  transition at x/c =  0.1869   67
 Side 2 forced transition at x/c =  1.0000   48

 127   rms: 0.4346E-01   max: -.2138E+00   D at   85  1
       a = 21.750      CL =  1.5246
      Cm =  0.0093     CD =  0.10150   =>   CDf =  0.00635    CDp =  0.09514

 Side 1  free  transition at x/c =  0.1885   68
 Side 2 forced transition at x/c =  1.0000   48

 128   rms: 0.6175E-01   max: 0.3445E+00   D at   89  1
       a = 21.750      CL =  1.4823
      Cm =  0.0083     CD =  0.11066   =>   CDf =  0.00642    CDp =  0.10425

 Side 1  free  transition at x/c =  0.1869   67
 Side 2 forced transition at x/c =  1.0000   48

 129   rms: 0.4345E-01   max: -.2138E+00   D at   85  1
       a = 21.750      CL =  1.5245
      Cm =  0.0093     CD =  0.10149   =>   CDf =  0.00635    CDp =  0.09514

 Side 1  free  transition at x/c =  0.1885   68
 Side 2 forced transition at x/c =  1.0000   48

 130   rms: 0.6171E-01   max: 0.3443E+00   D at   89  1
       a = 21.750      CL =  1.4823
      Cm =  0.0083     CD =  0.11066   =>   CDf =  0.00642    CDp =  0.10424

 Side 1  free  transition at x/c =  0.1869   67
 Side 2 forced transition at x/c =  1.0000   48

 131   rms: 0.4346E-01   max: -.2138E+00   D at   85  1
       a = 21.750      CL =  1.5246
      Cm =  0.0093     CD =  0.10150   =>   CDf =  0.00635    CDp =  0.09514

 Side 1  free  transition at x/c =  0.1885   68
 Side 2 forced transition at x/c =  1.0000   48

 132   rms: 0.6174E-01   max: 0.3445E+00   D at   89  1
       a = 21.750      CL =  1.4823
      Cm =  0.0083     CD =  0.11066   =>   CDf =  0.00642    CDp =  0.10424

 Side 1  free  transition at x/c =  0.1869   67
 Side 2 forced transition at x/c =  1.0000   48

 133   rms: 0.4345E-01   max: -.2138E+00   D at   85  1
       a = 21.750      CL =  1.5246
      Cm =  0.0093     CD =  0.10150   =>   CDf =  0.00635    CDp =  0.09514

 Side 1  free  transition at x/c =  0.1885   68
 Side 2 forced transition at x/c =  1.0000   48

 134   rms: 0.6173E-01   max: 0.3443E+00   D at   89  1
       a = 21.750      CL =  1.4823
      Cm =  0.0083     CD =  0.11066   =>   CDf =  0.00642    CDp =  0.10424

 Side 1  free  transition at x/c =  0.1869   67
 Side 2 forced transition at x/c =  1.0000   48

 135   rms: 0.4345E-01   max: -.2138E+00   D at   85  1
       a = 21.750      CL =  1.5245
      Cm =  0.0093     CD =  0.10149   =>   CDf =  0.00635    CDp =  0.09514

 Side 1  free  transition at x/c =  0.1885   68
 Side 2 forced transition at x/c =  1.0000   48

 136   rms: 0.6172E-01   max: 0.3444E+00   D at   89  1
       a = 21.750      CL =  1.4823
      Cm =  0.0083     CD =  0.11066   =>   CDf =  0.00642    CDp =  0.10424

 Side 1  free  transition at x/c =  0.1869   67
 Side 2 forced transition at x/c =  1.0000   48

 137   rms: 0.4345E-01   max: -.2138E+00   D at   85  1
       a = 21.750      CL =  1.5246
      Cm =  0.0093     CD =  0.10150   =>   CDf =  0.00635    CDp =  0.09514

 Side 1  free  transition at x/c =  0.1885   68
 Side 2 forced transition at x/c =  1.0000   48

 138   rms: 0.6173E-01   max: 0.3444E+00   D at   89  1
       a = 21.750      CL =  1.4823
      Cm =  0.0083     CD =  0.11066   =>   CDf =  0.00642    CDp =  0.10424

 Side 1  free  transition at x/c =  0.1869   67
 Side 2 forced transition at x/c =  1.0000   48

 139   rms: 0.4345E-01   max: -.2138E+00   D at   85  1
       a = 21.750      CL =  1.5246
      Cm =  0.0093     CD =  0.10149   =>   CDf =  0.00635    CDp =  0.09514

 Side 1  free  transition at x/c =  0.1885   68
 Side 2 forced transition at x/c =  1.0000   48

 140   rms: 0.6173E-01   max: 0.3444E+00   D at   89  1
       a = 21.750      CL =  1.4823
      Cm =  0.0083     CD =  0.11066   =>   CDf =  0.00642    CDp =  0.10424

 Side 1  free  transition at x/c =  0.1869   67
 Side 2 forced transition at x/c =  1.0000   48

 141   rms: 0.4345E-01   max: -.2138E+00   D at   85  1
       a = 21.750      CL =  1.5245
      Cm =  0.0093     CD =  0.10149   =>   CDf =  0.00635    CDp =  0.09514

 Side 1  free  transition at x/c =  0.1885   68
 Side 2 forced transition at x/c =  1.0000   48

 142   rms: 0.6172E-01   max: 0.3444E+00   D at   89  1
       a = 21.750      CL =  1.4823
      Cm =  0.0083     CD =  0.11066   =>   CDf =  0.00642    CDp =  0.10424

 Side 1  free  transition at x/c =  0.1869   67
 Side 2 forced transition at x/c =  1.0000   48

 143   rms: 0.4345E-01   max: -.2138E+00   D at   85  1
       a = 21.750      CL =  1.5245
      Cm =  0.0093     CD =  0.10149   =>   CDf =  0.00635    CDp =  0.09514

 Side 1  free  transition at x/c =  0.1885   68
 Side 2 forced transition at x/c =  1.0000   48

 144   rms: 0.6172E-01   max: 0.3443E+00   D at   89  1
       a = 21.750      CL =  1.4823
      Cm =  0.0083     CD =  0.11066   =>   CDf =  0.00642    CDp =  0.10424

 Side 1  free  transition at x/c =  0.1869   67
 Side 2 forced transition at x/c =  1.0000   48

 145   rms: 0.4345E-01   max: -.2138E+00   D at   85  1
       a = 21.750      CL =  1.5245
      Cm =  0.0093     CD =  0.10149   =>   CDf =  0.00635    CDp =  0.09514

 Side 1  free  transition at x/c =  0.1885   68
 Side 2 forced transition at x/c =  1.0000   48

 146   rms: 0.6173E-01   max: 0.3444E+00   D at   89  1
       a = 21.750      CL =  1.4823
      Cm =  0.0083     CD =  0.11066   =>   CDf =  0.00642    CDp =  0.10424

 Side 1  free  transition at x/c =  0.1869   67
 Side 2 forced transition at x/c =  1.0000   48

 147   rms: 0.4344E-01   max: -.2137E+00   D at   85  1
       a = 21.750      CL =  1.5245
      Cm =  0.0093     CD =  0.10149   =>   CDf =  0.00635    CDp =  0.09514

 Side 1  free  transition at x/c =  0.1885   68
 Side 2 forced transition at x/c =  1.0000   48

 148   rms: 0.6170E-01   max: 0.3443E+00   D at   89  1
       a = 21.750      CL =  1.4823
      Cm =  0.0083     CD =  0.11066   =>   CDf =  0.00642    CDp =  0.10424

 Side 1  free  transition at x/c =  0.1869   67
 Side 2 forced transition at x/c =  1.0000   48

 149   rms: 0.4347E-01   max: -.2138E+00   D at   85  1
       a = 21.750      CL =  1.5246
      Cm =  0.0093     CD =  0.10150   =>   CDf =  0.00635    CDp =  0.09514

 Side 1  free  transition at x/c =  0.1885   68
 Side 2 forced transition at x/c =  1.0000   48

 150   rms: 0.6175E-01   max: 0.3445E+00   D at   89  1
       a = 21.750      CL =  1.4823
      Cm =  0.0083     CD =  0.11066   =>   CDf =  0.00642    CDp =  0.10425

 Side 1  free  transition at x/c =  0.1869   67
 Side 2 forced transition at x/c =  1.0000   48

 151   rms: 0.4345E-01   max: -.2138E+00   D at   85  1
       a = 21.750      CL =  1.5245
      Cm =  0.0093     CD =  0.10149   =>   CDf =  0.00635    CDp =  0.09514

 Side 1  free  transition at x/c =  0.1885   68
 Side 2 forced transition at x/c =  1.0000   48

 152   rms: 0.6172E-01   max: 0.3443E+00   D at   89  1
       a = 21.750      CL =  1.4823
      Cm =  0.0083     CD =  0.11066   =>   CDf =  0.00642    CDp =  0.10424

 Side 1  free  transition at x/c =  0.1869   67
 Side 2 forced transition at x/c =  1.0000   48

 153   rms: 0.4346E-01   max: -.2138E+00   D at   85  1
       a = 21.750      CL =  1.5246
      Cm =  0.0093     CD =  0.10149   =>   CDf =  0.00635    CDp =  0.09514

 Side 1  free  transition at x/c =  0.1885   68
 Side 2 forced transition at x/c =  1.0000   48

 154   rms: 0.6173E-01   max: 0.3444E+00   D at   89  1
       a = 21.750      CL =  1.4823
      Cm =  0.0083     CD =  0.11066   =>   CDf =  0.00642    CDp =  0.10424

 Side 1  free  transition at x/c =  0.1869   67
 Side 2 forced transition at x/c =  1.0000   48

 155   rms: 0.4345E-01   max: -.2138E+00   D at   85  1
       a = 21.750      CL =  1.5245
      Cm =  0.0093     CD =  0.10149   =>   CDf =  0.00635    CDp =  0.09514
 VISCAL:  Convergence failed
 Calculating wake trajectory ...
 Calculating source influence matrix ...

 Solving BL system ...

 Side 1  free  transition at x/c =  0.1885   68
 Side 2 forced transition at x/c =  1.0000   48

   1   rms: 0.8445E-01   max: 0.5245E+00   D at   88  1   RLX: 0.244
       a = 22.250      CL =  1.5327
      Cm =  0.0011     CD =  0.10596   =>   CDf =  0.00643    CDp =  0.09952

 Side 1  free  transition at x/c =  0.1874   68
 Side 2 forced transition at x/c =  1.0000   48

   2   rms: 0.4431E-01   max: 0.2353E+00   D at   88  1
       a = 22.250      CL =  1.5195
      Cm =  0.0067     CD =  0.11152   =>   CDf =  0.00641    CDp =  0.10511

 Side 1  free  transition at x/c =  0.1853   67
 Side 2 forced transition at x/c =  1.0000   48
 idif Ue xi dudx           2  0.12629347      1.26663446E-02   9.9707899    
 Uenew xinew           3  6.29262403E-02  6.31105900E-03

   3   rms: 0.3094E+01   max: 0.1389E+02   D at   86  1   RLX: 0.108
       a = 22.250      CL =  1.2303
      Cm = -0.0085     CD =  0.16825   =>   CDf =  0.00677    CDp =  0.16149

 MRCHDU: Convergence failed at  78  side 1    Res =  0.1459E+01
 MRCHDU: Convergence failed at  79  side 1    Res =  0.1856E+01
 MRCHDU: Convergence failed at  80  side 1    Res =  0.2113E+01
 MRCHDU: Convergence failed at  81  side 1    Res =  0.9133E+01
 MRCHDU: Convergence failed at  82  side 1    Res =  0.2588E+01
 MRCHDU: Convergence failed at  83  side 1    Res =  0.3852E+02
 MRCHDU: Convergence failed at  84  side 1    Res =  0.1811E+01
 Side 1  free  transition at x/c =  0.1774   64
 Side 2 forced transition at x/c =  1.0000   50

   4   rms: 0.3062E+00   max: 0.3270E+01   D at    2  2   RLX: 0.311
       a = 22.250      CL =  1.4100
      Cm = -0.0504     CD =  0.13191   =>   CDf =  0.00536    CDp =  0.12655

 Side 1  free  transition at x/c =  0.1802   65
 Side 2 forced transition at x/c =  1.0000   49

   5   rms: 0.8280E+00   max: 0.4918E+01   T at   65  1   RLX: 0.159
       a = 22.250      CL =  1.3790
      Cm = -0.0267     CD =  0.12883   =>   CDf =  0.00604    CDp =  0.12279

 Side 1  free  transition at x/c =  0.1713   64
 Side 2 forced transition at x/c =  1.0000   49

   6   rms: 0.1209E+00   max: 0.9722E+00   D at   85  1   RLX: 0.899
       a = 22.250      CL =  1.2835
      Cm = -0.0023     CD =  0.13954   =>   CDf =  0.00539    CDp =  0.13415

 Side 1  free  transition at x/c =  0.1754   64
 Side 2 forced transition at x/c =  1.0000   49
 idif Ue xi dudx           1  6.59864992E-02  6.29937649E-03   10.475084    
 Uenew xinew           2  1.65955862E-03  1.58429146E-04

   7   rms: 0.9885E-01   max: 0.7828E+00   D at   81  1
       a = 22.250      CL =  1.2195
      Cm = -0.0037     CD =  0.15630   =>   CDf =  0.00579    CDp =  0.15050

 MRCHDU: Convergence failed at  80  side 1    Res =  0.6498E+01
 Side 1  free  transition at x/c =  0.1753   63
 Side 2 forced transition at x/c =  1.0000   50

   8   rms: 0.3263E-01   max: 0.4971E+00   D at   80  1
       a = 22.250      CL =  1.2340
      Cm = -0.0017     CD =  0.14722   =>   CDf =  0.00528    CDp =  0.14194

 Side 1  free  transition at x/c =  0.1746   64
 Side 2 forced transition at x/c =  1.0000   49

   9   rms: 0.2059E-01   max: -.1112E+00   D at   75  1
       a = 22.250      CL =  1.2408
      Cm = -0.0015     CD =  0.14627   =>   CDf =  0.00540    CDp =  0.14087

 Side 1  free  transition at x/c =  0.1760   65
 Side 2 forced transition at x/c =  1.0000   49

  10   rms: 0.8146E-02   max: -.9809E-01   D at   64  1
       a = 22.250      CL =  1.2380
      Cm = -0.0017     CD =  0.14659   =>   CDf =  0.00548    CDp =  0.14111

 Side 1  free  transition at x/c =  0.1758   65
 Side 2 forced transition at x/c =  1.0000   49

  11   rms: 0.2273E-02   max: 0.1210E-01   D at   80  1
       a = 22.250      CL =  1.2376
      Cm = -0.0018     CD =  0.14703   =>   CDf =  0.00545    CDp =  0.14158

 Side 1  free  transition at x/c =  0.1757   65
 Side 2 forced transition at x/c =  1.0000   49

  12   rms: 0.3482E-03   max: 0.1440E-02   D at   80  1
       a = 22.250      CL =  1.2373
      Cm = -0.0018     CD =  0.14704   =>   CDf =  0.00545    CDp =  0.14158

 Side 1  free  transition at x/c =  0.1757   65
 Side 2 forced transition at x/c =  1.0000   49

  13   rms: 0.2939E-04   max: 0.1754E-03   D at   66  2
       a = 22.250      CL =  1.2373
      Cm = -0.0018     CD =  0.14702   =>   CDf =  0.00545    CDp =  0.14157
 plradd ia,ip,cpol           16           0  4.71199676E-02

 Point added to stored polar  1
 Point written to save file  hs1430_Re300k.ext.pol                           
 Dump file unspecified or not available

.OPERva   c>  
 Polar accumulation disabled

.OPERv   c>  
 XFOIL   c>  
 XFOIL   c>  