  
       XFOIL         Version 6.99
  
 Calculated polar for: HAM-STD HS1-430 AIRFOIL                         
  
 1 1 Reynolds number fixed          Mach number fixed         
  
 xtrf =   1.000 (top)        1.000 (bottom)  
 Mach =   0.000     Re =     0.500 e 6     Ncrit =   9.000
  
   alpha    CL        CD       CDp       CM     Top_Xtr  Bot_Xtr
  ------ -------- --------- --------- -------- -------- --------
-4.000  -0.1140   0.01708   0.00884  -0.0657   0.5922   0.2235
-3.500  -0.0991   0.01743   0.00896  -0.0572   0.5328   0.2277
-3.000  -0.0956   0.01844   0.00945  -0.0467   0.4288   0.2315
-2.500  -0.0875   0.01975   0.01011  -0.0376   0.3021   0.2343
-2.000  -0.0545   0.01992   0.01019  -0.0335   0.2768   0.2404
-1.500  -0.0139   0.02010   0.01036  -0.0308   0.2684   0.2459
-1.000   0.0272   0.02038   0.01060  -0.0283   0.2632   0.2507
-0.500   0.0712   0.02066   0.01084  -0.0264   0.2605   0.2542
0.000   0.1129   0.02082   0.01103  -0.0242   0.2585   0.2608
0.500   0.1551   0.02110   0.01135  -0.0221   0.2567   0.2669
1.000   0.1974   0.02149   0.01174  -0.0201   0.2553   0.2729
2.000   0.2801   0.02241   0.01273  -0.0160   0.2525   0.2905
3.000   0.3606   0.02307   0.01392  -0.0121   0.2508   0.4020
3.500   0.3955   0.02272   0.01470  -0.0092   0.2501   0.6684
4.000   0.4369   0.02324   0.01554  -0.0074   0.2493   0.7442
4.500   0.4753   0.02387   0.01669  -0.0045   0.2484   0.8494
5.000   0.5152   0.02503   0.01804  -0.0018   0.2476   0.9240
5.500   0.5584   0.02637   0.01940  -0.0002   0.2468   0.9549
6.000   0.6083   0.02772   0.02073  -0.0004   0.2459   0.9710
6.500   0.6813   0.02936   0.02234  -0.0059   0.2449   0.9769
7.000   0.7505   0.03099   0.02393  -0.0107   0.2438   0.9832
7.500   0.8163   0.03261   0.02550  -0.0149   0.2427   0.9892
8.000   0.8879   0.03417   0.02700  -0.0205   0.2412   0.9922
8.500   0.9530   0.03557   0.02836  -0.0247   0.2399   0.9956
9.000   1.0178   0.03721   0.03003  -0.0291   0.2385   0.9993
9.500   1.0489   0.03833   0.03118  -0.0268   0.2369   1.0000
10.000   1.0711   0.03930   0.03216  -0.0226   0.2356   1.0000
10.250   1.0830   0.03977   0.03263  -0.0207   0.2349   1.0000
10.500   1.0942   0.04029   0.03316  -0.0188   0.2341   1.0000
10.750   1.1055   0.04084   0.03370  -0.0169   0.2333   1.0000
11.000   1.1179   0.04134   0.03418  -0.0151   0.2326   1.0000
11.250   1.1313   0.04179   0.03462  -0.0135   0.2319   1.0000
11.500   1.1469   0.04216   0.03495  -0.0122   0.2310   1.0000
11.750   1.1623   0.04254   0.03532  -0.0109   0.2302   1.0000
12.000   1.1728   0.04322   0.03604  -0.0091   0.2296   1.0000
12.250   1.1833   0.04392   0.03679  -0.0074   0.2288   1.0000
12.500   1.1948   0.04460   0.03750  -0.0058   0.2280   1.0000
12.750   1.2069   0.04529   0.03821  -0.0044   0.2269   1.0000
13.000   1.2191   0.04601   0.03894  -0.0030   0.2258   1.0000
13.250   1.2314   0.04677   0.03970  -0.0018   0.2247   1.0000
13.500   1.2456   0.04744   0.04037  -0.0007   0.2237   1.0000
13.750   1.2625   0.04797   0.04086  -0.0000   0.2227   1.0000
14.000   1.2829   0.04831   0.04115   0.0003   0.2216   1.0000
14.250   1.2934   0.04944   0.04236   0.0013   0.2205   1.0000
14.500   1.3060   0.05050   0.04346   0.0021   0.2194   1.0000
14.750   1.3188   0.05158   0.04457   0.0028   0.2181   1.0000
15.000   1.3337   0.05252   0.04552   0.0033   0.2168   1.0000
15.250   1.3514   0.05325   0.04622   0.0035   0.2155   1.0000
15.500   1.3758   0.05341   0.04630   0.0032   0.2141   1.0000
15.750   1.3861   0.05481   0.04777   0.0038   0.2127   1.0000
16.000   1.3959   0.05629   0.04932   0.0044   0.2112   1.0000
16.250   1.4083   0.05756   0.05061   0.0048   0.2097   1.0000
16.500   1.4257   0.05839   0.05142   0.0049   0.2083   1.0000
16.750   1.4520   0.05839   0.05133   0.0044   0.2070   1.0000
17.000   1.4596   0.06011   0.05314   0.0050   0.2055   1.0000
17.250   1.4635   0.06221   0.05534   0.0057   0.2038   1.0000
17.500   1.4734   0.06377   0.05695   0.0059   0.2023   1.0000
17.750   1.4893   0.06476   0.05792   0.0059   0.2010   1.0000
18.000   1.5143   0.06486   0.05794   0.0054   0.1998   1.0000
18.250   1.5057   0.06830   0.06159   0.0064   0.1981   1.0000
18.750   1.5121   0.07301   0.06649   0.0070   0.1947   1.0000
19.250   1.5162   0.07816   0.07185   0.0072   0.1912   1.0000
19.750   1.5212   0.08338   0.07727   0.0069   0.1874   1.0000
20.250   1.5263   0.08872   0.08283   0.0063   0.1822   1.0000
20.750   1.5346   0.09386   0.08810   0.0052   0.1787   1.0000
21.250   1.5392   0.09953   0.09384   0.0037   0.1759   1.0000
21.750   1.5397   0.10544   0.09978   0.0023   0.1728   1.0000
22.250   1.5486   0.11001   0.10423   0.0010   0.1699   1.0000
