  
       XFOIL         Version 6.99
  
 Calculated polar for: HAM-STD HS1-712 AIRFOIL                         
  
 1 1 Reynolds number fixed          Mach number fixed         
  
 xtrf =   1.000 (top)        1.000 (bottom)  
 Mach =   0.000     Re =     0.150 e 6     Ncrit =   9.000
  
   alpha    CL        CD       CDp       CM     Top_Xtr  Bot_Xtr
  ------ -------- --------- --------- -------- -------- --------
  -4.000  -0.0248   0.02960   0.02168  -0.1080   0.9595   0.0765
  -3.500   0.0530   0.02793   0.01973  -0.1128   0.9487   0.0888
  -3.000   0.1434   0.02653   0.01823  -0.1199   0.9436   0.1070
  -2.500   0.2170   0.02553   0.01725  -0.1237   0.9305   0.1319
  -2.000   0.2895   0.02460   0.01659  -0.1273   0.9182   0.1891
  -1.500   0.3778   0.02360   0.01571  -0.1339   0.9126   0.2600
  -1.000   0.4467   0.02262   0.01504  -0.1368   0.8985   0.3247
  -0.500   0.4969   0.02021   0.01454  -0.1341   0.8850   0.9397
   0.000   0.5682   0.01930   0.01332  -0.1364   0.8706   1.0000
   0.500   0.6569   0.01779   0.01157  -0.1420   0.8644   1.0000
   1.000   0.7286   0.01691   0.01055  -0.1444   0.8495   1.0000
   1.500   0.8069   0.01587   0.00941  -0.1481   0.8336   1.0000
   2.000   0.8800   0.01512   0.00854  -0.1508   0.8101   1.0000
   2.500   0.9576   0.01449   0.00776  -0.1545   0.7809   1.0000
   3.000   1.0142   0.01446   0.00759  -0.1540   0.7390   1.0000
   3.500   1.0800   0.01466   0.00748  -0.1555   0.6984   1.0000
   4.000   1.1294   0.01524   0.00789  -0.1538   0.6508   1.0000
   4.500   1.1715   0.01588   0.00832  -0.1506   0.5946   1.0000
   5.000   1.2075   0.01672   0.00889  -0.1462   0.5288   1.0000
   5.500   1.2419   0.01782   0.00960  -0.1419   0.4710   1.0000
   6.000   1.2793   0.01899   0.01054  -0.1384   0.4290   1.0000
   6.500   1.3180   0.02020   0.01157  -0.1353   0.3973   1.0000
   7.000   1.3564   0.02138   0.01267  -0.1323   0.3696   1.0000
   7.500   1.3985   0.02279   0.01391  -0.1302   0.3467   1.0000
   8.000   1.4374   0.02408   0.01528  -0.1274   0.3251   1.0000
   8.500   1.4662   0.02523   0.01659  -0.1226   0.3038   1.0000
   9.000   1.4911   0.02646   0.01790  -0.1173   0.2830   1.0000
   9.500   1.5137   0.02790   0.01945  -0.1118   0.2608   1.0000
  10.000   1.5330   0.02958   0.02128  -0.1062   0.2361   1.0000
  10.000   1.5330   0.02958   0.02128  -0.1062   0.2361   1.0000
  10.250   1.5412   0.03059   0.02233  -0.1033   0.2233   1.0000
  10.500   1.5478   0.03175   0.02346  -0.1003   0.2107   1.0000
  10.750   1.5540   0.03299   0.02471  -0.0973   0.1980   1.0000
  11.000   1.5610   0.03431   0.02607  -0.0946   0.1853   1.0000
  11.250   1.5674   0.03576   0.02754  -0.0919   0.1745   1.0000
  11.500   1.5721   0.03737   0.02906  -0.0891   0.1656   1.0000
  11.750   1.5805   0.03878   0.03061  -0.0869   0.1570   1.0000
  12.000   1.5864   0.04045   0.03218  -0.0845   0.1506   1.0000
  12.250   1.5955   0.04191   0.03380  -0.0825   0.1446   1.0000
  12.500   1.6029   0.04348   0.03542  -0.0805   0.1395   1.0000
  12.750   1.6110   0.04513   0.03705  -0.0786   0.1347   1.0000
  13.000   1.6181   0.04676   0.03886  -0.0767   0.1301   1.0000
  13.250   1.6238   0.04850   0.04066  -0.0749   0.1258   1.0000
  13.500   1.6314   0.05027   0.04244  -0.0732   0.1216   1.0000
  13.750   1.6352   0.05223   0.04460  -0.0714   0.1175   1.0000
  14.000   1.6385   0.05424   0.04669  -0.0698   0.1135   1.0000
  14.250   1.6434   0.05629   0.04875  -0.0682   0.1094   1.0000
  14.500   1.6431   0.05877   0.05145  -0.0667   0.1054   1.0000
  14.750   1.6441   0.06116   0.05388  -0.0653   0.1014   1.0000
  15.000   1.6443   0.06381   0.05664  -0.0640   0.0973   1.0000
  15.250   1.6418   0.06675   0.05973  -0.0629   0.0932   1.0000
  15.500   1.6435   0.06929   0.06222  -0.0619   0.0891   1.0000
  15.750   1.6366   0.07296   0.06616  -0.0611   0.0854   1.0000
  16.000   1.6383   0.07556   0.06870  -0.0604   0.0818   1.0000
