
 ===================================================
  XFOIL Version 6.99
  Copyright (C) 2000   Mark Drela, Harold Youngren

  This software comes with ABSOLUTELY NO WARRANTY,
    subject to the GNU General Public License.

  Caveat computor
 ===================================================

 File  xfoil.def  not found

   QUIT    Exit program

  .OPER    Direct operating point(s)
  .MDES    Complex mapping design routine
  .QDES    Surface speed design routine
  .GDES    Geometry design routine

   SAVE f  Write airfoil to labeled coordinate file
   PSAV f  Write airfoil to plain coordinate file
   ISAV f  Write airfoil to ISES coordinate file
   MSAV f  Write airfoil to MSES coordinate file
   REVE    Reverse written-airfoil node ordering

   LOAD f  Read buffer airfoil from coordinate file
   NACA i  Set NACA 4,5-digit airfoil and buffer airfoil
   INTE    Set buffer airfoil by interpolating two airfoils
   NORM    Buffer airfoil normalization toggle
   XYCM rr Change CM reference location, currently  0.25000 0.00000

   BEND    Display structural properties of current airfoil

   PCOP    Set current-airfoil panel nodes directly from buffer airfoil points
   PANE    Set current-airfoil panel nodes ( 160 ) based on curvature
  .PPAR    Show/change paneling

  .PLOP    Plotting options

   WDEF f  Write  current-settings file
   RDEF f  Reread current-settings file
   NAME s  Specify new airfoil name
   NINC    Increment name version number

   Z       Zoom    | (available in all menus)
   U       Unzoom  | 

 XFOIL   c>  
 Labeled airfoil file.  Name:  HT 14                                           

 Number of input coordinate points: 140
 Counterclockwise ordering
 Max thickness =     0.074905  at x =   0.188
 Max camber    =    -0.000001  at x =   0.225

  LE  x,y  =  -0.00000   0.00002  |   Chord =   1.00002
  TE  x,y  =   1.00002   0.00000  |

 Current airfoil nodes set from buffer airfoil nodes ( 140 )

 XFOIL   c>  
 XFOIL   c>  
 Blunt trailing edge.  Gap =  0.00189

 Paneling parameters used...
   Number of panel nodes       160
   Panel bunching parameter    1.000
   TE/LE panel density ratio   0.150
   Refined-area/LE panel density ratio    0.200
   Top    side refined area x/c limits  1.000 1.000
   Bottom side refined area x/c limits  1.000 1.000

 XFOIL   c>  
.OPERi   c>  
 Xtr/c     =  1.0000    top    side
 Xtr/c     =  1.0000    bottom side
 Ncrit     =    9.00   ( 0.070 % turb. level )
 Vacc      =  0.0100

 Klag  =  5.6000     Uxwt  =    1.00
 A     =  6.7000     B     =  0.7500       KCt = 0.01485
 CtiniK=  1.8000     CtiniX=  3.3000

..VPAR   c>  
..VPAR   c>  
.OPERi   c>  
 M  =    0.0000
 Re =    500000

.OPERv   c>  
.OPERv   c>  
.OPERv   c>  
 Polar  1 newly created for accumulation
 Airfoil archived with polar: HT 14                                           

Enter  polar save filename  OR  <return> for no file   s>  
 New polar save file available

Enter  polar dump filename  OR  <return> for no file   s>  
 Polar dump file will NOT be written

 Polar accumulation enabled

.OPERva   c>   Calculating unit vorticity distributions ...
 Calculating wake trajectory ...
 Calculating source influence matrix ...

 Solving BL system ...

 Initializing BL ...
    side            1  ...
 MRCHUE: Inverse mode at  75     Hk =   3.800
 MRCHUE: Inverse mode at  76     Hk =   3.961
    side            2  ...
 MRCHUE: Inverse mode at  26     Hk =   4.831
 MRCHUE: Inverse mode at  27     Hk =   6.139
 MRCHUE: Inverse mode at  28     Hk =   7.454
 MRCHUE: Inverse mode at  29     Hk =   8.106
 MRCHUE: Inverse mode at  30     Hk =   2.500

 Side 1 forced transition at x/c =  1.0000   76
 Side 2  free  transition at x/c =  0.1127   29

   1   rms: 0.7319E-01   max: -.8377E+00   C at   76  1   RLX: 0.597
       a = -4.000      CL = -0.4586
      Cm = -0.0014     CD =  0.00935   =>   CDf =  0.00637    CDp =  0.00298

 Side 1 forced transition at x/c =  1.0000   76
 Side 2  free  transition at x/c =  0.1208   30

   2   rms: 0.4635E-01   max: -.5037E+00   C at   76  1   RLX: 0.993
       a = -4.000      CL = -0.4492
      Cm = -0.0024     CD =  0.00893   =>   CDf =  0.00634    CDp =  0.00259

 Side 1 forced transition at x/c =  1.0000   76
 Side 2  free  transition at x/c =  0.1310   31

   3   rms: 0.1123E-01   max: -.9121E-01   T at   31  2
       a = -4.000      CL = -0.4471
      Cm = -0.0028     CD =  0.00900   =>   CDf =  0.00631    CDp =  0.00269

 Side 1 forced transition at x/c =  1.0000   76
 Side 2  free  transition at x/c =  0.1338   31

   4   rms: 0.4951E-03   max: -.7625E-02   D at   32  2
       a = -4.000      CL = -0.4469
      Cm = -0.0028     CD =  0.00902   =>   CDf =  0.00628    CDp =  0.00274

 Side 1 forced transition at x/c =  1.0000   76
 Side 2  free  transition at x/c =  0.1336   31

   5   rms: 0.2066E-05   max: -.3492E-04   D at   32  2
       a = -4.000      CL = -0.4469
      Cm = -0.0028     CD =  0.00902   =>   CDf =  0.00628    CDp =  0.00274
 plradd ia,ip,cpol            1           0  5.96775021E-03

 Point added to stored polar  1
 Point written to save file  ht14_Re500k.base.pol                            
 Dump file unspecified or not available
 Calculating wake trajectory ...
 Calculating source influence matrix ...

 Solving BL system ...

 Side 1 forced transition at x/c =  1.0000   76
 Side 2  free  transition at x/c =  0.1336   31

   1   rms: 0.1019E+00   max: 0.6464E+00   D at   31  2
       a = -3.500      CL = -0.3917
      Cm = -0.0025     CD =  0.00848   =>   CDf =  0.00632    CDp =  0.00216

 Side 1 forced transition at x/c =  1.0000   77
 Side 2  free  transition at x/c =  0.1542   31

   2   rms: 0.1201E-01   max: -.1194E+00   D at   30  2
       a = -3.500      CL = -0.3913
      Cm = -0.0025     CD =  0.00856   =>   CDf =  0.00622    CDp =  0.00234

 Side 1 forced transition at x/c =  1.0000   77
 Side 2  free  transition at x/c =  0.1584   32

   3   rms: 0.6740E-02   max: -.8119E-01   D at   31  2
       a = -3.500      CL = -0.3914
      Cm = -0.0025     CD =  0.00854   =>   CDf =  0.00622    CDp =  0.00232

 Side 1 forced transition at x/c =  1.0000   77
 Side 2  free  transition at x/c =  0.1599   32

   4   rms: 0.8837E-03   max: 0.9913E-02   C at   32  2
       a = -3.500      CL = -0.3914
      Cm = -0.0025     CD =  0.00854   =>   CDf =  0.00619    CDp =  0.00236

 Side 1 forced transition at x/c =  1.0000   77
 Side 2  free  transition at x/c =  0.1596   32

   5   rms: 0.9380E-05   max: -.1304E-03   D at   33  2
       a = -3.500      CL = -0.3914
      Cm = -0.0025     CD =  0.00854   =>   CDf =  0.00619    CDp =  0.00235
 plradd ia,ip,cpol            2           0  1.01741264E-02

 Point added to stored polar  1
 Point written to save file  ht14_Re500k.base.pol                            
 Dump file unspecified or not available
 Calculating wake trajectory ...
 Calculating source influence matrix ...

 Solving BL system ...

 Side 1 forced transition at x/c =  1.0000   77
 Side 2  free  transition at x/c =  0.1596   32

   1   rms: 0.1131E+00   max: 0.8395E+00   D at   32  2   RLX: 0.909
       a = -3.000      CL = -0.3414
      Cm = -0.0023     CD =  0.00794   =>   CDf =  0.00619    CDp =  0.00175

 Side 1 forced transition at x/c =  1.0000   77
 Side 2  free  transition at x/c =  0.1858   33

   2   rms: 0.1711E-01   max: -.1886E+00   C at   33  2
       a = -3.000      CL = -0.3357
      Cm = -0.0022     CD =  0.00810   =>   CDf =  0.00608    CDp =  0.00201

 Side 1 forced transition at x/c =  1.0000   77
 Side 2  free  transition at x/c =  0.1964   34

   3   rms: 0.3223E-02   max: 0.5564E-01   D at   34  2
       a = -3.000      CL = -0.3359
      Cm = -0.0022     CD =  0.00804   =>   CDf =  0.00602    CDp =  0.00203

 Side 1 forced transition at x/c =  1.0000   77
 Side 2  free  transition at x/c =  0.1971   34

   4   rms: 0.1467E-03   max: 0.2723E-02   C at   34  2
       a = -3.000      CL = -0.3359
      Cm = -0.0022     CD =  0.00804   =>   CDf =  0.00601    CDp =  0.00203

 Side 1 forced transition at x/c =  1.0000   77
 Side 2  free  transition at x/c =  0.1971   34

   5   rms: 0.9299E-06   max: 0.6775E-05   C at   34  2
       a = -3.000      CL = -0.3359
      Cm = -0.0022     CD =  0.00804   =>   CDf =  0.00601    CDp =  0.00203
 plradd ia,ip,cpol            3           0  1.56835262E-02

 Point added to stored polar  1
 Point written to save file  ht14_Re500k.base.pol                            
 Dump file unspecified or not available
 Calculating wake trajectory ...
 Calculating source influence matrix ...

 Solving BL system ...

 Side 1 forced transition at x/c =  1.0000   77
 Side 2  free  transition at x/c =  0.1971   34

   1   rms: 0.1088E+00   max: -.1029E+01   C at   34  2   RLX: 0.486
       a = -2.500      CL = -0.3089
      Cm = -0.0021     CD =  0.00784   =>   CDf =  0.00601    CDp =  0.00183

 Side 1 forced transition at x/c =  1.0000   77
 Side 2  free  transition at x/c =  0.2155   35

   2   rms: 0.5143E-01   max: -.3246E+00   T at   35  2
       a = -2.500      CL = -0.2800
      Cm = -0.0019     CD =  0.00776   =>   CDf =  0.00598    CDp =  0.00177

 Side 1 forced transition at x/c =  1.0000   78
 Side 2  free  transition at x/c =  0.2451   36

   3   rms: 0.1963E-01   max: -.2867E+00   C at   36  2
       a = -2.500      CL = -0.2804
      Cm = -0.0019     CD =  0.00757   =>   CDf =  0.00585    CDp =  0.00172

 Side 1 forced transition at x/c =  1.0000   78
 Side 2  free  transition at x/c =  0.2531   37

   4   rms: 0.3222E-02   max: -.4045E-01   D at   38  2
       a = -2.500      CL = -0.2804
      Cm = -0.0020     CD =  0.00755   =>   CDf =  0.00577    CDp =  0.00178

 Side 1 forced transition at x/c =  1.0000   78
 Side 2  free  transition at x/c =  0.2507   37

   5   rms: 0.8356E-04   max: 0.1315E-02   C at   37  2
       a = -2.500      CL = -0.2804
      Cm = -0.0020     CD =  0.00755   =>   CDf =  0.00578    CDp =  0.00178
 plradd ia,ip,cpol            4           0  1.56835262E-02

 Point added to stored polar  1
 Point written to save file  ht14_Re500k.base.pol                            
 Dump file unspecified or not available
 Calculating wake trajectory ...
 Calculating source influence matrix ...

 Solving BL system ...

 Side 1 forced transition at x/c =  1.0000   78
 Side 2  free  transition at x/c =  0.2507   37

   1   rms: 0.1403E+00   max: -.1640E+01   C at   37  2   RLX: 0.305
       a = -2.000      CL = -0.2637
      Cm = -0.0019     CD =  0.00735   =>   CDf =  0.00578    CDp =  0.00157

 Side 1 forced transition at x/c =  1.0000   78
 Side 2  free  transition at x/c =  0.2640   37

   2   rms: 0.6779E-01   max: -.3668E+00   T at   37  2
       a = -2.000      CL = -0.2243
      Cm = -0.0016     CD =  0.00739   =>   CDf =  0.00576    CDp =  0.00163

 Side 1 forced transition at x/c =  1.0000   78
 Side 2  free  transition at x/c =  0.3436   42

   3   rms: 0.4767E-01   max: -.7442E+00   C at   42  2   RLX: 0.672
       a = -2.000      CL = -0.2287
      Cm = -0.0015     CD =  0.00689   =>   CDf =  0.00541    CDp =  0.00148

 Side 1 forced transition at x/c =  1.0000   78
 Side 2  free  transition at x/c =  0.3441   42

   4   rms: 0.1633E-01   max: 0.2407E+00   D at   37  2
       a = -2.000      CL = -0.2255
      Cm = -0.0017     CD =  0.00696   =>   CDf =  0.00542    CDp =  0.00154

 Side 1 forced transition at x/c =  1.0000   78
 Side 2  free  transition at x/c =  0.3256   41

   5   rms: 0.4410E-02   max: -.5739E-01   D at   41  2
       a = -2.000      CL = -0.2253
      Cm = -0.0017     CD =  0.00705   =>   CDf =  0.00546    CDp =  0.00159

 Side 1 forced transition at x/c =  1.0000   78
 Side 2  free  transition at x/c =  0.3221   41

   6   rms: 0.1921E-03   max: -.2677E-02   D at   41  2
       a = -2.000      CL = -0.2252
      Cm = -0.0017     CD =  0.00706   =>   CDf =  0.00546    CDp =  0.00159

 Side 1 forced transition at x/c =  1.0000   78
 Side 2  free  transition at x/c =  0.3221   41

   7   rms: 0.1236E-05   max: -.1227E-04   D at   43  2
       a = -2.000      CL = -0.2252
      Cm = -0.0017     CD =  0.00706   =>   CDf =  0.00546    CDp =  0.00159
 plradd ia,ip,cpol            5           0  2.75268145E-02

 Point added to stored polar  1
 Point written to save file  ht14_Re500k.base.pol                            
 Dump file unspecified or not available
 Calculating wake trajectory ...
 Calculating source influence matrix ...

 Solving BL system ...

 Side 1 forced transition at x/c =  1.0000   78
 Side 2  free  transition at x/c =  0.3221   41

   1   rms: 0.1347E+00   max: -.1991E+01   C at   41  2   RLX: 0.251
       a = -1.500      CL = -0.2114
      Cm = -0.0016     CD =  0.00695   =>   CDf =  0.00546    CDp =  0.00149

 Side 1 forced transition at x/c =  1.0000   79
 Side 2  free  transition at x/c =  0.3390   41

   2   rms: 0.1012E+00   max: -.1403E+01   C at   41  2   RLX: 0.356
       a = -1.500      CL = -0.1964
      Cm = -0.0015     CD =  0.00685   =>   CDf =  0.00540    CDp =  0.00145

 Side 1 forced transition at x/c =  1.0000   79
 Side 2  free  transition at x/c =  0.3569   42

   3   rms: 0.6452E-01   max: -.9616E+00   C at   42  2   RLX: 0.520
       a = -1.500      CL = -0.1825
      Cm = -0.0014     CD =  0.00675   =>   CDf =  0.00533    CDp =  0.00143

 Side 1 forced transition at x/c =  1.0000   79
 Side 2  free  transition at x/c =  0.3758   43

   4   rms: 0.2763E-01   max: -.3357E+00   C at   43  2
       a = -1.500      CL = -0.1699
      Cm = -0.0013     CD =  0.00669   =>   CDf =  0.00526    CDp =  0.00142

 Side 1 forced transition at x/c =  1.0000   79
 Side 2  free  transition at x/c =  0.4080   45

   5   rms: 0.1240E-01   max: -.2349E+00   C at   45  2
       a = -1.500      CL = -0.1703
      Cm = -0.0013     CD =  0.00658   =>   CDf =  0.00515    CDp =  0.00143

 Side 1 forced transition at x/c =  1.0000   79
 Side 2  free  transition at x/c =  0.4056   45

   6   rms: 0.2284E-03   max: 0.3763E-02   D at   47  2
       a = -1.500      CL = -0.1703
      Cm = -0.0013     CD =  0.00659   =>   CDf =  0.00512    CDp =  0.00147

 Side 1 forced transition at x/c =  1.0000   79
 Side 2  free  transition at x/c =  0.4055   45

   7   rms: 0.8147E-06   max: 0.1022E-04   C at   45  2
       a = -1.500      CL = -0.1703
      Cm = -0.0013     CD =  0.00659   =>   CDf =  0.00512    CDp =  0.00147
 plradd ia,ip,cpol            6           0  3.28356959E-02

 Point added to stored polar  1
 Point written to save file  ht14_Re500k.base.pol                            
 Dump file unspecified or not available
 Calculating wake trajectory ...
 Calculating source influence matrix ...

 Solving BL system ...

 Side 1 forced transition at x/c =  1.0000   79
 Side 2  free  transition at x/c =  0.4055   45

   1   rms: 0.1349E+00   max: -.2017E+01   C at   45  2   RLX: 0.248
       a = -1.000      CL = -0.1566
      Cm = -0.0012     CD =  0.00650   =>   CDf =  0.00512    CDp =  0.00138

 Side 1 forced transition at x/c =  1.0000   79
 Side 2  free  transition at x/c =  0.4253   47

   2   rms: 0.1172E+00   max: -.1659E+01   C at   47  2   RLX: 0.301
       a = -1.000      CL = -0.1442
      Cm = -0.0012     CD =  0.00636   =>   CDf =  0.00505    CDp =  0.00131

 Side 1 forced transition at x/c =  1.0000   79
 Side 2  free  transition at x/c =  0.4397   47

   3   rms: 0.6076E-01   max: -.7147E+00   C at   47  2   RLX: 0.700
       a = -1.000      CL = -0.1236
      Cm = -0.0010     CD =  0.00633   =>   CDf =  0.00497    CDp =  0.00135

 Side 1 forced transition at x/c =  1.0000   80
 Side 2  free  transition at x/c =  0.4817   49

   4   rms: 0.3046E-01   max: -.5307E+00   C at   49  2   RLX: 0.942
       a = -1.000      CL = -0.1163
      Cm = -0.0008     CD =  0.00612   =>   CDf =  0.00480    CDp =  0.00132

 Side 1 forced transition at x/c =  1.0000   80
 Side 2  free  transition at x/c =  0.4945   50

   5   rms: 0.8260E-02   max: -.1609E+00   C at   50  2
       a = -1.000      CL = -0.1158
      Cm = -0.0009     CD =  0.00612   =>   CDf =  0.00475    CDp =  0.00138

 Side 1 forced transition at x/c =  1.0000   80
 Side 2  free  transition at x/c =  0.4993   50

   6   rms: 0.2899E-03   max: -.5817E-02   C at   50  2
       a = -1.000      CL = -0.1157
      Cm = -0.0009     CD =  0.00613   =>   CDf =  0.00472    CDp =  0.00140

 Side 1 forced transition at x/c =  1.0000   80
 Side 2  free  transition at x/c =  0.4994   50

   7   rms: 0.1500E-05   max: -.2480E-04   C at   50  2
       a = -1.000      CL = -0.1157
      Cm = -0.0009     CD =  0.00613   =>   CDf =  0.00472    CDp =  0.00141
 plradd ia,ip,cpol            7           0  3.90533879E-02

 Point added to stored polar  1
 Point written to save file  ht14_Re500k.base.pol                            
 Dump file unspecified or not available
 Calculating wake trajectory ...
 Calculating source influence matrix ...

 Solving BL system ...

 Side 1 forced transition at x/c =  1.0000   80
 Side 2  free  transition at x/c =  0.4994   50

   1   rms: 0.1547E+00   max: -.2480E+01   C at   50  2   RLX: 0.202
       a = -0.500      CL = -0.1048
      Cm = -0.0007     CD =  0.00604   =>   CDf =  0.00472    CDp =  0.00132

 Side 1 forced transition at x/c =  1.0000   80
 Side 2  free  transition at x/c =  0.5180   51

   2   rms: 0.1169E+00   max: -.1810E+01   C at   51  2   RLX: 0.276
       a = -0.500      CL = -0.0926
      Cm = -0.0007     CD =  0.00596   =>   CDf =  0.00464    CDp =  0.00132

 Side 1 forced transition at x/c =  1.0000   80
 Side 2  free  transition at x/c =  0.5434   53

   3   rms: 0.1069E+00   max: -.1796E+01   C at   53  2   RLX: 0.278
       a = -0.500      CL = -0.0842
      Cm = -0.0005     CD =  0.00584   =>   CDf =  0.00453    CDp =  0.00130

 Side 1 forced transition at x/c =  1.0000   80
 Side 2  free  transition at x/c =  0.5604   54

   4   rms: 0.7832E-01   max: -.1320E+01   C at   54  2   RLX: 0.379
       a = -0.500      CL = -0.0756
      Cm = -0.0005     CD =  0.00577   =>   CDf =  0.00446    CDp =  0.00130

 Side 1 forced transition at x/c =  1.0000   80
 Side 2  free  transition at x/c =  0.5806   55

   5   rms: 0.5169E-01   max: -.8962E+00   C at   55  2   RLX: 0.558
       a = -0.500      CL = -0.0680
      Cm = -0.0003     CD =  0.00569   =>   CDf =  0.00437    CDp =  0.00132

 Side 1  free  transition at x/c =  0.9866   79
 Side 2  free  transition at x/c =  0.6039   57

   6   rms: 0.4404E-01   max: -.7102E+00   C at   57  2   RLX: 0.704
       a = -0.500      CL = -0.0588
      Cm = -0.0013     CD =  0.00562   =>   CDf =  0.00428    CDp =  0.00134

 Side 1  free  transition at x/c =  0.9854   79
 SETBL: Xtr???  n1 n2:    8.8307209       8.9999828    
 Side 2  free  transition at x/c =  0.6039   57

   7   rms: 0.7359E-01   max: -.1398E+01   C at   57  2   RLX: 0.358
       a = -0.500      CL = -0.0574
      Cm = -0.0016     CD =  0.00558   =>   CDf =  0.00423    CDp =  0.00135

 Side 1  free  transition at x/c =  0.9851   79
 Side 2  free  transition at x/c =  0.6197   58

   8   rms: 0.2109E-01   max: -.3869E+00   C at   58  2
       a = -0.500      CL = -0.0550
      Cm = -0.0018     CD =  0.00555   =>   CDf =  0.00423    CDp =  0.00132

 Side 1  free  transition at x/c =  0.9840   78
 Side 2  free  transition at x/c =  0.6328   58

   9   rms: 0.1264E-02   max: -.2343E-01   C at   58  2
       a = -0.500      CL = -0.0549
      Cm = -0.0017     CD =  0.00556   =>   CDf =  0.00416    CDp =  0.00140

 Side 1  free  transition at x/c =  0.9840   78
 Side 2  free  transition at x/c =  0.6338   58

  10   rms: 0.3201E-04   max: -.5981E-03   C at   58  2
       a = -0.500      CL = -0.0549
      Cm = -0.0017     CD =  0.00556   =>   CDf =  0.00416    CDp =  0.00141
 plradd ia,ip,cpol            8           0  5.47328480E-02

 Point added to stored polar  1
 Point written to save file  ht14_Re500k.base.pol                            
 Dump file unspecified or not available
 Calculating wake trajectory ...
 Calculating source influence matrix ...

 Solving BL system ...

 Side 1  free  transition at x/c =  0.9839   78
 Side 2  free  transition at x/c =  0.6338   58

   1   rms: 0.2359E+00   max: -.3900E+01   C at   58  2   RLX: 0.128
       a =  0.000      CL = -0.0447
      Cm = -0.0024     CD =  0.00549   =>   CDf =  0.00416    CDp =  0.00134

 Side 1  free  transition at x/c =  0.9681   77
 Side 2  free  transition at x/c =  0.6584   60

   2   rms: 0.2394E+00   max: -.3990E+01   C at   60  2   RLX: 0.125
       a =  0.000      CL = -0.0363
      Cm = -0.0027     CD =  0.00542   =>   CDf =  0.00401    CDp =  0.00140

 Side 1  free  transition at x/c =  0.9539   77
 Side 2  free  transition at x/c =  0.6785   60

   3   rms: 0.1903E+00   max: -.2902E+01   C at   60  2   RLX: 0.172
       a =  0.000      CL = -0.0267
      Cm = -0.0030     CD =  0.00537   =>   CDf =  0.00398    CDp =  0.00138

 Side 1  free  transition at x/c =  0.9339   76
 Side 2  free  transition at x/c =  0.7077   62

   4   rms: 0.1666E+00   max: -.2504E+01   C at   62  2   RLX: 0.200
       a =  0.000      CL = -0.0194
      Cm = -0.0028     CD =  0.00528   =>   CDf =  0.00388    CDp =  0.00139

 Side 1  free  transition at x/c =  0.9137   75
 Side 2  free  transition at x/c =  0.7321   63

   5   rms: 0.1104E+00   max: 0.1419E+01   C at   75  1   RLX: 0.417
       a =  0.000      CL = -0.0086
      Cm = -0.0022     CD =  0.00526   =>   CDf =  0.00383    CDp =  0.00143

 Side 1  free  transition at x/c =  0.8758   72
 Side 2  free  transition at x/c =  0.7858   67

   6   rms: 0.7038E-01   max: -.1107E+01   C at   67  2   RLX: 0.452
       a =  0.000      CL = -0.0054
      Cm = -0.0007     CD =  0.00510   =>   CDf =  0.00372    CDp =  0.00138

 Side 1  free  transition at x/c =  0.8515   71
 Side 2  free  transition at x/c =  0.8005   68

   7   rms: 0.4052E-01   max: -.6196E+00   C at   68  2   RLX: 0.807
       a =  0.000      CL = -0.0010
      Cm = -0.0001     CD =  0.00512   =>   CDf =  0.00373    CDp =  0.00139

 Side 1  free  transition at x/c =  0.8302   70
 Side 2  free  transition at x/c =  0.8196   69

   8   rms: 0.9044E-02   max: -.1621E+00   C at   69  2
       a =  0.000      CL =  0.0000
      Cm =  0.0000     CD =  0.00514   =>   CDf =  0.00373    CDp =  0.00141

 Side 1  free  transition at x/c =  0.8275   69
 Side 2  free  transition at x/c =  0.8273   69

   9   rms: 0.1045E-02   max: -.1517E-01   C at   69  2
       a =  0.000      CL =  0.0001
      Cm =  0.0000     CD =  0.00513   =>   CDf =  0.00371    CDp =  0.00143

 Side 1  free  transition at x/c =  0.8271   69
 Side 2  free  transition at x/c =  0.8279   69

  10   rms: 0.8032E-05   max: 0.1413E-03   C at   69  1
       a =  0.000      CL =  0.0001
      Cm =  0.0000     CD =  0.00513   =>   CDf =  0.00371    CDp =  0.00143
 plradd ia,ip,cpol            9           0  6.44184202E-02

 Point added to stored polar  1
 Point written to save file  ht14_Re500k.base.pol                            
 Dump file unspecified or not available
 Calculating wake trajectory ...
 Calculating source influence matrix ...

 Solving BL system ...

 Side 1  free  transition at x/c =  0.8271   69
 Side 2  free  transition at x/c =  0.8279   69

   1   rms: 0.2812E+00   max: 0.3650E+01   C at   69  1   RLX: 0.139
       a =  0.500      CL =  0.0053
      Cm =  0.0008     CD =  0.00514   =>   CDf =  0.00371    CDp =  0.00143

 Side 1  free  transition at x/c =  0.7962   67
 Side 2  free  transition at x/c =  0.8577   71

   2   rms: 0.2104E+00   max: -.2789E+01   C at   71  2   RLX: 0.179
       a =  0.500      CL =  0.0105
      Cm =  0.0021     CD =  0.00515   =>   CDf =  0.00372    CDp =  0.00143

 Side 1  free  transition at x/c =  0.7636   65
 Side 2  free  transition at x/c =  0.8928   73

   3   rms: 0.1319E+00   max: 0.1928E+01   C at   65  1   RLX: 0.431
       a =  0.500      CL =  0.0227
      Cm =  0.0037     CD =  0.00526   =>   CDf =  0.00376    CDp =  0.00150

 Side 1  free  transition at x/c =  0.7022   62
 Side 2  free  transition at x/c =  0.9608   78

   4   rms: 0.1071E+00   max: 0.1383E+01   C at   62  1   RLX: 0.568
       a =  0.500      CL =  0.0430
      Cm =  0.0027     CD =  0.00543   =>   CDf =  0.00395    CDp =  0.00148

 Side 1  free  transition at x/c =  0.6556   60
 Side 2  free  transition at x/c =  0.9705   77

   5   rms: 0.3062E-01   max: 0.3867E+00   C at   60  1
       a =  0.500      CL =  0.0544
      Cm =  0.0020     CD =  0.00556   =>   CDf =  0.00408    CDp =  0.00149

 Side 1  free  transition at x/c =  0.6312   58
 Side 2  free  transition at x/c =  0.9863   79

   6   rms: 0.6118E-02   max: 0.8169E-01   C at   79  2
       a =  0.500      CL =  0.0555
      Cm =  0.0017     CD =  0.00557   =>   CDf =  0.00417    CDp =  0.00140

 Side 1  free  transition at x/c =  0.6327   58
 Side 2  free  transition at x/c =  0.9843   79

   7   rms: 0.3752E-03   max: -.5465E-02   C at   79  2
       a =  0.500      CL =  0.0554
      Cm =  0.0017     CD =  0.00557   =>   CDf =  0.00416    CDp =  0.00141

 Side 1  free  transition at x/c =  0.6327   58
 Side 2  free  transition at x/c =  0.9845   79

   8   rms: 0.2128E-05   max: -.2585E-04   C at   79  2
       a =  0.500      CL =  0.0554
      Cm =  0.0017     CD =  0.00557   =>   CDf =  0.00416    CDp =  0.00141
 plradd ia,ip,cpol           10           0  4.63904701E-02

 Point added to stored polar  1
 Point written to save file  ht14_Re500k.base.pol                            
 Dump file unspecified or not available
 Calculating wake trajectory ...
 Calculating source influence matrix ...

 Solving BL system ...

 Side 1  free  transition at x/c =  0.6327   58
 Side 2  free  transition at x/c =  0.9845   79

   1   rms: 0.2727E+00   max: 0.4341E+01   C at   58  1   RLX: 0.346
       a =  1.000      CL =  0.0887
      Cm = -0.0012     CD =  0.00577   =>   CDf =  0.00416    CDp =  0.00161

 Side 1  free  transition at x/c =  0.5599   54
 Side 2 forced transition at x/c =  1.0000   80

   2   rms: 0.8775E-01   max: 0.1163E+01   C at   54  1
       a =  1.000      CL =  0.1143
      Cm =  0.0012     CD =  0.00613   =>   CDf =  0.00446    CDp =  0.00167

 Side 1  free  transition at x/c =  0.4930   50
 Side 2 forced transition at x/c =  1.0000   80

   3   rms: 0.1751E-01   max: -.2405E+00   C at   50  1
       a =  1.000      CL =  0.1160
      Cm =  0.0009     CD =  0.00611   =>   CDf =  0.00477    CDp =  0.00135

 Side 1  free  transition at x/c =  0.5001   50
 Side 2 forced transition at x/c =  1.0000   80

   4   rms: 0.2115E-02   max: 0.3594E-01   C at   50  1
       a =  1.000      CL =  0.1160
      Cm =  0.0009     CD =  0.00613   =>   CDf =  0.00472    CDp =  0.00141

 Side 1  free  transition at x/c =  0.4990   50
 Side 2 forced transition at x/c =  1.0000   80

   5   rms: 0.2255E-04   max: -.3271E-03   D at   52  1
       a =  1.000      CL =  0.1160
      Cm =  0.0009     CD =  0.00613   =>   CDf =  0.00472    CDp =  0.00141
 plradd ia,ip,cpol           11           0  3.91176306E-02

 Point added to stored polar  1
 Point written to save file  ht14_Re500k.base.pol                            
 Dump file unspecified or not available
 Calculating wake trajectory ...
 Calculating source influence matrix ...

 Solving BL system ...

 Side 1  free  transition at x/c =  0.4990   50
 Side 2 forced transition at x/c =  1.0000   80

   1   rms: 0.1555E+00   max: 0.2497E+01   C at   50  1   RLX: 0.601
       a =  1.500      CL =  0.1486
      Cm =  0.0012     CD =  0.00640   =>   CDf =  0.00475    CDp =  0.00165

 Side 1  free  transition at x/c =  0.4362   47
 Side 2 forced transition at x/c =  1.0000   79

   2   rms: 0.4178E-01   max: 0.2696E+00   C at   47  1
       a =  1.500      CL =  0.1707
      Cm =  0.0013     CD =  0.00654   =>   CDf =  0.00500    CDp =  0.00153

 Side 1  free  transition at x/c =  0.4003   45
 Side 2 forced transition at x/c =  1.0000   79

   3   rms: 0.9318E-02   max: -.1770E+00   C at   45  1
       a =  1.500      CL =  0.1705
      Cm =  0.0013     CD =  0.00659   =>   CDf =  0.00515    CDp =  0.00144

 Side 1  free  transition at x/c =  0.4053   45
 Side 2 forced transition at x/c =  1.0000   79

   4   rms: 0.5253E-03   max: 0.1012E-01   C at   45  1
       a =  1.500      CL =  0.1705
      Cm =  0.0013     CD =  0.00659   =>   CDf =  0.00512    CDp =  0.00147

 Side 1  free  transition at x/c =  0.4050   45
 Side 2 forced transition at x/c =  1.0000   79

   5   rms: 0.1313E-05   max: -.1849E-04   D at   47  1
       a =  1.500      CL =  0.1705
      Cm =  0.0013     CD =  0.00659   =>   CDf =  0.00512    CDp =  0.00147
 plradd ia,ip,cpol           12           0  3.28903198E-02

 Point added to stored polar  1
 Point written to save file  ht14_Re500k.base.pol                            
 Dump file unspecified or not available
 Calculating wake trajectory ...
 Calculating source influence matrix ...

 Solving BL system ...

 Side 1  free  transition at x/c =  0.4050   45
 Side 2 forced transition at x/c =  1.0000   79

   1   rms: 0.1375E+00   max: 0.2083E+01   C at   45  1   RLX: 0.720
       a =  2.000      CL =  0.2102
      Cm =  0.0016     CD =  0.00688   =>   CDf =  0.00512    CDp =  0.00176

 Side 1  free  transition at x/c =  0.3400   41
 Side 2 forced transition at x/c =  1.0000   79

   2   rms: 0.2934E-01   max: -.1942E+00   D at   41  1
       a =  2.000      CL =  0.2256
      Cm =  0.0017     CD =  0.00701   =>   CDf =  0.00542    CDp =  0.00159

 Side 1  free  transition at x/c =  0.3198   41
 Side 2 forced transition at x/c =  1.0000   78

   3   rms: 0.4731E-02   max: -.8596E-01   C at   41  1
       a =  2.000      CL =  0.2255
      Cm =  0.0017     CD =  0.00706   =>   CDf =  0.00548    CDp =  0.00158

 Side 1  free  transition at x/c =  0.3216   41
 Side 2 forced transition at x/c =  1.0000   78

   4   rms: 0.4317E-03   max: -.4679E-02   D at    4  1
       a =  2.000      CL =  0.2255
      Cm =  0.0017     CD =  0.00706   =>   CDf =  0.00546    CDp =  0.00159

 Side 1  free  transition at x/c =  0.3216   41
 Side 2 forced transition at x/c =  1.0000   78

   5   rms: 0.1535E-05   max: -.2754E-04   C at   41  1
       a =  2.000      CL =  0.2255
      Cm =  0.0017     CD =  0.00706   =>   CDf =  0.00546    CDp =  0.00159
 plradd ia,ip,cpol           13           0  2.75734551E-02

 Point added to stored polar  1
 Point written to save file  ht14_Re500k.base.pol                            
 Dump file unspecified or not available
 Calculating wake trajectory ...
 Calculating source influence matrix ...

 Solving BL system ...

 Side 1  free  transition at x/c =  0.3216   41
 Side 2 forced transition at x/c =  1.0000   78

   1   rms: 0.1367E+00   max: 0.2031E+01   C at   41  1   RLX: 0.685
       a =  2.500      CL =  0.2633
      Cm =  0.0019     CD =  0.00737   =>   CDf =  0.00546    CDp =  0.00191

 Side 1  free  transition at x/c =  0.2706   38
 Side 2 forced transition at x/c =  1.0000   78

   2   rms: 0.3643E-01   max: -.3191E+00   D at   38  1
       a =  2.500      CL =  0.2807
      Cm =  0.0020     CD =  0.00755   =>   CDf =  0.00570    CDp =  0.00185

 Side 1  free  transition at x/c =  0.2501   37
 Side 2 forced transition at x/c =  1.0000   78

   3   rms: 0.3888E-02   max: 0.4680E-01   D at   37  1
       a =  2.500      CL =  0.2807
      Cm =  0.0020     CD =  0.00756   =>   CDf =  0.00579    CDp =  0.00177

 Side 1  free  transition at x/c =  0.2506   37
 Side 2 forced transition at x/c =  1.0000   78

   4   rms: 0.2782E-03   max: 0.4521E-02   C at   37  1
       a =  2.500      CL =  0.2807
      Cm =  0.0020     CD =  0.00756   =>   CDf =  0.00578    CDp =  0.00178

 Side 1  free  transition at x/c =  0.2505   37
 Side 2 forced transition at x/c =  1.0000   78

   5   rms: 0.1310E-05   max: -.3938E-05   T at   71  1
       a =  2.500      CL =  0.2807
      Cm =  0.0020     CD =  0.00756   =>   CDf =  0.00578    CDp =  0.00178
 plradd ia,ip,cpol           14           0  1.57137178E-02

 Point added to stored polar  1
 Point written to save file  ht14_Re500k.base.pol                            
 Dump file unspecified or not available
 Calculating wake trajectory ...
 Calculating source influence matrix ...

 Solving BL system ...

 Side 1  free  transition at x/c =  0.2505   37
 Side 2 forced transition at x/c =  1.0000   78

   1   rms: 0.1401E+00   max: 0.1600E+01   C at   37  1   RLX: 0.500
       a =  3.000      CL =  0.3081
      Cm =  0.0021     CD =  0.00790   =>   CDf =  0.00577    CDp =  0.00213

 Side 1  free  transition at x/c =  0.2224   36
 Side 2 forced transition at x/c =  1.0000   77

   2   rms: 0.2085E+00   max: 0.3433E+01   D at    2  1   RLX: 0.307
       a =  3.000      CL =  0.3165
      Cm =  0.0021     CD =  0.00788   =>   CDf =  0.00589    CDp =  0.00199

 Side 1  free  transition at x/c =  0.2150   35
 Side 2 forced transition at x/c =  1.0000   77

   3   rms: 0.3723E-01   max: -.2226E+00   D at   36  1
       a =  3.000      CL =  0.3363
      Cm =  0.0022     CD =  0.00799   =>   CDf =  0.00593    CDp =  0.00206

 Side 1  free  transition at x/c =  0.1961   34
 Side 2 forced transition at x/c =  1.0000   77

   4   rms: 0.6020E-02   max: -.9824E-01   C at   34  1
       a =  3.000      CL =  0.3361
      Cm =  0.0022     CD =  0.00804   =>   CDf =  0.00602    CDp =  0.00202

 Side 1  free  transition at x/c =  0.1969   34
 Side 2 forced transition at x/c =  1.0000   77

   5   rms: 0.3790E-03   max: 0.7229E-02   C at   34  1
       a =  3.000      CL =  0.3361
      Cm =  0.0022     CD =  0.00804   =>   CDf =  0.00601    CDp =  0.00204

 Side 1  free  transition at x/c =  0.1967   34
 Side 2 forced transition at x/c =  1.0000   77

   6   rms: 0.1365E-05   max: -.1274E-04   D at   34  1
       a =  3.000      CL =  0.3361
      Cm =  0.0022     CD =  0.00804   =>   CDf =  0.00601    CDp =  0.00203
 plradd ia,ip,cpol           15           0  1.57137178E-02

 Point added to stored polar  1
 Point written to save file  ht14_Re500k.base.pol                            
 Dump file unspecified or not available
 Calculating wake trajectory ...
 Calculating source influence matrix ...

 Solving BL system ...

 Side 1  free  transition at x/c =  0.1967   34
 Side 2 forced transition at x/c =  1.0000   77

   1   rms: 0.1101E+00   max: 0.1066E+01   C at   34  1   RLX: 0.850
       a =  3.500      CL =  0.3835
      Cm =  0.0025     CD =  0.00843   =>   CDf =  0.00601    CDp =  0.00242

 Side 1  free  transition at x/c =  0.1655   32
 Side 2 forced transition at x/c =  1.0000   77

   2   rms: 0.2437E-01   max: -.3161E+00   D at   32  1
       a =  3.500      CL =  0.3917
      Cm =  0.0025     CD =  0.00853   =>   CDf =  0.00617    CDp =  0.00236

 Side 1  free  transition at x/c =  0.1597   32
 Side 2 forced transition at x/c =  1.0000   77

   3   rms: 0.1483E-02   max: -.2381E-01   D at   32  1
       a =  3.500      CL =  0.3916
      Cm =  0.0025     CD =  0.00855   =>   CDf =  0.00619    CDp =  0.00236

 Side 1  free  transition at x/c =  0.1594   32
 Side 2 forced transition at x/c =  1.0000   77

   4   rms: 0.2334E-04   max: -.2818E-03   D at   32  1
       a =  3.500      CL =  0.3916
      Cm =  0.0025     CD =  0.00855   =>   CDf =  0.00619    CDp =  0.00236
 plradd ia,ip,cpol           16           0  7.94790685E-03

 Point added to stored polar  1
 Point written to save file  ht14_Re500k.base.pol                            
 Dump file unspecified or not available
 Calculating wake trajectory ...
 Calculating source influence matrix ...

 Solving BL system ...

 Side 1  free  transition at x/c =  0.1594   32
 Side 2 forced transition at x/c =  1.0000   77

   1   rms: 0.1141E+00   max: -.8457E+00   D at   32  1   RLX: 0.591
       a =  4.000      CL =  0.4243
      Cm =  0.0026     CD =  0.00896   =>   CDf =  0.00616    CDp =  0.00279

 Side 1  free  transition at x/c =  0.1431   32
 Side 2 forced transition at x/c =  1.0000   76

   2   rms: 0.5198E-01   max: -.4698E+00   D at   33  1
       a =  4.000      CL =  0.4469
      Cm =  0.0028     CD =  0.00917   =>   CDf =  0.00628    CDp =  0.00288

 Side 1  free  transition at x/c =  0.1319   31
 Side 2 forced transition at x/c =  1.0000   76

   3   rms: 0.3518E-01   max: -.4568E+00   D at   31  1
       a =  4.000      CL =  0.4474
      Cm =  0.0028     CD =  0.00894   =>   CDf =  0.00628    CDp =  0.00266

 Side 1  free  transition at x/c =  0.1352   31
 Side 2 forced transition at x/c =  1.0000   76

   4   rms: 0.6110E-02   max: 0.9116E-01   C at   31  1
       a =  4.000      CL =  0.4472
      Cm =  0.0028     CD =  0.00902   =>   CDf =  0.00627    CDp =  0.00275

 Side 1  free  transition at x/c =  0.1335   31
 Side 2 forced transition at x/c =  1.0000   76

   5   rms: 0.1907E-03   max: -.2752E-02   D at   31  1
       a =  4.000      CL =  0.4472
      Cm =  0.0028     CD =  0.00902   =>   CDf =  0.00628    CDp =  0.00274

 Side 1  free  transition at x/c =  0.1335   31
 Side 2 forced transition at x/c =  1.0000   76

   6   rms: 0.1384E-05   max: -.4049E-05   C at   49  1
       a =  4.000      CL =  0.4472
      Cm =  0.0028     CD =  0.00902   =>   CDf =  0.00628    CDp =  0.00274
 plradd ia,ip,cpol           17           0  5.98588120E-03

 Point added to stored polar  1
 Point written to save file  ht14_Re500k.base.pol                            
 Dump file unspecified or not available
 Calculating wake trajectory ...
 Calculating source influence matrix ...

 Solving BL system ...

 Side 1  free  transition at x/c =  0.1335   31
 Side 2 forced transition at x/c =  1.0000   76

   1   rms: 0.1025E+00   max: -.6658E+00   D at   31  1   RLX: 0.751
       a =  4.500      CL =  0.4888
      Cm =  0.0030     CD =  0.00944   =>   CDf =  0.00624    CDp =  0.00320

 Side 1  free  transition at x/c =  0.1186   31
 Side 2 forced transition at x/c =  1.0000   75

   2   rms: 0.4977E-01   max: -.5510E+00   D at   31  1   RLX: 0.907
       a =  4.500      CL =  0.5018
      Cm =  0.0031     CD =  0.00934   =>   CDf =  0.00630    CDp =  0.00304

 Side 1  free  transition at x/c =  0.1149   31
 Side 2 forced transition at x/c =  1.0000   75

   3   rms: 0.1043E-01   max: -.1587E+00   D at   31  1
       a =  4.500      CL =  0.5025
      Cm =  0.0031     CD =  0.00960   =>   CDf =  0.00634    CDp =  0.00325

 Side 1  free  transition at x/c =  0.1125   30
 Side 2 forced transition at x/c =  1.0000   75

   4   rms: 0.5283E-02   max: -.5207E-01   C at   30  1
       a =  4.500      CL =  0.5026
      Cm =  0.0031     CD =  0.00956   =>   CDf =  0.00637    CDp =  0.00320

 Side 1  free  transition at x/c =  0.1125   30
 Side 2 forced transition at x/c =  1.0000   75

   5   rms: 0.8666E-04   max: -.1137E-02   D at   31  1
       a =  4.500      CL =  0.5026
      Cm =  0.0031     CD =  0.00957   =>   CDf =  0.00636    CDp =  0.00320
 plradd ia,ip,cpol           18           0  2.83617410E-03

 Point added to stored polar  1
 Point written to save file  ht14_Re500k.base.pol                            
 Dump file unspecified or not available
 Calculating wake trajectory ...
 Calculating source influence matrix ...

 Solving BL system ...

 Side 1  free  transition at x/c =  0.1125   30
 Side 2 forced transition at x/c =  1.0000   75

   1   rms: 0.9514E-01   max: -.5487E+00   C at   30  1   RLX: 0.911
       a =  5.000      CL =  0.5537
      Cm =  0.0034     CD =  0.00980   =>   CDf =  0.00636    CDp =  0.00344

 Side 1  free  transition at x/c =  0.0973   29
 Side 2 forced transition at x/c =  1.0000   75

   2   rms: 0.2446E-01   max: -.2598E+00   D at   29  1
       a =  5.000      CL =  0.5582
      Cm =  0.0034     CD =  0.01000   =>   CDf =  0.00639    CDp =  0.00361

 Side 1  free  transition at x/c =  0.0952   29
 Side 2 forced transition at x/c =  1.0000   75

   3   rms: 0.2178E-02   max: 0.2397E-01   T at   29  1
       a =  5.000      CL =  0.5580
      Cm =  0.0034     CD =  0.01006   =>   CDf =  0.00638    CDp =  0.00368

 Side 1  free  transition at x/c =  0.0946   29
 Side 2 forced transition at x/c =  1.0000   75

   4   rms: 0.5852E-04   max: -.7915E-03   D at   29  1
       a =  5.000      CL =  0.5580
      Cm =  0.0034     CD =  0.01006   =>   CDf =  0.00638    CDp =  0.00368
 plradd ia,ip,cpol           19           0  1.64521695E-03

 Point added to stored polar  1
 Point written to save file  ht14_Re500k.base.pol                            
 Dump file unspecified or not available
 Calculating wake trajectory ...
 Calculating source influence matrix ...

 Solving BL system ...

 Side 1  free  transition at x/c =  0.0946   29
 Side 2 forced transition at x/c =  1.0000   75

   1   rms: 0.9749E-01   max: -.5539E+00   D at   29  1   RLX: 0.903
       a =  5.500      CL =  0.6081
      Cm =  0.0037     CD =  0.01050   =>   CDf =  0.00631    CDp =  0.00419

 Side 1  free  transition at x/c =  0.0803   29
 Side 2 forced transition at x/c =  1.0000   74

   2   rms: 0.5447E-01   max: -.5214E+00   D at   29  1   RLX: 0.959
       a =  5.500      CL =  0.6134
      Cm =  0.0037     CD =  0.01043   =>   CDf =  0.00636    CDp =  0.00407

 Side 1  free  transition at x/c =  0.0785   29
 Side 2 forced transition at x/c =  1.0000   74

   3   rms: 0.7608E-02   max: -.1079E+00   D at   30  1
       a =  5.500      CL =  0.6130
      Cm =  0.0037     CD =  0.01066   =>   CDf =  0.00642    CDp =  0.00424

 Side 1  free  transition at x/c =  0.0769   29
 Side 2 forced transition at x/c =  1.0000   74

   4   rms: 0.9856E-03   max: -.1115E-01   D at   30  1
       a =  5.500      CL =  0.6129
      Cm =  0.0037     CD =  0.01068   =>   CDf =  0.00644    CDp =  0.00424

 Side 1  free  transition at x/c =  0.0767   29
 Side 2 forced transition at x/c =  1.0000   74

   5   rms: 0.3451E-04   max: -.3820E-03   D at   29  1
       a =  5.500      CL =  0.6129
      Cm =  0.0037     CD =  0.01068   =>   CDf =  0.00645    CDp =  0.00424
 plradd ia,ip,cpol           20           0  1.64521695E-03

 Point added to stored polar  1
 Point written to save file  ht14_Re500k.base.pol                            
 Dump file unspecified or not available
 Calculating wake trajectory ...
 Calculating source influence matrix ...

 Solving BL system ...

 Side 1  free  transition at x/c =  0.0767   29
 Side 2 forced transition at x/c =  1.0000   74

   1   rms: 0.1218E+00   max: -.7018E+00   D at   29  1   RLX: 0.712
       a =  6.000      CL =  0.6510
      Cm =  0.0040     CD =  0.01162   =>   CDf =  0.00636    CDp =  0.00526

 Side 1  free  transition at x/c =  0.0651   29
 Side 2 forced transition at x/c =  1.0000   73

   2   rms: 0.4718E-01   max: -.3363E+00   D at   30  1
       a =  6.000      CL =  0.6670
      Cm =  0.0041     CD =  0.01164   =>   CDf =  0.00652    CDp =  0.00512

 Side 1  free  transition at x/c =  0.0606   28
 Side 2 forced transition at x/c =  1.0000   73

   3   rms: 0.3311E-01   max: -.3617E+00   D at   28  1
       a =  6.000      CL =  0.6678
      Cm =  0.0040     CD =  0.01130   =>   CDf =  0.00643    CDp =  0.00488

 Side 1  free  transition at x/c =  0.0621   28
 Side 2 forced transition at x/c =  1.0000   73

   4   rms: 0.3025E-02   max: 0.3230E-01   D at   28  1
       a =  6.000      CL =  0.6677
      Cm =  0.0041     CD =  0.01134   =>   CDf =  0.00644    CDp =  0.00490

 Side 1  free  transition at x/c =  0.0617   28
 Side 2 forced transition at x/c =  1.0000   73

   5   rms: 0.4032E-04   max: -.5039E-03   D at   29  1
       a =  6.000      CL =  0.6677
      Cm =  0.0041     CD =  0.01134   =>   CDf =  0.00644    CDp =  0.00490
 plradd ia,ip,cpol           21           0  1.64521695E-03

 Point added to stored polar  1
 Point written to save file  ht14_Re500k.base.pol                            
 Dump file unspecified or not available
 Calculating wake trajectory ...
 Calculating source influence matrix ...

 Solving BL system ...

 Side 1  free  transition at x/c =  0.0617   28
 Side 2 forced transition at x/c =  1.0000   73

   1   rms: 0.9583E-01   max: 0.5994E+00   T at   28  1
       a =  6.500      CL =  0.7230
      Cm =  0.0045     CD =  0.01186   =>   CDf =  0.00644    CDp =  0.00542

 MRCHDU: Convergence failed at  28  side 1    Res =  0.1026E+01
 Side 1  free  transition at x/c =  0.0503   27
 Side 2 forced transition at x/c =  1.0000   73

   2   rms: 0.7723E-01   max: -.6239E+00   D at   28  1   RLX: 0.801
       a =  6.500      CL =  0.7237
      Cm =  0.0045     CD =  0.01204   =>   CDf =  0.00624    CDp =  0.00580

 Side 1  free  transition at x/c =  0.0502   27
 Side 2 forced transition at x/c =  1.0000   73

   3   rms: 0.8221E-02   max: -.1206E+00   D at   27  1
       a =  6.500      CL =  0.7220
      Cm =  0.0044     CD =  0.01209   =>   CDf =  0.00643    CDp =  0.00566

 Side 1  free  transition at x/c =  0.0491   27
 Side 2 forced transition at x/c =  1.0000   73

   4   rms: 0.2460E-03   max: -.2019E-02   D at   29  1
       a =  6.500      CL =  0.7220
      Cm =  0.0044     CD =  0.01210   =>   CDf =  0.00645    CDp =  0.00565

 Side 1  free  transition at x/c =  0.0491   27
 Side 2 forced transition at x/c =  1.0000   73

   5   rms: 0.2336E-05   max: -.2575E-04   D at    4  2
       a =  6.500      CL =  0.7220
      Cm =  0.0044     CD =  0.01210   =>   CDf =  0.00645    CDp =  0.00565
 plradd ia,ip,cpol           22           0  1.64521695E-03

 Point added to stored polar  1
 Point written to save file  ht14_Re500k.base.pol                            
 Dump file unspecified or not available
 Calculating wake trajectory ...
 Calculating source influence matrix ...

 Solving BL system ...

 Side 1  free  transition at x/c =  0.0491   27
 Side 2 forced transition at x/c =  1.0000   73

   1   rms: 0.1089E+00   max: -.7475E+00   D at   27  1   RLX: 0.669
       a =  7.000      CL =  0.7578
      Cm =  0.0047     CD =  0.01276   =>   CDf =  0.00631    CDp =  0.00646

 Side 1  free  transition at x/c =  0.0430   27
 Side 2 forced transition at x/c =  1.0000   72

   2   rms: 0.5907E-01   max: -.5233E+00   D at   28  1   RLX: 0.955
       a =  7.000      CL =  0.7760
      Cm =  0.0048     CD =  0.01267   =>   CDf =  0.00636    CDp =  0.00631

 Side 1  free  transition at x/c =  0.0395   27
 Side 2 forced transition at x/c =  1.0000   72

   3   rms: 0.1102E-01   max: -.9565E-01   D at   28  1
       a =  7.000      CL =  0.7749
      Cm =  0.0049     CD =  0.01327   =>   CDf =  0.00645    CDp =  0.00682

 Side 1  free  transition at x/c =  0.0386   26
 Side 2 forced transition at x/c =  1.0000   72

   4   rms: 0.9257E-02   max: -.9269E-01   D at   26  1
       a =  7.000      CL =  0.7753
      Cm =  0.0049     CD =  0.01313   =>   CDf =  0.00645    CDp =  0.00669

 Side 1  free  transition at x/c =  0.0388   26
 Side 2 forced transition at x/c =  1.0000   72

   5   rms: 0.9073E-04   max: 0.1099E-02   T at   26  1
       a =  7.000      CL =  0.7753
      Cm =  0.0049     CD =  0.01314   =>   CDf =  0.00645    CDp =  0.00668
 plradd ia,ip,cpol           23           0  1.64521695E-03

 Point added to stored polar  1
 Point written to save file  ht14_Re500k.base.pol                            
 Dump file unspecified or not available
 Calculating wake trajectory ...
 Calculating source influence matrix ...

 Solving BL system ...

 Side 1  free  transition at x/c =  0.0388   26
 Side 2 forced transition at x/c =  1.0000   72

   1   rms: 0.9897E-01   max: -.8091E+00   C at   26  1   RLX: 0.618
       a =  7.500      CL =  0.8093
      Cm =  0.0052     CD =  0.01341   =>   CDf =  0.00627    CDp =  0.00714

 Side 1  free  transition at x/c =  0.0341   27
 Side 2 forced transition at x/c =  1.0000   71

   2   rms: 0.1321E+00   max: 0.2178E+01   D at    2  1   RLX: 0.489
       a =  7.500      CL =  0.8183
      Cm =  0.0052     CD =  0.01403   =>   CDf =  0.00639    CDp =  0.00764

 Side 1  free  transition at x/c =  0.0329   26
 Side 2 forced transition at x/c =  1.0000   71

   3   rms: 0.2354E-01   max: -.2472E+00   C at   26  1
       a =  7.500      CL =  0.8288
      Cm =  0.0053     CD =  0.01403   =>   CDf =  0.00640    CDp =  0.00763

 Side 1  free  transition at x/c =  0.0314   26
 Side 2 forced transition at x/c =  1.0000   71

   4   rms: 0.1281E-02   max: -.4197E-02   D at   27  1
       a =  7.500      CL =  0.8284
      Cm =  0.0053     CD =  0.01414   =>   CDf =  0.00636    CDp =  0.00778

 Side 1  free  transition at x/c =  0.0313   26
 Side 2 forced transition at x/c =  1.0000   71

   5   rms: 0.1454E-04   max: -.1467E-03   D at   26  1
       a =  7.500      CL =  0.8284
      Cm =  0.0053     CD =  0.01414   =>   CDf =  0.00636    CDp =  0.00778
 plradd ia,ip,cpol           24           0  1.64521695E-03

 Point added to stored polar  1
 Point written to save file  ht14_Re500k.base.pol                            
 Dump file unspecified or not available
 Calculating wake trajectory ...
 Calculating source influence matrix ...

 Solving BL system ...

 Side 1  free  transition at x/c =  0.0313   26
 Side 2 forced transition at x/c =  1.0000   71

   1   rms: 0.9701E-01   max: 0.6699E+00   T at   26  1
       a =  8.000      CL =  0.8819
      Cm =  0.0059     CD =  0.01501   =>   CDf =  0.00637    CDp =  0.00865

 Side 1  free  transition at x/c =  0.0256   25
 Side 2 forced transition at x/c =  1.0000   71

   2   rms: 0.5833E-01   max: -.3989E+00   D at   25  1
       a =  8.000      CL =  0.8810
      Cm =  0.0057     CD =  0.01518   =>   CDf =  0.00619    CDp =  0.00899

 Side 1  free  transition at x/c =  0.0254   25
 Side 2 forced transition at x/c =  1.0000   71

   3   rms: 0.3421E-02   max: 0.3222E-01   D at   25  1
       a =  8.000      CL =  0.8805
      Cm =  0.0058     CD =  0.01531   =>   CDf =  0.00629    CDp =  0.00902

 Side 1  free  transition at x/c =  0.0253   25
 Side 2 forced transition at x/c =  1.0000   71

   4   rms: 0.3077E-04   max: -.3047E-03   D at   25  1
       a =  8.000      CL =  0.8805
      Cm =  0.0058     CD =  0.01531   =>   CDf =  0.00628    CDp =  0.00903
 plradd ia,ip,cpol           25           0  1.64521695E-03

 Point added to stored polar  1
 Point written to save file  ht14_Re500k.base.pol                            
 Dump file unspecified or not available
 Calculating wake trajectory ...
 Calculating source influence matrix ...

 Solving BL system ...

 Side 1  free  transition at x/c =  0.0253   25
 Side 2 forced transition at x/c =  1.0000   71

   1   rms: 0.9790E-01   max: 0.6711E+00   T at   25  1
       a =  8.500      CL =  0.9331
      Cm =  0.0064     CD =  0.01631   =>   CDf =  0.00603    CDp =  0.01028

 MRCHDU: Convergence failed at  26  side 1    Res =  0.3935E+01
 MRCHDU: Convergence failed at  27  side 1    Res =  0.6593E+01
 MRCHDU: Convergence failed at  28  side 1    Res =  0.3881E+01
 MRCHDU: Convergence failed at  29  side 1    Res =  0.3037E+01
 MRCHDU: Convergence failed at  30  side 1    Res =  0.2692E+01
 MRCHDU: Convergence failed at  31  side 1    Res =  0.4556E+01
 MRCHDU: Convergence failed at  32  side 1    Res =  0.7410E+01
 MRCHDU: Convergence failed at  33  side 1    Res =  0.1188E+02
 MRCHDU: Convergence failed at  34  side 1    Res =  0.1665E+02
 MRCHDU: Convergence failed at  35  side 1    Res =  0.1398E+02
 MRCHDU: Convergence failed at  36  side 1    Res =  0.1432E+02
 MRCHDU: Convergence failed at  37  side 1    Res =  0.3798E+02
 MRCHDU: Convergence failed at  38  side 1    Res =  0.4949E+02
 MRCHDU: Convergence failed at  39  side 1    Res =  0.4908E+02
 MRCHDU: Convergence failed at  40  side 1    Res =  0.4957E+02
 MRCHDU: Convergence failed at  41  side 1    Res =  0.6299E+02
 MRCHDU: Convergence failed at  42  side 1    Res =  0.6938E+02
 MRCHDU: Convergence failed at  43  side 1    Res =  0.5550E+02
 MRCHDU: Convergence failed at  44  side 1    Res =  0.6736E+02
 MRCHDU: Convergence failed at  45  side 1    Res =  0.7838E+02
 MRCHDU: Convergence failed at  46  side 1    Res =  0.4625E+02
 MRCHDU: Convergence failed at  47  side 1    Res =  0.5405E+02
 MRCHDU: Convergence failed at  48  side 1    Res =  0.4370E+02
 MRCHDU: Convergence failed at  49  side 1    Res =  0.5277E+02
 MRCHDU: Convergence failed at  50  side 1    Res =  0.6046E+02
 MRCHDU: Convergence failed at  51  side 1    Res =  0.3163E+02
 MRCHDU: Convergence failed at  52  side 1    Res =  0.3442E+02
 MRCHDU: Convergence failed at  53  side 1    Res =  0.3721E+02
 MRCHDU: Convergence failed at  54  side 1    Res =  0.2643E+02
 MRCHDU: Convergence failed at  55  side 1    Res =  0.2816E+02
 MRCHDU: Convergence failed at  56  side 1    Res =  0.2987E+02
 MRCHDU: Convergence failed at  57  side 1    Res =  0.3181E+02
 MRCHDU: Convergence failed at  58  side 1    Res =  0.3513E+02
 MRCHDU: Convergence failed at  59  side 1    Res =  0.3723E+02
 MRCHDU: Convergence failed at  60  side 1    Res =  0.3964E+02
 MRCHDU: Convergence failed at  61  side 1    Res =  0.3131E+02
 MRCHDU: Convergence failed at  62  side 1    Res =  0.4572E+02
 MRCHDU: Convergence failed at  63  side 1    Res =  0.4842E+02
 MRCHDU: Convergence failed at  64  side 1    Res =  0.5135E+02
 MRCHDU: Convergence failed at  65  side 1    Res =  0.5446E+02
 MRCHDU: Convergence failed at  66  side 1    Res =  0.5780E+02
 MRCHDU: Convergence failed at  67  side 1    Res =  0.6164E+02
 MRCHDU: Convergence failed at  68  side 1    Res =  0.6565E+02
 MRCHDU: Convergence failed at  69  side 1    Res =  0.6996E+02
 MRCHDU: Convergence failed at  70  side 1    Res =  0.7488E+02
 MRCHDU: Convergence failed at  71  side 1    Res =  0.8016E+02
 MRCHDU: Convergence failed at  72  side 1    Res =  0.8626E+02
 MRCHDU: Convergence failed at  73  side 1    Res =  0.9362E+02
 MRCHDU: Convergence failed at  74  side 1    Res =  0.1016E+03
 MRCHDU: Convergence failed at  75  side 1    Res =  0.1112E+03
 MRCHDU: Convergence failed at  76  side 1    Res =  0.1229E+03
 MRCHDU: Convergence failed at  77  side 1    Res =  0.1362E+03
 MRCHDU: Convergence failed at  78  side 1    Res =  0.1537E+03
 MRCHDU: Convergence failed at  79  side 1    Res =  0.1754E+03
 MRCHDU: Convergence failed at  80  side 1    Res =  0.2059E+03
 MRCHDU: Convergence failed at  81  side 1    Res =  0.2483E+03
 MRCHDU: Convergence failed at  82  side 1    Res =  0.3144E+03
 MRCHDU: Convergence failed at  83  side 1    Res =  0.4325E+03
 MRCHDU: Convergence failed at  84  side 1    Res =  0.6860E+03
 MRCHDU: Convergence failed at  85  side 1    Res =  0.3691E+02
 MRCHDU: Convergence failed at  86  side 1    Res =  0.9369E+02
 MRCHDU: Convergence failed at  87  side 1    Res =  0.1141E+03
 MRCHDU: Convergence failed at  88  side 1    Res =  0.1519E+03
 MRCHDU: Convergence failed at  89  side 1    Res =  0.2467E+03
 MRCHDU: Convergence failed at  90  side 1    Res =  0.1317E+04
 MRCHDU: Convergence failed at  91  side 1    Res =  0.2049E+03
 MRCHDU: Convergence failed at  92  side 1    Res =  0.7240E+02
 Side 1  free  transition at x/c =  0.0217   25
 Side 2 forced transition at x/c =  1.0000   70

   2   rms: 0.2846E+01   max: 0.9851E+01   D at   72  2   RLX: 0.052
       a =  8.500      CL =  4.1015
      Cm = -0.9785     CD =  0.00322   =>   CDf =  0.00137    CDp =  0.00184

 MRCHDU: Convergence failed at  29  side 1    Res =  0.1743E+00
 MRCHDU: Convergence failed at  30  side 1    Res =  0.1655E+00
 MRCHDU: Convergence failed at  31  side 1    Res =  0.1580E+00
 MRCHDU: Convergence failed at  32  side 1    Res =  0.1500E+00
 MRCHDU: Convergence failed at  33  side 1    Res =  0.1432E+00
 MRCHDU: Convergence failed at  34  side 1    Res =  0.1377E+00
 MRCHDU: Convergence failed at  35  side 1    Res =  0.1329E+00
 MRCHDU: Convergence failed at  36  side 1    Res =  0.1287E+00
 MRCHDU: Convergence failed at  37  side 1    Res =  0.1241E+00
 MRCHDU: Convergence failed at  38  side 1    Res =  0.1184E+00
 MRCHDU: Convergence failed at  39  side 1    Res =  0.1085E+00
 MRCHDU: Convergence failed at  40  side 1    Res =  0.4595E-01
 MRCHDU: Convergence failed at  49  side 1    Res =  0.3232E+00
 MRCHDU: Convergence failed at  50  side 1    Res =  0.3058E+00
 MRCHDU: Convergence failed at  51  side 1    Res =  0.2837E+00
 MRCHDU: Convergence failed at  52  side 1    Res =  0.2590E+00
 MRCHDU: Convergence failed at  53  side 1    Res =  0.2227E+00
 MRCHDU: Convergence failed at  54  side 1    Res =  0.1519E+00
 MRCHDU: Convergence failed at  80  side 1    Res =  0.1947E+00
 MRCHDU: Convergence failed at  81  side 1    Res =  0.1973E+00
 MRCHDU: Convergence failed at  82  side 1    Res =  0.2002E+00
 MRCHDU: Convergence failed at  83  side 1    Res =  0.2036E+00
 MRCHDU: Convergence failed at  84  side 1    Res =  0.2073E+00
 MRCHDU: Convergence failed at  85  side 1    Res =  0.2114E+00
 MRCHDU: Convergence failed at  86  side 1    Res =  0.2160E+00
 MRCHDU: Convergence failed at  87  side 1    Res =  0.2216E+00
 MRCHDU: Convergence failed at  88  side 1    Res =  0.2279E+00
 MRCHDU: Convergence failed at  89  side 1    Res =  0.2343E+00
 MRCHDU: Convergence failed at  90  side 1    Res =  0.2409E+00
 MRCHDU: Convergence failed at  91  side 1    Res =  0.2479E+00
 MRCHDU: Convergence failed at  92  side 1    Res =  0.2516E+00
 Side 1  free  transition at x/c =  0.0208   25
 Side 2 forced transition at x/c =  1.0000   70

   3   rms: 0.9232E+00   max: -.8660E+00   U at   92  1   RLX: 0.161
       a =  8.500      CL =  2.7096
      Cm = -0.5503     CD =  0.02709   =>   CDf =  0.00352    CDp =  0.02357

 MRCHDU: Convergence failed at  35  side 1    Res =  0.8497E-01
 MRCHDU: Convergence failed at  40  side 1    Res =  0.3602E+00
 MRCHDU: Convergence failed at  41  side 1    Res =  0.6224E+00
 MRCHDU: Convergence failed at  55  side 1    Res =  0.2564E+00
 MRCHDU: Convergence failed at  56  side 1    Res =  0.1052E+01
 MRCHDU: Convergence failed at  57  side 1    Res =  0.5034E+00
 MRCHDU: Convergence failed at  58  side 1    Res =  0.4335E+00
 MRCHDU: Convergence failed at  59  side 1    Res =  0.3386E+00
 MRCHDU: Convergence failed at  60  side 1    Res =  0.2051E+00
 MRCHDU: Convergence failed at  81  side 1    Res =  0.7944E+00
 MRCHDU: Convergence failed at  82  side 1    Res =  0.8666E+00
 MRCHDU: Convergence failed at  83  side 1    Res =  0.1044E+01
 MRCHDU: Convergence failed at  84  side 1    Res =  0.7430E+00
 MRCHDU: Convergence failed at  85  side 1    Res =  0.7200E+00
 MRCHDU: Convergence failed at  86  side 1    Res =  0.5096E+01
 MRCHDU: Convergence failed at  87  side 1    Res =  0.3281E+00
 MRCHDU: Convergence failed at  88  side 1    Res =  0.3136E+00
 MRCHDU: Convergence failed at  89  side 1    Res =  0.3900E+00
 Side 1  free  transition at x/c =  0.0207   25
 Side 2 forced transition at x/c =  1.0000   70

   4   rms: 0.6384E+00   max: 0.7147E+00   C at   70  2   RLX: 0.292
       a =  8.500      CL =  1.8361
      Cm = -0.2993     CD =  0.02899   =>   CDf =  0.00539    CDp =  0.02359

 MRCHDU: Convergence failed at  35  side 1    Res =  0.1152E+00
 MRCHDU: Convergence failed at  36  side 1    Res =  0.1930E+00
 MRCHDU: Convergence failed at  42  side 1    Res =  0.3014E+00
 MRCHDU: Convergence failed at  43  side 1    Res =  0.3722E+00
 MRCHDU: Convergence failed at  79  side 1    Res =  0.4044E+00
 MRCHDU: Convergence failed at  80  side 1    Res =  0.7040E+00
 MRCHDU: Convergence failed at  81  side 1    Res =  0.6948E+00
 MRCHDU: Convergence failed at  82  side 1    Res =  0.6873E+00
 MRCHDU: Convergence failed at  83  side 1    Res =  0.6800E+00
 MRCHDU: Convergence failed at  84  side 1    Res =  0.6755E+00
 MRCHDU: Convergence failed at  85  side 1    Res =  0.6709E+00
 MRCHDU: Convergence failed at  86  side 1    Res =  0.6710E+00
 MRCHDU: Convergence failed at  87  side 1    Res =  0.6763E+00
 MRCHDU: Convergence failed at  88  side 1    Res =  0.6872E+00
 MRCHDU: Convergence failed at  89  side 1    Res =  0.7128E+00
 Side 1  free  transition at x/c =  0.0219   25
 Side 2 forced transition at x/c =  1.0000   70

   5   rms: 0.1554E+01   max: 0.9217E+01   D at   44  1   RLX: 0.118
       a =  8.500      CL =  1.4079
      Cm = -0.1579     CD =  0.03796   =>   CDf =  0.00229    CDp =  0.03568

 MRCHDU: Convergence failed at  25  side 1    Res =  0.4517E+02
 Side 1  free  transition at x/c =  0.0184   24
 Side 2 forced transition at x/c =  1.0000   70
 idif Ue xi dudx           1  0.16841504      6.00314140E-03   28.054485    
 Uenew xinew           2  6.31380826E-02  2.25055218E-03

   6   rms: 0.8508E+00   max: 0.3945E+01   D at   45  1   RLX: 0.304
       a =  8.500      CL =  1.2889
      Cm = -0.1435     CD =  0.06366   =>   CDf =  0.00220    CDp =  0.06146

 Side 1  free  transition at x/c =  0.0181   23
 Side 2 forced transition at x/c =  1.0000   71

   7   rms: 0.3375E+00   max: -.9729E+00   D at   24  1   RLX: 0.514
       a =  8.500      CL =  0.9778
      Cm = -0.0648     CD =  0.04998   =>   CDf =  0.00201    CDp =  0.04797

 Side 1  free  transition at x/c =  0.0208   24
 Side 2 forced transition at x/c =  1.0000   71

   8   rms: 0.1214E+01   max: -.4193E+01   D at   43  1   RLX: 0.119
       a =  8.500      CL =  0.9098
      Cm = -0.0494     CD =  0.02326   =>   CDf =  0.00495    CDp =  0.01831

 Side 1  free  transition at x/c =  0.0230   24
 Side 2 forced transition at x/c =  1.0000   71

   9   rms: 0.2541E+00   max: -.8489E+00   D at   30  1   RLX: 0.471
       a =  8.500      CL =  0.9141
      Cm = -0.0247     CD =  0.01860   =>   CDf =  0.00637    CDp =  0.01223

 Side 1  free  transition at x/c =  0.0207   24
 Side 2 forced transition at x/c =  1.0000   71

  10   rms: 0.3880E+00   max: -.1815E+01   D at   31  1   RLX: 0.275
       a =  8.500      CL =  0.9161
      Cm = -0.0165     CD =  0.01948   =>   CDf =  0.00528    CDp =  0.01420

 Side 1  free  transition at x/c =  0.0220   25
 Side 2 forced transition at x/c =  1.0000   70

  11   rms: 0.3644E+00   max: -.1961E+01   D at   29  1   RLX: 0.255
       a =  8.500      CL =  0.9199
      Cm = -0.0109     CD =  0.01757   =>   CDf =  0.00577    CDp =  0.01180

 Side 1  free  transition at x/c =  0.0233   26
 Side 2 forced transition at x/c =  1.0000   70

  12   rms: 0.1915E+00   max: -.1185E+01   D at   30  1   RLX: 0.422
       a =  8.500      CL =  0.9258
      Cm = -0.0037     CD =  0.01636   =>   CDf =  0.00605    CDp =  0.01031

 Side 1  free  transition at x/c =  0.0234   26
 Side 2 forced transition at x/c =  1.0000   70

  13   rms: 0.1068E+00   max: -.8295E+00   D at   28  1   RLX: 0.603
       a =  8.500      CL =  0.9313
      Cm =  0.0022     CD =  0.01579   =>   CDf =  0.00616    CDp =  0.00963

 Side 1  free  transition at x/c =  0.0229   25
 Side 2 forced transition at x/c =  1.0000   70

  14   rms: 0.3357E-01   max: 0.3437E+00   T at   25  1
       a =  8.500      CL =  0.9322
      Cm =  0.0064     CD =  0.01655   =>   CDf =  0.00620    CDp =  0.01035

 Side 1  free  transition at x/c =  0.0211   25
 Side 2 forced transition at x/c =  1.0000   70

  15   rms: 0.2841E-02   max: -.1306E-01   D at   25  1
       a =  8.500      CL =  0.9312
      Cm =  0.0064     CD =  0.01679   =>   CDf =  0.00615    CDp =  0.01064

 Side 1  free  transition at x/c =  0.0211   25
 Side 2 forced transition at x/c =  1.0000   70

  16   rms: 0.1913E-04   max: 0.2156E-04   T at   38  1
       a =  8.500      CL =  0.9312
      Cm =  0.0064     CD =  0.01679   =>   CDf =  0.00615    CDp =  0.01064
 plradd ia,ip,cpol           26           0  7.68847473E-04

 Point added to stored polar  1
 Point written to save file  ht14_Re500k.base.pol                            
 Dump file unspecified or not available
 Calculating wake trajectory ...
 Calculating source influence matrix ...

 Solving BL system ...

 Side 1  free  transition at x/c =  0.0211   25
 Side 2 forced transition at x/c =  1.0000   70

   1   rms: 0.9464E-01   max: 0.5503E+00   T at   25  1
       a =  9.000      CL =  0.9821
      Cm =  0.0071     CD =  0.01814   =>   CDf =  0.00616    CDp =  0.01199

 Side 1  free  transition at x/c =  0.0186   24
 Side 2 forced transition at x/c =  1.0000   70

   2   rms: 0.3323E-01   max: -.2005E+00   D at   26  1
       a =  9.000      CL =  0.9799
      Cm =  0.0071     CD =  0.01861   =>   CDf =  0.00594    CDp =  0.01267

 Side 1  free  transition at x/c =  0.0184   24
 Side 2 forced transition at x/c =  1.0000   70

   3   rms: 0.1920E-02   max: 0.1442E-01   D at   25  1
       a =  9.000      CL =  0.9796
      Cm =  0.0072     CD =  0.01869   =>   CDf =  0.00600    CDp =  0.01269

 Side 1  free  transition at x/c =  0.0184   24
 Side 2 forced transition at x/c =  1.0000   70

   4   rms: 0.1152E-04   max: 0.6300E-04   T at   24  1
       a =  9.000      CL =  0.9796
      Cm =  0.0072     CD =  0.01869   =>   CDf =  0.00600    CDp =  0.01269
 plradd ia,ip,cpol           27           0  7.68847473E-04

 Point added to stored polar  1
 Point written to save file  ht14_Re500k.base.pol                            
 Dump file unspecified or not available
 Calculating wake trajectory ...
 Calculating source influence matrix ...

 Solving BL system ...

 Side 1  free  transition at x/c =  0.0184   24
 Side 2 forced transition at x/c =  1.0000   70

   1   rms: 0.9277E-01   max: 0.4641E+00   T at   24  1
       a =  9.500      CL =  1.0288
      Cm =  0.0080     CD =  0.02039   =>   CDf =  0.00570    CDp =  0.01469

 Side 1  free  transition at x/c =  0.0164   25
 Side 2 forced transition at x/c =  1.0000   69

   2   rms: 0.2874E-01   max: -.1814E+00   D at   25  1
       a =  9.500      CL =  1.0276
      Cm =  0.0079     CD =  0.02045   =>   CDf =  0.00576    CDp =  0.01469

 Side 1  free  transition at x/c =  0.0165   25
 Side 2 forced transition at x/c =  1.0000   69

   3   rms: 0.4370E-03   max: -.3517E-02   D at    4  1
       a =  9.500      CL =  1.0275
      Cm =  0.0079     CD =  0.02047   =>   CDf =  0.00581    CDp =  0.01466

 Side 1  free  transition at x/c =  0.0165   25
 Side 2 forced transition at x/c =  1.0000   69

   4   rms: 0.7535E-06   max: 0.4402E-05   D at    7  2
       a =  9.500      CL =  1.0275
      Cm =  0.0079     CD =  0.02047   =>   CDf =  0.00581    CDp =  0.01466
 plradd ia,ip,cpol           28           0  7.68847473E-04

 Point added to stored polar  1
 Point written to save file  ht14_Re500k.base.pol                            
 Dump file unspecified or not available
 Calculating wake trajectory ...
 Calculating source influence matrix ...

 Solving BL system ...

 Side 1  free  transition at x/c =  0.0165   25
 Side 2 forced transition at x/c =  1.0000   69

   1   rms: 0.9382E-01   max: 0.4461E+00   T at   25  1
       a = 10.000      CL =  1.0734
      Cm =  0.0087     CD =  0.02260   =>   CDf =  0.00581    CDp =  0.01678

 MRCHDU: Convergence failed at  25  side 1    Res =  0.2446E+01
 MRCHDU: Convergence failed at  26  side 1    Res =  0.3500E+02
 MRCHDU: Convergence failed at  27  side 1    Res =  0.5836E+01
 MRCHDU: Convergence failed at  28  side 1    Res =  0.1689E+03
 MRCHDU: Convergence failed at  29  side 1    Res =  0.7292E+01
 MRCHDU: Convergence failed at  30  side 1    Res =  0.4725E+01
 MRCHDU: Convergence failed at  31  side 1    Res =  0.2943E+02
 MRCHDU: Convergence failed at  32  side 1    Res =  0.2944E+03
 MRCHDU: Convergence failed at  33  side 1    Res =  0.1896E+04
 MRCHDU: Convergence failed at  34  side 1    Res =  0.4512E+04
 MRCHDU: Convergence failed at  35  side 1    Res =  0.1317E+03
 MRCHDU: Convergence failed at  36  side 1    Res =  0.8084E+02
 MRCHDU: Convergence failed at  37  side 1    Res =  0.1316E+03
 MRCHDU: Convergence failed at  38  side 1    Res =  0.1443E+03
 MRCHDU: Convergence failed at  39  side 1    Res =  0.2717E+02
 MRCHDU: Convergence failed at  40  side 1    Res =  0.2035E+03
 MRCHDU: Convergence failed at  41  side 1    Res =  0.2856E+02
 MRCHDU: Convergence failed at  42  side 1    Res =  0.3550E+02
 MRCHDU: Convergence failed at  43  side 1    Res =  0.2461E+02
 MRCHDU: Convergence failed at  44  side 1    Res =  0.5454E+02
 MRCHDU: Convergence failed at  45  side 1    Res =  0.2128E+03
 MRCHDU: Convergence failed at  46  side 1    Res =  0.5877E+02
 MRCHDU: Convergence failed at  47  side 1    Res =  0.8895E+02
 MRCHDU: Convergence failed at  48  side 1    Res =  0.1106E+03
 MRCHDU: Convergence failed at  49  side 1    Res =  0.1129E+03
 MRCHDU: Convergence failed at  50  side 1    Res =  0.5985E+02
 MRCHDU: Convergence failed at  51  side 1    Res =  0.6746E+02
 MRCHDU: Convergence failed at  52  side 1    Res =  0.7751E+02
 MRCHDU: Convergence failed at  53  side 1    Res =  0.8921E+02
 MRCHDU: Convergence failed at  54  side 1    Res =  0.1031E+03
 MRCHDU: Convergence failed at  55  side 1    Res =  0.1078E+03
 MRCHDU: Convergence failed at  56  side 1    Res =  0.5869E+02
 MRCHDU: Convergence failed at  57  side 1    Res =  0.7211E+02
 MRCHDU: Convergence failed at  58  side 1    Res =  0.7930E+02
 MRCHDU: Convergence failed at  59  side 1    Res =  0.8759E+02
 MRCHDU: Convergence failed at  60  side 1    Res =  0.9612E+02
 MRCHDU: Convergence failed at  61  side 1    Res =  0.1063E+03
 MRCHDU: Convergence failed at  62  side 1    Res =  0.1189E+03
 MRCHDU: Convergence failed at  63  side 1    Res =  0.1328E+03
 MRCHDU: Convergence failed at  64  side 1    Res =  0.1491E+03
 MRCHDU: Convergence failed at  65  side 1    Res =  0.1694E+03
 MRCHDU: Convergence failed at  66  side 1    Res =  0.1941E+03
 MRCHDU: Convergence failed at  67  side 1    Res =  0.2252E+03
 MRCHDU: Convergence failed at  68  side 1    Res =  0.2712E+03
 MRCHDU: Convergence failed at  69  side 1    Res =  0.3327E+03
 MRCHDU: Convergence failed at  70  side 1    Res =  0.4242E+03
 MRCHDU: Convergence failed at  71  side 1    Res =  0.1951E+04
 MRCHDU: Convergence failed at  72  side 1    Res =  0.4332E+02
 MRCHDU: Convergence failed at  73  side 1    Res =  0.4215E+02
 MRCHDU: Convergence failed at  74  side 1    Res =  0.1279E+04
 MRCHDU: Convergence failed at  75  side 1    Res =  0.1126E+05
 MRCHDU: Convergence failed at  76  side 1    Res =  0.4097E+02
 MRCHDU: Convergence failed at  77  side 1    Res =  0.7105E+03
 MRCHDU: Convergence failed at  78  side 1    Res =  0.2102E+04
 MRCHDU: Convergence failed at  79  side 1    Res =  0.2197E+04
 MRCHDU: Convergence failed at  80  side 1    Res =  0.7421E+03
 MRCHDU: Convergence failed at  81  side 1    Res =  0.4444E+03
 MRCHDU: Convergence failed at  82  side 1    Res =  0.3192E+03
 MRCHDU: Convergence failed at  83  side 1    Res =  0.2499E+03
 MRCHDU: Convergence failed at  84  side 1    Res =  0.2052E+03
 MRCHDU: Convergence failed at  85  side 1    Res =  0.1752E+03
 MRCHDU: Convergence failed at  86  side 1    Res =  0.1521E+03
 MRCHDU: Convergence failed at  87  side 1    Res =  0.1337E+03
 MRCHDU: Convergence failed at  88  side 1    Res =  0.1178E+03
 MRCHDU: Convergence failed at  89  side 1    Res =  0.1028E+03
 MRCHDU: Convergence failed at  90  side 1    Res =  0.8803E+02
 MRCHDU: Convergence failed at  91  side 1    Res =  0.7470E+02
 MRCHDU: Convergence failed at  92  side 1    Res =  0.6460E+02
 MRCHDU: Convergence failed at  93  side 1    Res =  0.5246E+02
 Side 1  free  transition at x/c =  0.0155   24
 Side 2 forced transition at x/c =  1.0000   69

   2   rms: 0.4869E+01   max: 0.1840E+02   D at   71  2   RLX: 0.029
       a = 10.000      CL =  6.0553
      Cm = -1.4838     CD =  0.00258   =>   CDf =  0.00089    CDp =  0.00170

 MRCHDU: Convergence failed at  33  side 1    Res =  0.4835E+00
 MRCHDU: Convergence failed at  34  side 1    Res =  0.3228E+00
 MRCHDU: Convergence failed at  66  side 1    Res =  0.9982E-01
 MRCHDU: Convergence failed at  67  side 1    Res =  0.2059E+01
 MRCHDU: Convergence failed at  68  side 1    Res =  0.2022E+01
 MRCHDU: Convergence failed at  69  side 1    Res =  0.2004E+01
 MRCHDU: Convergence failed at  70  side 1    Res =  0.1995E+01
 MRCHDU: Convergence failed at  71  side 1    Res =  0.1992E+01
 MRCHDU: Convergence failed at  72  side 1    Res =  0.1992E+01
 MRCHDU: Convergence failed at  73  side 1    Res =  0.1994E+01
 MRCHDU: Convergence failed at  74  side 1    Res =  0.1999E+01
 MRCHDU: Convergence failed at  75  side 1    Res =  0.2004E+01
 MRCHDU: Convergence failed at  76  side 1    Res =  0.2007E+01
 MRCHDU: Convergence failed at  77  side 1    Res =  0.2013E+01
 MRCHDU: Convergence failed at  78  side 1    Res =  0.2008E+01
 MRCHDU: Convergence failed at  79  side 1    Res =  0.1996E+01
 MRCHDU: Convergence failed at  80  side 1    Res =  0.1988E+01
 MRCHDU: Convergence failed at  81  side 1    Res =  0.1989E+01
 MRCHDU: Convergence failed at  82  side 1    Res =  0.2005E+01
 MRCHDU: Convergence failed at  83  side 1    Res =  0.7046E-03
 MRCHDU: Convergence failed at  84  side 1    Res =  0.5160E-02
 Side 1  free  transition at x/c =  0.0152   24
 Side 2 forced transition at x/c =  1.0000   69

   3   rms: 0.1291E+01   max: 0.1950E+01   D at   77  2   RLX: 0.107
       a = 10.000      CL =  4.2158
      Cm = -1.0223     CD =  0.02807   =>   CDf =  0.00897    CDp =  0.01910

 MRCHDU: Convergence failed at  67  side 1    Res =  0.1215E-01
 MRCHDU: Convergence failed at  68  side 1    Res =  0.1873E-03
 MRCHDU: Convergence failed at  69  side 1    Res =  0.9183E-04
 MRCHDU: Convergence failed at  85  side 1    Res =  0.1846E-04
 Side 1  free  transition at x/c =  0.0144   25
 Side 2 forced transition at x/c =  1.0000   68

   4   rms: 0.1135E+01   max: -.1341E+01   U at   94  1   RLX: 0.175
       a = 10.000      CL =  3.6062
      Cm = -0.8099     CD =  0.02864   =>   CDf =  0.00840    CDp =  0.02024

 Side 1  free  transition at x/c =  0.0140   25
 Side 2 forced transition at x/c =  1.0000   68

   5   rms: 0.9499E+00   max: -.1138E+01   U at   94  1   RLX: 0.217
       a = 10.000      CL =  3.0087
      Cm = -0.6043     CD =  0.03326   =>   CDf =  0.00674    CDp =  0.02652

 Side 1  free  transition at x/c =  0.0137   25
 Side 2 forced transition at x/c =  1.0000   68

   6   rms: 0.7671E+00   max: -.9004E+00   U at   94  1   RLX: 0.284
       a = 10.000      CL =  2.4338
      Cm = -0.4144     CD =  0.03790   =>   CDf =  0.00514    CDp =  0.03276

 Side 1  free  transition at x/c =  0.0137   25
 Side 2 forced transition at x/c =  1.0000   68

   7   rms: 0.5772E+00   max: -.6448E+00   U at   94  1   RLX: 0.401
       a = 10.000      CL =  1.8793
      Cm = -0.2412     CD =  0.04243   =>   CDf =  0.00392    CDp =  0.03850

 Side 1  free  transition at x/c =  0.0141   25
 Side 2 forced transition at x/c =  1.0000   68

   8   rms: 0.7018E+00   max: -.3066E+01   D at   37  1   RLX: 0.163
       a = 10.000      CL =  1.7149
      Cm = -0.1980     CD =  0.04176   =>   CDf =  0.00323    CDp =  0.03853

 Side 1  free  transition at x/c =  0.0155   25
 Side 2 forced transition at x/c =  1.0000   68

   9   rms: 0.5369E+00   max: -.1692E+01   D at   31  1   RLX: 0.296
       a = 10.000      CL =  1.5115
      Cm = -0.1293     CD =  0.03347   =>   CDf =  0.00406    CDp =  0.02940

 Side 1  free  transition at x/c =  0.0156   25
 Side 2 forced transition at x/c =  1.0000   68

  10   rms: 0.3495E+02   max: 0.1484E+03   D at   67  1   RLX: 0.005
       a = 10.000      CL =  1.5227
      Cm = -0.1366     CD =  0.04446   =>   CDf =  0.00464    CDp =  0.03982

 Side 1  free  transition at x/c =  0.0154   25
 Side 2 forced transition at x/c =  1.0000   68

  11   rms: 0.4062E+00   max: 0.3047E+01   C at   68  2   RLX: 0.492
       a = 10.000      CL =  1.4010
      Cm = -0.0800     CD =  0.02921   =>   CDf =  0.00425    CDp =  0.02496

 MRCHDU: Convergence failed at  86  side 1    Res =  0.2080E+01
 MRCHDU: Convergence failed at  87  side 1    Res =  0.2896E+01
 MRCHDU: Convergence failed at  88  side 1    Res =  0.5218E+01
 MRCHDU: Convergence failed at  89  side 1    Res =  0.1875E+01
 MRCHDU: Convergence failed at  90  side 1    Res =  0.6572E+00
 MRCHDU: Convergence failed at  91  side 1    Res =  0.1695E+01
 MRCHDU: Convergence failed at  92  side 1    Res =  0.1774E+01
 MRCHDU: Convergence failed at  93  side 1    Res =  0.1939E+01
 MRCHDU: Convergence failed at  94  side 1    Res =  0.2000E+01
 Side 1  free  transition at x/c =  0.0136   25
 Side 2 forced transition at x/c =  1.0000   68

  12   rms: 0.5474E+00   max: -.2067E+01   D at   49  1   RLX: 0.242
       a = 10.000      CL =  1.3813
      Cm = -0.1072     CD =  0.01075   =>   CDf =  0.00456    CDp =  0.00619

 Side 1  free  transition at x/c =  0.0139   25
 Side 2 forced transition at x/c =  1.0000   68

  13   rms: 0.6331E+00   max: -.2494E+01   D at   50  1   RLX: 0.200
       a = 10.000      CL =  1.3318
      Cm = -0.0801     CD =  0.01118   =>   CDf =  0.00488    CDp =  0.00630

 MRCHDU: Convergence failed at  41  side 1    Res =  0.5108E+00
 Side 1  free  transition at x/c =  0.0141   25
 Side 2 forced transition at x/c =  1.0000   68

  14   rms: 0.2913E+00   max: -.1068E+01   C at   68  2   RLX: 0.468
       a = 10.000      CL =  1.2322
      Cm = -0.0371     CD =  0.01492   =>   CDf =  0.00558    CDp =  0.00934

 Side 1  free  transition at x/c =  0.0145   25
 Side 2 forced transition at x/c =  1.0000   68

  15   rms: 0.1802E+00   max: -.5524E+00   D at   65  1   RLX: 0.905
       a = 10.000      CL =  1.0995
      Cm =  0.0026     CD =  0.02097   =>   CDf =  0.00562    CDp =  0.01536

 Side 1  free  transition at x/c =  0.0151   25
 Side 2 forced transition at x/c =  1.0000   68
 idif Ue xi dudx           1  0.10494068      4.99927998E-03   20.991159    
 Uenew xinew           2  3.05786100E-03  1.45673752E-04

  16   rms: 0.3875E-01   max: -.2501E+00   D at   66  1
       a = 10.000      CL =  1.0693
      Cm =  0.0091     CD =  0.02338   =>   CDf =  0.00580    CDp =  0.01757

 Side 1  free  transition at x/c =  0.0153   24
 Side 2 forced transition at x/c =  1.0000   69

  17   rms: 0.3296E-02   max: -.3791E-01   D at   65  1
       a = 10.000      CL =  1.0699
      Cm =  0.0089     CD =  0.02339   =>   CDf =  0.00553    CDp =  0.01786

 Side 1  free  transition at x/c =  0.0153   24
 Side 2 forced transition at x/c =  1.0000   69

  18   rms: 0.3889E-03   max: 0.4333E-02   D at    4  2
       a = 10.000      CL =  1.0699
      Cm =  0.0089     CD =  0.02339   =>   CDf =  0.00553    CDp =  0.01786

 Side 1  free  transition at x/c =  0.0153   24
 Side 2 forced transition at x/c =  1.0000   69

  19   rms: 0.1334E-05   max: 0.1353E-04   D at    4  2
       a = 10.000      CL =  1.0699
      Cm =  0.0089     CD =  0.02339   =>   CDf =  0.00553    CDp =  0.01786
 plradd ia,ip,cpol           29           0  7.68847473E-04

 Point added to stored polar  1
 Point written to save file  ht14_Re500k.base.pol                            
 Dump file unspecified or not available

.OPERva   c>  
 Solving BL system ...

 Side 1  free  transition at x/c =  0.0153   24
 Side 2 forced transition at x/c =  1.0000   69

   1   rms: 0.3369E-06   max: -.2166E-05   C at   69  2
       a = 10.000      CL =  1.0699
      Cm =  0.0089     CD =  0.02339   =>   CDf =  0.00553    CDp =  0.01786
 plradd ia,ip,cpol           30         182  7.68847473E-04

 Point added to stored polar  1
 Point written to save file  ht14_Re500k.base.pol                            
 Dump file unspecified or not available
 Calculating wake trajectory ...
 Calculating source influence matrix ...

 Solving BL system ...

 Side 1  free  transition at x/c =  0.0153   24
 Side 2 forced transition at x/c =  1.0000   69

   1   rms: 0.4582E-01   max: 0.1572E+00   T at   24  1
       a = 10.250      CL =  1.0917
      Cm =  0.0095     CD =  0.02470   =>   CDf =  0.00519    CDp =  0.01951

 Side 1  free  transition at x/c =  0.0147   25
 Side 2 forced transition at x/c =  1.0000   68

   2   rms: 0.6207E-02   max: -.3090E-01   D at    3  1
       a = 10.250      CL =  1.0912
      Cm =  0.0094     CD =  0.02470   =>   CDf =  0.00531    CDp =  0.01939

 Side 1  free  transition at x/c =  0.0148   25
 Side 2 forced transition at x/c =  1.0000   68

   3   rms: 0.5171E-03   max: -.5965E-02   D at    4  1
       a = 10.250      CL =  1.0912
[...]
      Cm = -0.0425     CD =  0.16013   =>   CDf =  0.00219    CDp =  0.15793

 Side 1  free  transition at x/c =  0.0239   24
 Side 2 forced transition at x/c =  1.0000   72

   5   rms: 0.7750E-04   max: -.4112E-03   D at   93  2
       a = 14.500      CL =  0.5976
      Cm = -0.0425     CD =  0.16018   =>   CDf =  0.00219    CDp =  0.15799
 plradd ia,ip,cpol           47           0  7.68847473E-04

 Point added to stored polar  1
 Point written to save file  ht14_Re500k.base.pol                            
 Dump file unspecified or not available
 Calculating wake trajectory ...
 Calculating source influence matrix ...

 Solving BL system ...

 Side 1  free  transition at x/c =  0.0239   24
 Side 2 forced transition at x/c =  1.0000   72

   1   rms: 0.2287E-01   max: 0.2397E+00   T at   24  1   RLX: 0.456
       a = 14.750      CL =  0.5997
      Cm = -0.0428     CD =  0.16175   =>   CDf =  0.00219    CDp =  0.15956

 Side 1  free  transition at x/c =  0.0237   24
 Side 2 forced transition at x/c =  1.0000   72

   2   rms: 0.1338E-01   max: 0.1207E+00   T at   24  1
       a = 14.750      CL =  0.6025
      Cm = -0.0430     CD =  0.16258   =>   CDf =  0.00211    CDp =  0.16046

 Side 1  free  transition at x/c =  0.0235   25
 Side 2 forced transition at x/c =  1.0000   71

   3   rms: 0.3890E-02   max: -.3312E-01   T at    2  1
       a = 14.750      CL =  0.6019
      Cm = -0.0429     CD =  0.16178   =>   CDf =  0.00218    CDp =  0.15960

 Side 1  free  transition at x/c =  0.0235   25
 Side 2 forced transition at x/c =  1.0000   71

   4   rms: 0.1373E-02   max: -.7747E-02   D at    4  1
       a = 14.750      CL =  0.6025
      Cm = -0.0429     CD =  0.16210   =>   CDf =  0.00218    CDp =  0.15992

 Side 1  free  transition at x/c =  0.0235   25
 Side 2 forced transition at x/c =  1.0000   71

   5   rms: 0.1822E-03   max: -.8368E-03   D at   90  2
       a = 14.750      CL =  0.6026
      Cm = -0.0429     CD =  0.16220   =>   CDf =  0.00218    CDp =  0.16002

 Side 1  free  transition at x/c =  0.0235   25
 Side 2 forced transition at x/c =  1.0000   71

   6   rms: 0.1319E-04   max: 0.6393E-04   T at   25  1
       a = 14.750      CL =  0.6026
      Cm = -0.0429     CD =  0.16221   =>   CDf =  0.00218    CDp =  0.16002
 plradd ia,ip,cpol           48           0  7.68847473E-04

 Point added to stored polar  1
 Point written to save file  ht14_Re500k.base.pol                            
 Dump file unspecified or not available
 Calculating wake trajectory ...
 Calculating source influence matrix ...

 Solving BL system ...

 Side 1  free  transition at x/c =  0.0235   25
 Side 2 forced transition at x/c =  1.0000   71

   1   rms: 0.3096E-01   max: 0.2496E+00   T at   25  1   RLX: 0.447
       a = 15.000      CL =  0.6055
      Cm = -0.0430     CD =  0.16339   =>   CDf =  0.00218    CDp =  0.16120

 Side 1  free  transition at x/c =  0.0234   25
 Side 2 forced transition at x/c =  1.0000   71

   2   rms: 0.1994E-01   max: 0.1319E+00   T at   25  1
       a = 15.000      CL =  0.6098
      Cm = -0.0428     CD =  0.16384   =>   CDf =  0.00218    CDp =  0.16166

 Side 1  free  transition at x/c =  0.0232   25
 Side 2 forced transition at x/c =  1.0000   71

   3   rms: 0.4466E-02   max: -.2352E-01   D at   25  1
       a = 15.000      CL =  0.6093
      Cm = -0.0427     CD =  0.16357   =>   CDf =  0.00218    CDp =  0.16139

 Side 1  free  transition at x/c =  0.0232   25
 Side 2 forced transition at x/c =  1.0000   71

   4   rms: 0.1550E-02   max: 0.6443E-02   T at   25  1
       a = 15.000      CL =  0.6101
      Cm = -0.0428     CD =  0.16398   =>   CDf =  0.00218    CDp =  0.16180

 Side 1  free  transition at x/c =  0.0232   25
 Side 2 forced transition at x/c =  1.0000   71

   5   rms: 0.1937E-03   max: 0.8871E-03   T at   25  1
       a = 15.000      CL =  0.6102
      Cm = -0.0428     CD =  0.16407   =>   CDf =  0.00218    CDp =  0.16190

 Side 1  free  transition at x/c =  0.0232   25
 Side 2 forced transition at x/c =  1.0000   71

   6   rms: 0.1914E-04   max: 0.9655E-04   T at   25  1
       a = 15.000      CL =  0.6102
      Cm = -0.0428     CD =  0.16408   =>   CDf =  0.00218    CDp =  0.16190
 plradd ia,ip,cpol           49           0  7.68847473E-04

 Point added to stored polar  1
 Point written to save file  ht14_Re500k.base.pol                            
 Dump file unspecified or not available
 Calculating wake trajectory ...
 Calculating source influence matrix ...

 Solving BL system ...

 Side 1  free  transition at x/c =  0.0232   25
 Side 2 forced transition at x/c =  1.0000   71

   1   rms: 0.4429E-01   max: 0.3220E+00   T at   25  1   RLX: 0.439
       a = 15.250      CL =  0.6135
      Cm = -0.0426     CD =  0.16505   =>   CDf =  0.00218    CDp =  0.16287

 Side 1  free  transition at x/c =  0.0231   25
 Side 2 forced transition at x/c =  1.0000   71

   2   rms: 0.4149E-01   max: 0.3212E+00   T at   25  1
       a = 15.250      CL =  0.6174
      Cm = -0.0418     CD =  0.16566   =>   CDf =  0.00217    CDp =  0.16348

 Side 1  free  transition at x/c =  0.0230   24
 Side 2 forced transition at x/c =  1.0000   71

   3   rms: 0.1880E+00   max: 0.1011E+01   D at   25  1
       a = 15.250      CL =  0.6144
      Cm = -0.0486     CD =  0.19168   =>   CDf =  0.00217    CDp =  0.18951

 Side 1  free  transition at x/c =  0.0226   24
 Side 2 forced transition at x/c =  1.0000   71

   4   rms: 0.1347E+00   max: 0.7394E+00   D at   25  1
       a = 15.250      CL =  0.6126
      Cm = -0.0471     CD =  0.18888   =>   CDf =  0.00218    CDp =  0.18670

 Side 1  free  transition at x/c =  0.0228   24
 Side 2 forced transition at x/c =  1.0000   71

   5   rms: 0.1319E+00   max: 0.5580E+00   T at   26  1   RLX: 0.858
       a = 15.250      CL =  0.6154
      Cm = -0.0395     CD =  0.16391   =>   CDf =  0.00218    CDp =  0.16172

 Side 1  free  transition at x/c =  0.0218   24
 Side 2 forced transition at x/c =  1.0000   71
 idif Ue xi dudx           1  0.15735918      5.72681427E-03   27.477612    
 Uenew xinew           2  6.54298440E-02  2.38120556E-03

   6   rms: 0.6732E+00   max: 0.2727E+01   D at   28  1   RLX: 0.487
       a = 15.250      CL =  0.5174
      Cm = -0.0357     CD =  0.20290   =>   CDf =  0.00225    CDp =  0.20065

 Side 1  free  transition at x/c =  0.0215   23
 Side 2 forced transition at x/c =  1.0000   72

   7   rms: 0.2485E+00   max: -.5024E+00   C at   72  2   RLX: 0.798
       a = 15.250      CL =  0.5292
      Cm = -0.0298     CD =  0.18791   =>   CDf =  0.00222    CDp =  0.18569

 Side 1  free  transition at x/c =  0.0226   23
 Side 2 forced transition at x/c =  1.0000   72

   8   rms: 0.5906E+00   max: 0.4446E+01   T at   24  1   RLX: 0.118
       a = 15.250      CL =  0.5327
      Cm = -0.0293     CD =  0.16296   =>   CDf =  0.00212    CDp =  0.16084

 Side 1  free  transition at x/c =  0.0218   24
 Side 2 forced transition at x/c =  1.0000   71
 idif Ue xi dudx           1  9.46426913E-02  3.47769260E-03   27.214220    
 Uenew xinew           2  3.59456008E-03  1.32083893E-04

   9   rms: 0.1385E+00   max: 0.8331E+00   D at   25  1
       a = 15.250      CL =  0.6075
      Cm = -0.0491     CD =  0.19114   =>   CDf =  0.00226    CDp =  0.18888

 Side 1  free  transition at x/c =  0.0221   23
 Side 2 forced transition at x/c =  1.0000   72

  10   rms: 0.6785E-01   max: -.4490E+00   T at   23  1
       a = 15.250      CL =  0.6047
      Cm = -0.0462     CD =  0.17609   =>   CDf =  0.00212    CDp =  0.17397

 Side 1  free  transition at x/c =  0.0224   24
 Side 2 forced transition at x/c =  1.0000   71

  11   rms: 0.2838E-01   max: -.2950E+00   D at   24  1
       a = 15.250      CL =  0.6022
      Cm = -0.0452     CD =  0.16921   =>   CDf =  0.00219    CDp =  0.16703

 Side 1  free  transition at x/c =  0.0230   24
 Side 2 forced transition at x/c =  1.0000   71

  12   rms: 0.1045E+00   max: -.3814E+00   D at   25  1
       a = 15.250      CL =  0.6119
      Cm = -0.0402     CD =  0.15783   =>   CDf =  0.00219    CDp =  0.15564

 Side 1  free  transition at x/c =  0.0228   24
 Side 2 forced transition at x/c =  1.0000   71
 idif Ue xi dudx           1  0.15980621      5.80608845E-03   27.523901    
 Uenew xinew           2  6.77220002E-02  2.46047974E-03

  13   rms: 0.7472E+00   max: 0.3040E+01   D at   25  1   RLX: 0.423
       a = 15.250      CL =  0.4626
      Cm = -0.0220     CD =  0.20095   =>   CDf =  0.00226    CDp =  0.19869

 Side 1  free  transition at x/c =  0.0222   23
 Side 2 forced transition at x/c =  1.0000   72

  14   rms: 0.2951E+00   max: 0.1156E+01   D at   24  1
       a = 15.250      CL =  0.6157
      Cm = -0.0470     CD =  0.19094   =>   CDf =  0.00217    CDp =  0.18877

 Side 1  free  transition at x/c =  0.0227   24
 Side 2 forced transition at x/c =  1.0000   71

  15   rms: 0.6012E-01   max: 0.3112E+00   T at   25  1
       a = 15.250      CL =  0.6100
      Cm = -0.0429     CD =  0.16841   =>   CDf =  0.00218    CDp =  0.16623

 Side 1  free  transition at x/c =  0.0228   24
 Side 2 forced transition at x/c =  1.0000   71

  16   rms: 0.9246E-01   max: 0.5619E+00   D at   25  1
       a = 15.250      CL =  0.6175
      Cm = -0.0459     CD =  0.17936   =>   CDf =  0.00218    CDp =  0.17718

 Side 1  free  transition at x/c =  0.0229   24
 Side 2 forced transition at x/c =  1.0000   71

  17   rms: 0.3263E-01   max: 0.1268E+00   T at   25  1
       a = 15.250      CL =  0.6138
      Cm = -0.0435     CD =  0.16972   =>   CDf =  0.00218    CDp =  0.16754

 Side 1  free  transition at x/c =  0.0229   24
 Side 2 forced transition at x/c =  1.0000   71

  18   rms: 0.3590E-01   max: 0.1952E+00   D at   25  1
       a = 15.250      CL =  0.6163
      Cm = -0.0442     CD =  0.17229   =>   CDf =  0.00218    CDp =  0.17011

 Side 1  free  transition at x/c =  0.0230   24
 Side 2 forced transition at x/c =  1.0000   71

  19   rms: 0.9755E-02   max: 0.3397E-01   T at   27  1
       a = 15.250      CL =  0.6125
      Cm = -0.0432     CD =  0.16740   =>   CDf =  0.00218    CDp =  0.16522

 Side 1  free  transition at x/c =  0.0230   24
 Side 2 forced transition at x/c =  1.0000   71

  20   rms: 0.7011E-02   max: 0.3718E-01   D at   25  1
       a = 15.250      CL =  0.6138
      Cm = -0.0434     CD =  0.16819   =>   CDf =  0.00218    CDp =  0.16601

 Side 1  free  transition at x/c =  0.0230   24
 Side 2 forced transition at x/c =  1.0000   71

  21   rms: 0.1572E-02   max: 0.6345E-02   D at   90  2
       a = 15.250      CL =  0.6128
      Cm = -0.0433     CD =  0.16740   =>   CDf =  0.00218    CDp =  0.16522

 Side 1  free  transition at x/c =  0.0230   24
 Side 2 forced transition at x/c =  1.0000   71

  22   rms: 0.1400E-03   max: 0.8894E-03   D at   91  2
       a = 15.250      CL =  0.6128
      Cm = -0.0433     CD =  0.16728   =>   CDf =  0.00218    CDp =  0.16510

 Side 1  free  transition at x/c =  0.0230   24
 Side 2 forced transition at x/c =  1.0000   71

  23   rms: 0.2006E-04   max: -.1159E-03   C at   71  2
       a = 15.250      CL =  0.6128
      Cm = -0.0433     CD =  0.16727   =>   CDf =  0.00218    CDp =  0.16509
 plradd ia,ip,cpol           50           0  7.68847473E-04

 Point added to stored polar  1
 Point written to save file  ht14_Re500k.base.pol                            
 Dump file unspecified or not available
 Calculating wake trajectory ...
 Calculating source influence matrix ...

 Solving BL system ...

 Side 1  free  transition at x/c =  0.0230   24
 Side 2 forced transition at x/c =  1.0000   71

   1   rms: 0.3184E-01   max: -.9516E-01   T at   28  1   RLX: 0.426
       a = 15.500      CL =  0.6122
      Cm = -0.0443     CD =  0.17020   =>   CDf =  0.00218    CDp =  0.16802

 Side 1  free  transition at x/c =  0.0229   24
 Side 2 forced transition at x/c =  1.0000   71

   2   rms: 0.3019E-01   max: 0.1292E+00   D at   25  1
       a = 15.500      CL =  0.6127
      Cm = -0.0460     CD =  0.17554   =>   CDf =  0.00218    CDp =  0.17336

 Side 1  free  transition at x/c =  0.0226   24
 Side 2 forced transition at x/c =  1.0000   71

   3   rms: 0.5256E-01   max: 0.2965E+00   D at   25  1
       a = 15.500      CL =  0.6091
      Cm = -0.0478     CD =  0.17960   =>   CDf =  0.00218    CDp =  0.17743

 Side 1  free  transition at x/c =  0.0223   24
 Side 2 forced transition at x/c =  1.0000   71

   4   rms: 0.2618E-01   max: 0.1591E+00   D at   25  1
       a = 15.500      CL =  0.6047
      Cm = -0.0476     CD =  0.17677   =>   CDf =  0.00218    CDp =  0.17459

 Side 1  free  transition at x/c =  0.0224   24
 Side 2 forced transition at x/c =  1.0000   71

   5   rms: 0.2189E-01   max: -.2246E+00   T at   24  1
       a = 15.500      CL =  0.6026
      Cm = -0.0466     CD =  0.17182   =>   CDf =  0.00218    CDp =  0.16963

 Side 1  free  transition at x/c =  0.0226   24
 Side 2 forced transition at x/c =  1.0000   71

   6   rms: 0.9602E-02   max: -.8812E-01   D at   24  1
       a = 15.500      CL =  0.6040
      Cm = -0.0464     CD =  0.17153   =>   CDf =  0.00219    CDp =  0.16935

 Side 1  free  transition at x/c =  0.0227   24
 Side 2 forced transition at x/c =  1.0000   71

   7   rms: 0.2297E-01   max: 0.1219E+00   T at   25  1
       a = 15.500      CL =  0.6064
      Cm = -0.0455     CD =  0.16991   =>   CDf =  0.00218    CDp =  0.16772

 Side 1  free  transition at x/c =  0.0228   24
 Side 2 forced transition at x/c =  1.0000   71

   8   rms: 0.2275E-01   max: 0.1508E+00   D at   25  1
       a = 15.500      CL =  0.6092
      Cm = -0.0465     CD =  0.17445   =>   CDf =  0.00218    CDp =  0.17227

 Side 1  free  transition at x/c =  0.0226   24
 Side 2 forced transition at x/c =  1.0000   71

   9   rms: 0.2352E-01   max: 0.1235E+00   D at   25  1
       a = 15.500      CL =  0.6056
      Cm = -0.0470     CD =  0.17527   =>   CDf =  0.00218    CDp =  0.17309

 Side 1  free  transition at x/c =  0.0226   24
 Side 2 forced transition at x/c =  1.0000   71

  10   rms: 0.1712E-01   max: -.1308E+00   T at   24  1
       a = 15.500      CL =  0.6049
      Cm = -0.0463     CD =  0.17210   =>   CDf =  0.00218    CDp =  0.16991

 Side 1  free  transition at x/c =  0.0227   24
 Side 2 forced transition at x/c =  1.0000   71

  11   rms: 0.5572E-02   max: -.4202E-01   D at   24  1
       a = 15.500      CL =  0.6054
      Cm = -0.0463     CD =  0.17191   =>   CDf =  0.00218    CDp =  0.16973

 Side 1  free  transition at x/c =  0.0227   24
 Side 2 forced transition at x/c =  1.0000   71

  12   rms: 0.7882E-02   max: 0.4371E-01   T at   25  1
       a = 15.500      CL =  0.6058
      Cm = -0.0459     CD =  0.17108   =>   CDf =  0.00218    CDp =  0.16889

 Side 1  free  transition at x/c =  0.0228   24
 Side 2 forced transition at x/c =  1.0000   71

  13   rms: 0.4511E-02   max: 0.2009E-01   T at   24  1
       a = 15.500      CL =  0.6059
      Cm = -0.0462     CD =  0.17182   =>   CDf =  0.00218    CDp =  0.16963

 Side 1  free  transition at x/c =  0.0228   24
 Side 2 forced transition at x/c =  1.0000   71

  14   rms: 0.1798E-02   max: 0.1142E-01   T at   25  1
       a = 15.500      CL =  0.6057
      Cm = -0.0461     CD =  0.17157   =>   CDf =  0.00218    CDp =  0.16939

 Side 1  free  transition at x/c =  0.0228   24
 Side 2 forced transition at x/c =  1.0000   71

  15   rms: 0.1042E-02   max: 0.5787E-02   T at   25  1
       a = 15.500      CL =  0.6057
      Cm = -0.0460     CD =  0.17138   =>   CDf =  0.00218    CDp =  0.16920

 Side 1  free  transition at x/c =  0.0228   24
 Side 2 forced transition at x/c =  1.0000   71

  16   rms: 0.3023E-03   max: 0.1611E-02   T at   24  1
       a = 15.500      CL =  0.6057
      Cm = -0.0461     CD =  0.17142   =>   CDf =  0.00218    CDp =  0.16924

 Side 1  free  transition at x/c =  0.0228   24
 Side 2 forced transition at x/c =  1.0000   71

  17   rms: 0.9155E-04   max: 0.5219E-03   T at   25  1
       a = 15.500      CL =  0.6057
      Cm = -0.0461     CD =  0.17141   =>   CDf =  0.00218    CDp =  0.16923
 plradd ia,ip,cpol           51           0  7.68847473E-04

 Point added to stored polar  1
 Point written to save file  ht14_Re500k.base.pol                            
 Dump file unspecified or not available
 Calculating wake trajectory ...
 Calculating source influence matrix ...

 Solving BL system ...

 Side 1  free  transition at x/c =  0.0228   24
 Side 2 forced transition at x/c =  1.0000   71
 idif Ue xi dudx           1  9.25835222E-02  3.42035294E-03   27.068413    
 Uenew xinew           2  2.02320749E-03  7.47442245E-05

   1   rms: 0.2188E+00   max: -.1128E+01   T at   25  1   RLX: 0.407
       a = 15.750      CL =  0.5959
      Cm = -0.0499     CD =  0.17849   =>   CDf =  0.00226    CDp =  0.17623

 Side 1  free  transition at x/c =  0.0215   23
 Side 2 forced transition at x/c =  1.0000   72

   2   rms: 0.5191E-01   max: 0.3096E+00   D at    2  2
       a = 15.750      CL =  0.5871
      Cm = -0.0480     CD =  0.16700   =>   CDf =  0.00212    CDp =  0.16488

 Side 1  free  transition at x/c =  0.0217   24
 Side 2 forced transition at x/c =  1.0000   71

   3   rms: 0.2711E-01   max: 0.1769E+00   T at    2  1
       a = 15.750      CL =  0.5991
      Cm = -0.0483     CD =  0.17351   =>   CDf =  0.00219    CDp =  0.17132

 Side 1  free  transition at x/c =  0.0214   24
 Side 2 forced transition at x/c =  1.0000   71

   4   rms: 0.2736E-02   max: -.1849E-01   D at   90  2
       a = 15.750      CL =  0.6013
      Cm = -0.0486     CD =  0.17543   =>   CDf =  0.00218    CDp =  0.17324

 Side 1  free  transition at x/c =  0.0214   24
 Side 2 forced transition at x/c =  1.0000   71

   5   rms: 0.1119E-03   max: -.8123E-03   D at   92  2
       a = 15.750      CL =  0.6014
      Cm = -0.0486     CD =  0.17549   =>   CDf =  0.00218    CDp =  0.17331

 Side 1  free  transition at x/c =  0.0214   24
 Side 2 forced transition at x/c =  1.0000   71

   6   rms: 0.4042E-05   max: 0.3329E-04   C at   71  2
       a = 15.750      CL =  0.6014
      Cm = -0.0486     CD =  0.17550   =>   CDf =  0.00218    CDp =  0.17331
 plradd ia,ip,cpol           52           0  7.68847473E-04

 Point added to stored polar  1
 Point written to save file  ht14_Re500k.base.pol                            
 Dump file unspecified or not available
 Calculating wake trajectory ...
 Calculating source influence matrix ...

 Solving BL system ...

 Side 1  free  transition at x/c =  0.0214   24
 Side 2 forced transition at x/c =  1.0000   71

   1   rms: 0.1834E-01   max: 0.3168E+00   T at   24  1   RLX: 0.405
       a = 16.000      CL =  0.6028
      Cm = -0.0492     CD =  0.17741   =>   CDf =  0.00218    CDp =  0.17523

 Side 1  free  transition at x/c =  0.0210   24
 Side 2 forced transition at x/c =  1.0000   71

   2   rms: 0.9493E-02   max: 0.1469E+00   T at   24  1
       a = 16.000      CL =  0.6051
      Cm = -0.0498     CD =  0.17928   =>   CDf =  0.00218    CDp =  0.17710

 Side 1  free  transition at x/c =  0.0206   24
 Side 2 forced transition at x/c =  1.0000   71

   3   rms: 0.2231E-02   max: -.1610E-01   T at   24  1
       a = 16.000      CL =  0.6040
      Cm = -0.0497     CD =  0.17816   =>   CDf =  0.00218    CDp =  0.17598

 Side 1  free  transition at x/c =  0.0207   24
 Side 2 forced transition at x/c =  1.0000   71

   4   rms: 0.3548E-03   max: 0.1964E-02   C at   71  2
       a = 16.000      CL =  0.6042
      Cm = -0.0497     CD =  0.17817   =>   CDf =  0.00218    CDp =  0.17599

 Side 1  free  transition at x/c =  0.0207   24
 Side 2 forced transition at x/c =  1.0000   71

   5   rms: 0.6418E-04   max: -.4105E-03   D at   91  2
       a = 16.000      CL =  0.6042
      Cm = -0.0497     CD =  0.17823   =>   CDf =  0.00218    CDp =  0.17605
 plradd ia,ip,cpol           53           0  7.68847473E-04

 Point added to stored polar  1
 Point written to save file  ht14_Re500k.base.pol                            
 Dump file unspecified or not available

.OPERva   c>  
 Polar accumulation disabled

.OPERv   c>  
 XFOIL   c>  
 XFOIL   c>  