  
       XFOIL         Version 6.99
  
 Calculated polar for: HT23                                            
  
 1 1 Reynolds number fixed          Mach number fixed         
  
 xtrf =   1.000 (top)        1.000 (bottom)  
 Mach =   0.000     Re =     0.200 e 6     Ncrit =   9.000
  
   alpha    CL        CD       CDp       CM     Top_Xtr  Bot_Xtr
  ------ -------- --------- --------- -------- -------- --------
-4.000  -0.3661   0.01865   0.01120  -0.0120   1.0000   0.0364
-3.500  -0.3107   0.01555   0.00773  -0.0109   1.0000   0.0383
-3.000  -0.2567   0.01327   0.00540  -0.0100   1.0000   0.0472
-2.500  -0.2023   0.01144   0.00366  -0.0093   1.0000   0.0751
-2.000  -0.1530   0.00855   0.00274  -0.0089   1.0000   0.5015
-1.500  -0.0875   0.00703   0.00258  -0.0086   1.0000   1.0000
-1.000  -0.0349   0.00697   0.00228  -0.0079   1.0000   1.0000
-0.500   0.0178   0.00695   0.00213  -0.0072   1.0000   1.0000
0.000   0.0706   0.00697   0.00209  -0.0066   1.0000   1.0000
0.500   0.1520   0.00719   0.00208  -0.0111   0.8460   1.0000
1.000   0.1960   0.00798   0.00203  -0.0071   0.6670   1.0000
1.500   0.2476   0.00865   0.00215  -0.0059   0.5694   1.0000
2.000   0.3013   0.00922   0.00234  -0.0052   0.5026   1.0000
2.500   0.3556   0.00973   0.00262  -0.0047   0.4485   1.0000
3.000   0.4102   0.01025   0.00293  -0.0043   0.4013   1.0000
3.500   0.4647   0.01077   0.00332  -0.0039   0.3568   1.0000
4.000   0.5192   0.01131   0.00374  -0.0035   0.3120   1.0000
4.500   0.5736   0.01185   0.00423  -0.0033   0.2637   1.0000
5.000   0.6277   0.01249   0.00477  -0.0030   0.2129   1.0000
5.500   0.6811   0.01338   0.00555  -0.0028   0.1576   1.0000
6.000   0.7329   0.01496   0.00688  -0.0025   0.1014   1.0000
6.500   0.7837   0.01689   0.00881  -0.0019   0.0737   1.0000
7.000   0.8337   0.01900   0.01103  -0.0012   0.0604   1.0000
7.500   0.8820   0.02184   0.01399  -0.0003   0.0523   1.0000
8.000   0.9306   0.02460   0.01721   0.0007   0.0466   1.0000
8.500   0.9758   0.02829   0.02124   0.0016   0.0425   1.0000
9.000   1.0124   0.03416   0.02797   0.0026   0.0393   1.0000
9.500   1.0363   0.04200   0.03686   0.0033   0.0379   1.0000
10.000   1.0311   0.05337   0.04924   0.0022   0.0380   1.0000
10.250   1.0142   0.05997   0.05621  -0.0003   0.0384   1.0000
10.500   0.9890   0.06698   0.06345  -0.0057   0.0390   1.0000
10.750   0.9606   0.07780   0.07438  -0.0170   0.0399   1.0000
11.000   0.9370   0.08795   0.08452  -0.0239   0.0408   1.0000
