
 ===================================================
  XFOIL Version 6.99
  Copyright (C) 2000   Mark Drela, Harold Youngren

  This software comes with ABSOLUTELY NO WARRANTY,
    subject to the GNU General Public License.

  Caveat computor
 ===================================================

 File  xfoil.def  not found

   QUIT    Exit program

  .OPER    Direct operating point(s)
  .MDES    Complex mapping design routine
  .QDES    Surface speed design routine
  .GDES    Geometry design routine

   SAVE f  Write airfoil to labeled coordinate file
   PSAV f  Write airfoil to plain coordinate file
   ISAV f  Write airfoil to ISES coordinate file
   MSAV f  Write airfoil to MSES coordinate file
   REVE    Reverse written-airfoil node ordering

   LOAD f  Read buffer airfoil from coordinate file
   NACA i  Set NACA 4,5-digit airfoil and buffer airfoil
   INTE    Set buffer airfoil by interpolating two airfoils
   NORM    Buffer airfoil normalization toggle
   XYCM rr Change CM reference location, currently  0.25000 0.00000

   BEND    Display structural properties of current airfoil

   PCOP    Set current-airfoil panel nodes directly from buffer airfoil points
   PANE    Set current-airfoil panel nodes ( 160 ) based on curvature
  .PPAR    Show/change paneling

  .PLOP    Plotting options

   WDEF f  Write  current-settings file
   RDEF f  Reread current-settings file
   NAME s  Specify new airfoil name
   NINC    Increment name version number

   Z       Zoom    | (available in all menus)
   U       Unzoom  | 

 XFOIL   c>  
 Labeled airfoil file.  Name:  HT33                                            

 Number of input coordinate points: 240
 Counterclockwise ordering
 Max thickness =     0.059471  at x =   0.223
 Max camber    =    -0.000000  at x =   0.819

  LE  x,y  =   0.00001   0.00001  |   Chord =   1.00000
  TE  x,y  =   1.00001  -0.00000  |

 Current airfoil nodes set from buffer airfoil nodes ( 240 )

 XFOIL   c>  
 XFOIL   c>  
 Blunt trailing edge.  Gap =  0.00119

 Paneling parameters used...
   Number of panel nodes       160
   Panel bunching parameter    1.000
   TE/LE panel density ratio   0.150
   Refined-area/LE panel density ratio    0.200
   Top    side refined area x/c limits  1.000 1.000
   Bottom side refined area x/c limits  1.000 1.000

 XFOIL   c>  
.OPERi   c>  
 Xtr/c     =  1.0000    top    side
 Xtr/c     =  1.0000    bottom side
 Ncrit     =    9.00   ( 0.070 % turb. level )
 Vacc      =  0.0100

 Klag  =  5.6000     Uxwt  =    1.00
 A     =  6.7000     B     =  0.7500       KCt = 0.01485
 CtiniK=  1.8000     CtiniX=  3.3000

..VPAR   c>  
..VPAR   c>  
.OPERi   c>  
 M  =    0.0000
 Re =    300000

.OPERv   c>  
.OPERv   c>  
.OPERv   c>  
 Polar  1 newly created for accumulation
 Airfoil archived with polar: HT33                                            

Enter  polar save filename  OR  <return> for no file   s>  
 New polar save file available

Enter  polar dump filename  OR  <return> for no file   s>  
 Polar dump file will NOT be written

 Polar accumulation enabled

.OPERva   c>   Calculating unit vorticity distributions ...
 Calculating wake trajectory ...
 Calculating source influence matrix ...

 Solving BL system ...

 Initializing BL ...
    side            1  ...
 MRCHUE: Inverse mode at  76     Hk =   3.800
 MRCHUE: Inverse mode at  77     Hk =   3.928
    side            2  ...
 MRCHUE: Inverse mode at  12     Hk =   4.169
 MRCHUE: Inverse mode at  13     Hk =   5.216
 MRCHUE: Inverse mode at  14     Hk =   6.391
 MRCHUE: Inverse mode at  15     Hk =   7.742
 MRCHUE: Inverse mode at  16     Hk =   9.243
 MRCHUE: Inverse mode at  17     Hk =   8.851
 MRCHUE: Inverse mode at  18     Hk =   2.500

 Side 1 forced transition at x/c =  1.0000   77
 Side 2  free  transition at x/c =  0.0467   17

   1   rms: 0.8803E-01   max: -.8156E+00   T at   17  2   RLX: 0.613
       a = -4.000      CL = -0.4598
      Cm = -0.0011     CD =  0.01162   =>   CDf =  0.00729    CDp =  0.00433

 Side 1 forced transition at x/c =  1.0000   77
 Side 2  free  transition at x/c =  0.0558   18

   2   rms: 0.5176E-01   max: 0.7330E+00   D at   18  2
       a = -4.000      CL = -0.4420
      Cm = -0.0022     CD =  0.01111   =>   CDf =  0.00734    CDp =  0.00377

 Side 1 forced transition at x/c =  1.0000   77
 Side 2  free  transition at x/c =  0.0646   19

   3   rms: 0.9090E-02   max: -.7329E-01   C at   77  1
       a = -4.000      CL = -0.4400
      Cm = -0.0026     CD =  0.01110   =>   CDf =  0.00735    CDp =  0.00375

 Side 1 forced transition at x/c =  1.0000   77
 Side 2  free  transition at x/c =  0.0656   19

   4   rms: 0.2400E-03   max: 0.3146E-02   D at   19  2
       a = -4.000      CL = -0.4399
      Cm = -0.0027     CD =  0.01111   =>   CDf =  0.00734    CDp =  0.00377

 Side 1 forced transition at x/c =  1.0000   77
 Side 2  free  transition at x/c =  0.0656   19

   5   rms: 0.1343E-05   max: 0.5213E-05   D at   25  2
       a = -4.000      CL = -0.4399
      Cm = -0.0027     CD =  0.01111   =>   CDf =  0.00734    CDp =  0.00377
 plradd ia,ip,cpol            1           0  2.55126157E-03

 Point added to stored polar  1
 Point written to save file  ht33_Re300k.base.pol                            
 Dump file unspecified or not available
 Calculating wake trajectory ...
 Calculating source influence matrix ...

 Solving BL system ...

 Side 1 forced transition at x/c =  1.0000   77
 Side 2  free  transition at x/c =  0.0656   19

   1   rms: 0.1526E+00   max: -.1357E+01   T at   19  2   RLX: 0.368
       a = -3.500      CL = -0.4206
      Cm = -0.0025     CD =  0.01062   =>   CDf =  0.00733    CDp =  0.00328

 Side 1 forced transition at x/c =  1.0000   77
 Side 2  free  transition at x/c =  0.0806   20

   2   rms: 0.1044E+00   max: -.8510E+00   T at   20  2   RLX: 0.588
       a = -3.500      CL = -0.4008
      Cm = -0.0024     CD =  0.01021   =>   CDf =  0.00729    CDp =  0.00292

 Side 1 forced transition at x/c =  1.0000   77
 Side 2  free  transition at x/c =  0.0987   21

   3   rms: 0.5036E-01   max: -.5897E+00   T at   21  2   RLX: 0.848
       a = -3.500      CL = -0.3881
      Cm = -0.0022     CD =  0.01025   =>   CDf =  0.00727    CDp =  0.00298

 Side 1 forced transition at x/c =  1.0000   77
 Side 2  free  transition at x/c =  0.1256   23

   4   rms: 0.2226E-01   max: -.2256E+00   T at   23  2
       a = -3.500      CL = -0.3866
      Cm = -0.0022     CD =  0.00989   =>   CDf =  0.00715    CDp =  0.00275

 Side 1 forced transition at x/c =  1.0000   77
 Side 2  free  transition at x/c =  0.1448   25

   5   rms: 0.4797E-02   max: -.9867E-01   D at   24  2
       a = -3.500      CL = -0.3870
      Cm = -0.0023     CD =  0.00977   =>   CDf =  0.00699    CDp =  0.00279

 Side 1 forced transition at x/c =  1.0000   77
 Side 2  free  transition at x/c =  0.1425   25

   6   rms: 0.1524E-02   max: 0.2542E-01   C at   25  2
       a = -3.500      CL = -0.3870
      Cm = -0.0023     CD =  0.00978   =>   CDf =  0.00698    CDp =  0.00280

 Side 1 forced transition at x/c =  1.0000   77
 Side 2  free  transition at x/c =  0.1420   25

   7   rms: 0.1529E-04   max: -.2587E-03   D at   26  2
       a = -3.500      CL = -0.3870
      Cm = -0.0023     CD =  0.00978   =>   CDf =  0.00699    CDp =  0.00279
 plradd ia,ip,cpol            2           0  2.55126157E-03

 Point added to stored polar  1
 Point written to save file  ht33_Re300k.base.pol                            
 Dump file unspecified or not available
 Calculating wake trajectory ...
 Calculating source influence matrix ...

 Solving BL system ...

 Side 1 forced transition at x/c =  1.0000   77
 Side 2  free  transition at x/c =  0.1420   25

   1   rms: 0.2688E+00   max: -.3643E+01   C at   25  2   RLX: 0.137
       a = -3.000      CL = -0.3800
      Cm = -0.0023     CD =  0.00952   =>   CDf =  0.00699    CDp =  0.00254

 Side 1 forced transition at x/c =  1.0000   77
 Side 2  free  transition at x/c =  0.1552   26

   2   rms: 0.2111E+00   max: -.2012E+01   C at   26  2   RLX: 0.248
       a = -3.000      CL = -0.3682
      Cm = -0.0022     CD =  0.00925   =>   CDf =  0.00699    CDp =  0.00227

 Side 1 forced transition at x/c =  1.0000   77
 Side 2  free  transition at x/c =  0.1774   27

   3   rms: 0.1583E+00   max: -.2635E+01   C at   27  2   RLX: 0.190
       a = -3.000      CL = -0.3616
      Cm = -0.0022     CD =  0.00929   =>   CDf =  0.00685    CDp =  0.00243

 Side 1 forced transition at x/c =  1.0000   77
 Side 2  free  transition at x/c =  0.1855   28

   4   rms: 0.1388E+00   max: -.1564E+01   C at   28  2   RLX: 0.320
       a = -3.000      CL = -0.3524
      Cm = -0.0021     CD =  0.00907   =>   CDf =  0.00696    CDp =  0.00211

 Side 1 forced transition at x/c =  1.0000   78
 Side 2  free  transition at x/c =  0.1996   28

   5   rms: 0.1257E+00   max: -.1459E+01   C at   28  2   RLX: 0.343
       a = -3.000      CL = -0.3456
      Cm = -0.0021     CD =  0.00897   =>   CDf =  0.00684    CDp =  0.00214

 Side 1 forced transition at x/c =  1.0000   78
 Side 2  free  transition at x/c =  0.2134   29

   6   rms: 0.1063E+00   max: -.1362E+01   C at   29  2   RLX: 0.367
       a = -3.000      CL = -0.3410
      Cm = -0.0021     CD =  0.00888   =>   CDf =  0.00678    CDp =  0.00210

 Side 1 forced transition at x/c =  1.0000   78
 Side 2  free  transition at x/c =  0.2270   30

   7   rms: 0.9150E-01   max: -.1219E+01   C at   30  2   RLX: 0.410
       a = -3.000      CL = -0.3379
      Cm = -0.0021     CD =  0.00879   =>   CDf =  0.00672    CDp =  0.00207

 Side 1 forced transition at x/c =  1.0000   78
 Side 2  free  transition at x/c =  0.2409   31

   8   rms: 0.7467E-01   max: -.1058E+01   C at   31  2   RLX: 0.473
       a = -3.000      CL = -0.3360
      Cm = -0.0021     CD =  0.00873   =>   CDf =  0.00666    CDp =  0.00207

 Side 1 forced transition at x/c =  1.0000   78
 Side 2  free  transition at x/c =  0.2547   32

   9   rms: 0.5697E-01   max: -.8446E+00   C at   32  2   RLX: 0.592
       a = -3.000      CL = -0.3349
      Cm = -0.0021     CD =  0.00866   =>   CDf =  0.00659    CDp =  0.00207

 Side 1 forced transition at x/c =  1.0000   78
 Side 2  free  transition at x/c =  0.2685   33

  10   rms: 0.3818E-01   max: -.5920E+00   C at   33  2   RLX: 0.845
       a = -3.000      CL = -0.3346
      Cm = -0.0020     CD =  0.00860   =>   CDf =  0.00652    CDp =  0.00208

 Side 1 forced transition at x/c =  1.0000   78
 Side 2  free  transition at x/c =  0.2820   34

  11   rms: 0.2096E-01   max: -.3312E+00   C at   34  2
       a = -3.000      CL = -0.3346
      Cm = -0.0020     CD =  0.00861   =>   CDf =  0.00647    CDp =  0.00214

 Side 1 forced transition at x/c =  1.0000   78
 Side 2  free  transition at x/c =  0.2909   34

  12   rms: 0.7684E-03   max: -.9782E-02   D at   36  2
       a = -3.000      CL = -0.3345
      Cm = -0.0020     CD =  0.00864   =>   CDf =  0.00638    CDp =  0.00226

 Side 1 forced transition at x/c =  1.0000   78
 Side 2  free  transition at x/c =  0.2909   34

  13   rms: 0.1619E-05   max: -.2908E-04   D at   36  2
       a = -3.000      CL = -0.3345
      Cm = -0.0020     CD =  0.00864   =>   CDf =  0.00637    CDp =  0.00226
 plradd ia,ip,cpol            3           0  2.55126157E-03

 Point added to stored polar  1
 Point written to save file  ht33_Re300k.base.pol                            
 Dump file unspecified or not available
 Calculating wake trajectory ...
 Calculating source influence matrix ...

 Solving BL system ...

 Side 1 forced transition at x/c =  1.0000   78
 Side 2  free  transition at x/c =  0.2909   34

   1   rms: 0.1974E+00   max: -.3168E+01   C at   34  2   RLX: 0.158
       a = -2.500      CL = -0.3261
      Cm = -0.0020     CD =  0.00850   =>   CDf =  0.00637    CDp =  0.00213

 Side 1 forced transition at x/c =  1.0000   78
 Side 2  free  transition at x/c =  0.3103   35

   2   rms: 0.1047E+00   max: -.1025E+01   C at   35  2   RLX: 0.488
       a = -2.500      CL = -0.3035
      Cm = -0.0018     CD =  0.00836   =>   CDf =  0.00633    CDp =  0.00203

 Side 1 forced transition at x/c =  1.0000   78
 Side 2  free  transition at x/c =  0.3659   39

   3   rms: 0.4955E-01   max: -.3161E+00   T at   39  2
       a = -2.500      CL = -0.2802
      Cm = -0.0017     CD =  0.00816   =>   CDf =  0.00618    CDp =  0.00198

 Side 1 forced transition at x/c =  1.0000   78
 Side 2  free  transition at x/c =  0.4592   46

   4   rms: 0.4172E-01   max: 0.5734E+00   D at   39  2
       a = -2.500      CL = -0.2830
      Cm = -0.0015     CD =  0.00757   =>   CDf =  0.00583    CDp =  0.00173

 Side 1 forced transition at x/c =  1.0000   78
 Side 2  free  transition at x/c =  0.4514   45

   5   rms: 0.1010E-01   max: -.1435E+00   D at   46  2
       a = -2.500      CL = -0.2822
      Cm = -0.0015     CD =  0.00772   =>   CDf =  0.00579    CDp =  0.00193

 Side 1 forced transition at x/c =  1.0000   78
 Side 2  free  transition at x/c =  0.4359   44

   6   rms: 0.2924E-02   max: -.4193E-01   C at   44  2
       a = -2.500      CL = -0.2820
      Cm = -0.0016     CD =  0.00777   =>   CDf =  0.00584    CDp =  0.00193

 Side 1 forced transition at x/c =  1.0000   78
 Side 2  free  transition at x/c =  0.4368   44

   7   rms: 0.5897E-04   max: 0.8696E-03   C at   44  2
       a = -2.500      CL = -0.2820
      Cm = -0.0016     CD =  0.00777   =>   CDf =  0.00583    CDp =  0.00194
 plradd ia,ip,cpol            4           0  4.30786144E-03

 Point added to stored polar  1
 Point written to save file  ht33_Re300k.base.pol                            
 Dump file unspecified or not available
 Calculating wake trajectory ...
 Calculating source influence matrix ...

 Solving BL system ...

 Side 1 forced transition at x/c =  1.0000   78
 Side 2  free  transition at x/c =  0.4367   44

   1   rms: 0.1722E+00   max: -.2564E+01   C at   44  2   RLX: 0.195
       a = -2.000      CL = -0.2717
      Cm = -0.0015     CD =  0.00764   =>   CDf =  0.00583    CDp =  0.00181

 Side 1 forced transition at x/c =  1.0000   78
 Side 2  free  transition at x/c =  0.4647   46

   2   rms: 0.1440E+00   max: -.2164E+01   C at   46  2   RLX: 0.231
       a = -2.000      CL = -0.2619
      Cm = -0.0013     CD =  0.00748   =>   CDf =  0.00572    CDp =  0.00176

 Side 1 forced transition at x/c =  1.0000   78
 Side 2  free  transition at x/c =  0.4929   48

   3   rms: 0.1105E+00   max: -.1646E+01   C at   48  2   RLX: 0.304
       a = -2.000      CL = -0.2521
      Cm = -0.0012     CD =  0.00733   =>   CDf =  0.00569    CDp =  0.00164

 Side 1 forced transition at x/c =  1.0000   79
 Side 2  free  transition at x/c =  0.5237   49

   4   rms: 0.8369E-01   max: -.1069E+01   C at   49  2   RLX: 0.468
       a = -2.000      CL = -0.2417
      Cm = -0.0010     CD =  0.00717   =>   CDf =  0.00551    CDp =  0.00165

 Side 1 forced transition at x/c =  1.0000   79
 Side 2  free  transition at x/c =  0.5669   52

   5   rms: 0.2741E-01   max: -.2580E+00   C at   52  2
       a = -2.000      CL = -0.2301
      Cm = -0.0007     CD =  0.00701   =>   CDf =  0.00535    CDp =  0.00166

 Side 1 forced transition at x/c =  1.0000   79
 Side 2  free  transition at x/c =  0.6336   57

   6   rms: 0.2821E-01   max: 0.4587E+00   C at   57  2
       a = -2.000      CL = -0.2312
      Cm = -0.0005     CD =  0.00685   =>   CDf =  0.00506    CDp =  0.00179

 Side 1 forced transition at x/c =  1.0000   79
 Side 2  free  transition at x/c =  0.6139   56

   7   rms: 0.1951E-02   max: 0.2067E-01   C at   56  2
       a = -2.000      CL = -0.2314
      Cm = -0.0005     CD =  0.00684   =>   CDf =  0.00513    CDp =  0.00171

 Side 1 forced transition at x/c =  1.0000   79
 Side 2  free  transition at x/c =  0.6126   56

   8   rms: 0.2930E-04   max: -.4614E-03   C at   56  2
       a = -2.000      CL = -0.2314
      Cm = -0.0005     CD =  0.00684   =>   CDf =  0.00514    CDp =  0.00170
 plradd ia,ip,cpol            5           0  6.62693614E-03

 Point added to stored polar  1
 Point written to save file  ht33_Re300k.base.pol                            
 Dump file unspecified or not available
 Calculating wake trajectory ...
 Calculating source influence matrix ...

 Solving BL system ...

 Side 1 forced transition at x/c =  1.0000   79
 Side 2  free  transition at x/c =  0.6126   56

   1   rms: 0.2644E+00   max: -.4214E+01   C at   56  2   RLX: 0.119
       a = -1.500      CL = -0.2258
      Cm = -0.0002     CD =  0.00670   =>   CDf =  0.00514    CDp =  0.00156

 Side 1 forced transition at x/c =  1.0000   79
 Side 2  free  transition at x/c =  0.6330   57

   2   rms: 0.1882E+00   max: -.2891E+01   C at   57  2   RLX: 0.173
       a = -1.500      CL = -0.2178
      Cm = -0.0002     CD =  0.00662   =>   CDf =  0.00506    CDp =  0.00156

 Side 1 forced transition at x/c =  1.0000   79
 Side 2  free  transition at x/c =  0.6657   59

   3   rms: 0.1291E+00   max: -.1868E+01   C at   59  2   RLX: 0.268
       a = -1.500      CL = -0.2082
      Cm =  0.0003     CD =  0.00647   =>   CDf =  0.00492    CDp =  0.00155

 Side 1 forced transition at x/c =  1.0000   79
 Side 2  free  transition at x/c =  0.7237   63

   4   rms: 0.5676E-01   max: 0.2140E+00   D at   64  2
       a = -1.500      CL = -0.1812
      Cm =  0.0012     CD =  0.00629   =>   CDf =  0.00472    CDp =  0.00157

 Side 1 forced transition at x/c =  1.0000   79
 Side 2  free  transition at x/c =  0.8476   72

   5   rms: 0.4628E-01   max: -.6206E+00   C at   72  2   RLX: 0.806
       a = -1.500      CL = -0.1896
      Cm =  0.0042     CD =  0.00584   =>   CDf =  0.00431    CDp =  0.00153

 Side 1 forced transition at x/c =  1.0000   79
 Side 2  free  transition at x/c =  0.8358   71

   6   rms: 0.1223E-01   max: -.1269E+00   C at   71  2
       a = -1.500      CL = -0.1872
      Cm =  0.0030     CD =  0.00593   =>   CDf =  0.00431    CDp =  0.00162

 Side 1 forced transition at x/c =  1.0000   79
 Side 2  free  transition at x/c =  0.8258   70

   7   rms: 0.1883E-02   max: -.2530E-01   C at   70  2
       a = -1.500      CL = -0.1869
      Cm =  0.0029     CD =  0.00595   =>   CDf =  0.00431    CDp =  0.00165

 Side 1 forced transition at x/c =  1.0000   79
 Side 2  free  transition at x/c =  0.8261   70

   8   rms: 0.2536E-02   max: -.3894E-01   C at   70  2
       a = -1.500      CL = -0.1869
      Cm =  0.0029     CD =  0.00595   =>   CDf =  0.00431    CDp =  0.00164

 Side 1 forced transition at x/c =  1.0000   79
 Side 2  free  transition at x/c =  0.8261   70

   9   rms: 0.2535E-02   max: -.3893E-01   C at   70  2
       a = -1.500      CL = -0.1869
      Cm =  0.0029     CD =  0.00595   =>   CDf =  0.00431    CDp =  0.00164

 Side 1 forced transition at x/c =  1.0000   79
 Side 2  free  transition at x/c =  0.8261   70

  10   rms: 0.2535E-02   max: -.3892E-01   C at   70  2
       a = -1.500      CL = -0.1869
      Cm =  0.0029     CD =  0.00595   =>   CDf =  0.00431    CDp =  0.00164

 Side 1 forced transition at x/c =  1.0000   79
 Side 2  free  transition at x/c =  0.8261   70

  11   rms: 0.2535E-02   max: -.3893E-01   C at   70  2
       a = -1.500      CL = -0.1869
      Cm =  0.0029     CD =  0.00595   =>   CDf =  0.00431    CDp =  0.00164

 Side 1 forced transition at x/c =  1.0000   79
 Side 2  free  transition at x/c =  0.8261   70

  12   rms: 0.2536E-02   max: -.3895E-01   C at   70  2
       a = -1.500      CL = -0.1869
      Cm =  0.0029     CD =  0.00595   =>   CDf =  0.00431    CDp =  0.00164

 Side 1 forced transition at x/c =  1.0000   79
 Side 2  free  transition at x/c =  0.8261   70

  13   rms: 0.2536E-02   max: -.3894E-01   C at   70  2
       a = -1.500      CL = -0.1869
      Cm =  0.0029     CD =  0.00595   =>   CDf =  0.00431    CDp =  0.00164

 Side 1 forced transition at x/c =  1.0000   79
 Side 2  free  transition at x/c =  0.8261   70

  14   rms: 0.2535E-02   max: -.3892E-01   C at   70  2
       a = -1.500      CL = -0.1869
      Cm =  0.0029     CD =  0.00595   =>   CDf =  0.00431    CDp =  0.00164

 Side 1 forced transition at x/c =  1.0000   79
 Side 2  free  transition at x/c =  0.8261   70

  15   rms: 0.2536E-02   max: -.3894E-01   C at   70  2
       a = -1.500      CL = -0.1869
      Cm =  0.0029     CD =  0.00595   =>   CDf =  0.00431    CDp =  0.00164

 Side 1 forced transition at x/c =  1.0000   79
 Side 2  free  transition at x/c =  0.8261   70

  16   rms: 0.2534E-02   max: -.3891E-01   C at   70  2
       a = -1.500      CL = -0.1869
      Cm =  0.0029     CD =  0.00595   =>   CDf =  0.00431    CDp =  0.00164

 Side 1 forced transition at x/c =  1.0000   79
 Side 2  free  transition at x/c =  0.8261   70

  17   rms: 0.2536E-02   max: -.3894E-01   C at   70  2
       a = -1.500      CL = -0.1869
      Cm =  0.0029     CD =  0.00595   =>   CDf =  0.00431    CDp =  0.00164

 Side 1 forced transition at x/c =  1.0000   79
 Side 2  free  transition at x/c =  0.8261   70

  18   rms: 0.2535E-02   max: -.3893E-01   C at   70  2
       a = -1.500      CL = -0.1869
      Cm =  0.0029     CD =  0.00595   =>   CDf =  0.00431    CDp =  0.00164

 Side 1 forced transition at x/c =  1.0000   79
 Side 2  free  transition at x/c =  0.8261   70

  19   rms: 0.2535E-02   max: -.3892E-01   C at   70  2
       a = -1.500      CL = -0.1869
      Cm =  0.0029     CD =  0.00595   =>   CDf =  0.00431    CDp =  0.00164

 Side 1 forced transition at x/c =  1.0000   79
 Side 2  free  transition at x/c =  0.8261   70

  20   rms: 0.2535E-02   max: -.3893E-01   C at   70  2
       a = -1.500      CL = -0.1869
      Cm =  0.0029     CD =  0.00595   =>   CDf =  0.00431    CDp =  0.00164

 Side 1 forced transition at x/c =  1.0000   79
 Side 2  free  transition at x/c =  0.8261   70

  21   rms: 0.2535E-02   max: -.3893E-01   C at   70  2
       a = -1.500      CL = -0.1869
      Cm =  0.0029     CD =  0.00595   =>   CDf =  0.00431    CDp =  0.00164

 Side 1 forced transition at x/c =  1.0000   79
 Side 2  free  transition at x/c =  0.8261   70

  22   rms: 0.2537E-02   max: -.3895E-01   C at   70  2
       a = -1.500      CL = -0.1869
      Cm =  0.0029     CD =  0.00595   =>   CDf =  0.00431    CDp =  0.00164

 Side 1 forced transition at x/c =  1.0000   79
 Side 2  free  transition at x/c =  0.8261   70

  23   rms: 0.2535E-02   max: -.3893E-01   C at   70  2
       a = -1.500      CL = -0.1869
      Cm =  0.0029     CD =  0.00595   =>   CDf =  0.00431    CDp =  0.00164

 Side 1 forced transition at x/c =  1.0000   79
 Side 2  free  transition at x/c =  0.8261   70

  24   rms: 0.2535E-02   max: -.3893E-01   C at   70  2
       a = -1.500      CL = -0.1869
      Cm =  0.0029     CD =  0.00595   =>   CDf =  0.00431    CDp =  0.00164

 Side 1 forced transition at x/c =  1.0000   79
 Side 2  free  transition at x/c =  0.8261   70

  25   rms: 0.2535E-02   max: -.3892E-01   C at   70  2
       a = -1.500      CL = -0.1869
      Cm =  0.0029     CD =  0.00595   =>   CDf =  0.00431    CDp =  0.00164

 Side 1 forced transition at x/c =  1.0000   79
 Side 2  free  transition at x/c =  0.8261   70

  26   rms: 0.2535E-02   max: -.3892E-01   C at   70  2
       a = -1.500      CL = -0.1869
      Cm =  0.0029     CD =  0.00595   =>   CDf =  0.00431    CDp =  0.00164

 Side 1 forced transition at x/c =  1.0000   79
 Side 2  free  transition at x/c =  0.8261   70

  27   rms: 0.2536E-02   max: -.3894E-01   C at   70  2
       a = -1.500      CL = -0.1869
      Cm =  0.0029     CD =  0.00595   =>   CDf =  0.00431    CDp =  0.00164

 Side 1 forced transition at x/c =  1.0000   79
 Side 2  free  transition at x/c =  0.8261   70

  28   rms: 0.2535E-02   max: -.3893E-01   C at   70  2
       a = -1.500      CL = -0.1869
      Cm =  0.0029     CD =  0.00595   =>   CDf =  0.00431    CDp =  0.00164

 Side 1 forced transition at x/c =  1.0000   79
 Side 2  free  transition at x/c =  0.8261   70

  29   rms: 0.2535E-02   max: -.3893E-01   C at   70  2
       a = -1.500      CL = -0.1869
      Cm =  0.0029     CD =  0.00595   =>   CDf =  0.00431    CDp =  0.00164

 Side 1 forced transition at x/c =  1.0000   79
 Side 2  free  transition at x/c =  0.8261   70

  30   rms: 0.2535E-02   max: -.3893E-01   C at   70  2
       a = -1.500      CL = -0.1869
      Cm =  0.0029     CD =  0.00595   =>   CDf =  0.00431    CDp =  0.00164

 Side 1 forced transition at x/c =  1.0000   79
 Side 2  free  transition at x/c =  0.8261   70

  31   rms: 0.2536E-02   max: -.3893E-01   C at   70  2
       a = -1.500      CL = -0.1869
      Cm =  0.0029     CD =  0.00595   =>   CDf =  0.00431    CDp =  0.00164

 Side 1 forced transition at x/c =  1.0000   79
 Side 2  free  transition at x/c =  0.8261   70

  32   rms: 0.2535E-02   max: -.3893E-01   C at   70  2
       a = -1.500      CL = -0.1869
      Cm =  0.0029     CD =  0.00595   =>   CDf =  0.00431    CDp =  0.00164

 Side 1 forced transition at x/c =  1.0000   79
 Side 2  free  transition at x/c =  0.8261   70

  33   rms: 0.2536E-02   max: -.3893E-01   C at   70  2
       a = -1.500      CL = -0.1869
      Cm =  0.0029     CD =  0.00595   =>   CDf =  0.00431    CDp =  0.00164

 Side 1 forced transition at x/c =  1.0000   79
 Side 2  free  transition at x/c =  0.8261   70

  34   rms: 0.2535E-02   max: -.3892E-01   C at   70  2
       a = -1.500      CL = -0.1869
      Cm =  0.0029     CD =  0.00595   =>   CDf =  0.00431    CDp =  0.00164

 Side 1 forced transition at x/c =  1.0000   79
 Side 2  free  transition at x/c =  0.8261   70

  35   rms: 0.2536E-02   max: -.3895E-01   C at   70  2
       a = -1.500      CL = -0.1869
      Cm =  0.0029     CD =  0.00595   =>   CDf =  0.00431    CDp =  0.00164

 Side 1 forced transition at x/c =  1.0000   79
 Side 2  free  transition at x/c =  0.8261   70

  36   rms: 0.2536E-02   max: -.3894E-01   C at   70  2
       a = -1.500      CL = -0.1869
      Cm =  0.0029     CD =  0.00595   =>   CDf =  0.00431    CDp =  0.00164

 Side 1 forced transition at x/c =  1.0000   79
 Side 2  free  transition at x/c =  0.8261   70

  37   rms: 0.2534E-02   max: -.3892E-01   C at   70  2
       a = -1.500      CL = -0.1869
      Cm =  0.0029     CD =  0.00595   =>   CDf =  0.00431    CDp =  0.00164

 Side 1 forced transition at x/c =  1.0000   79
 Side 2  free  transition at x/c =  0.8261   70

  38   rms: 0.2536E-02   max: -.3894E-01   C at   70  2
       a = -1.500      CL = -0.1869
      Cm =  0.0029     CD =  0.00595   =>   CDf =  0.00431    CDp =  0.00164

 Side 1 forced transition at x/c =  1.0000   79
 Side 2  free  transition at x/c =  0.8261   70

  39   rms: 0.2535E-02   max: -.3893E-01   C at   70  2
       a = -1.500      CL = -0.1869
      Cm =  0.0029     CD =  0.00595   =>   CDf =  0.00431    CDp =  0.00164

 Side 1 forced transition at x/c =  1.0000   79
 Side 2  free  transition at x/c =  0.8261   70

  40   rms: 0.2536E-02   max: -.3894E-01   C at   70  2
       a = -1.500      CL = -0.1869
      Cm =  0.0029     CD =  0.00595   =>   CDf =  0.00431    CDp =  0.00164

 Side 1 forced transition at x/c =  1.0000   79
 Side 2  free  transition at x/c =  0.8261   70

  41   rms: 0.2535E-02   max: -.3892E-01   C at   70  2
       a = -1.500      CL = -0.1869
      Cm =  0.0029     CD =  0.00595   =>   CDf =  0.00431    CDp =  0.00164

 Side 1 forced transition at x/c =  1.0000   79
 Side 2  free  transition at x/c =  0.8261   70

  42   rms: 0.2535E-02   max: -.3893E-01   C at   70  2
       a = -1.500      CL = -0.1869
      Cm =  0.0029     CD =  0.00595   =>   CDf =  0.00431    CDp =  0.00164

 Side 1 forced transition at x/c =  1.0000   79
 Side 2  free  transition at x/c =  0.8261   70

  43   rms: 0.2536E-02   max: -.3894E-01   C at   70  2
       a = -1.500      CL = -0.1869
      Cm =  0.0029     CD =  0.00595   =>   CDf =  0.00431    CDp =  0.00164

 Side 1 forced transition at x/c =  1.0000   79
 Side 2  free  transition at x/c =  0.8261   70

  44   rms: 0.2535E-02   max: -.3893E-01   C at   70  2
       a = -1.500      CL = -0.1869
      Cm =  0.0029     CD =  0.00595   =>   CDf =  0.00431    CDp =  0.00164

 Side 1 forced transition at x/c =  1.0000   79
 Side 2  free  transition at x/c =  0.8261   70

  45   rms: 0.2535E-02   max: -.3893E-01   C at   70  2
       a = -1.500      CL = -0.1869
      Cm =  0.0029     CD =  0.00595   =>   CDf =  0.00431    CDp =  0.00164

 Side 1 forced transition at x/c =  1.0000   79
 Side 2  free  transition at x/c =  0.8261   70

  46   rms: 0.2535E-02   max: -.3893E-01   C at   70  2
       a = -1.500      CL = -0.1869
      Cm =  0.0029     CD =  0.00595   =>   CDf =  0.00431    CDp =  0.00164

 Side 1 forced transition at x/c =  1.0000   79
 Side 2  free  transition at x/c =  0.8261   70

  47   rms: 0.2536E-02   max: -.3894E-01   C at   70  2
       a = -1.500      CL = -0.1869
      Cm =  0.0029     CD =  0.00595   =>   CDf =  0.00431    CDp =  0.00164

 Side 1 forced transition at x/c =  1.0000   79
 Side 2  free  transition at x/c =  0.8261   70

  48   rms: 0.2535E-02   max: -.3893E-01   C at   70  2
       a = -1.500      CL = -0.1869
      Cm =  0.0029     CD =  0.00595   =>   CDf =  0.00431    CDp =  0.00164

 Side 1 forced transition at x/c =  1.0000   79
 Side 2  free  transition at x/c =  0.8261   70

  49   rms: 0.2535E-02   max: -.3893E-01   C at   70  2
       a = -1.500      CL = -0.1869
      Cm =  0.0029     CD =  0.00595   =>   CDf =  0.00431    CDp =  0.00164

 Side 1 forced transition at x/c =  1.0000   79
 Side 2  free  transition at x/c =  0.8261   70

  50   rms: 0.2534E-02   max: -.3891E-01   C at   70  2
       a = -1.500      CL = -0.1869
      Cm =  0.0029     CD =  0.00595   =>   CDf =  0.00431    CDp =  0.00164

 Side 1 forced transition at x/c =  1.0000   79
 Side 2  free  transition at x/c =  0.8261   70

  51   rms: 0.2535E-02   max: -.3893E-01   C at   70  2
       a = -1.500      CL = -0.1869
      Cm =  0.0029     CD =  0.00595   =>   CDf =  0.00431    CDp =  0.00164

 Side 1 forced transition at x/c =  1.0000   79
 Side 2  free  transition at x/c =  0.8261   70

  52   rms: 0.2535E-02   max: -.3893E-01   C at   70  2
       a = -1.500      CL = -0.1869
      Cm =  0.0029     CD =  0.00595   =>   CDf =  0.00431    CDp =  0.00164

 Side 1 forced transition at x/c =  1.0000   79
 Side 2  free  transition at x/c =  0.8261   70

  53   rms: 0.2536E-02   max: -.3894E-01   C at   70  2
       a = -1.500      CL = -0.1869
      Cm =  0.0029     CD =  0.00595   =>   CDf =  0.00431    CDp =  0.00164

 Side 1 forced transition at x/c =  1.0000   79
 Side 2  free  transition at x/c =  0.8261   70

  54   rms: 0.2535E-02   max: -.3893E-01   C at   70  2
       a = -1.500      CL = -0.1869
      Cm =  0.0029     CD =  0.00595   =>   CDf =  0.00431    CDp =  0.00164

 Side 1 forced transition at x/c =  1.0000   79
 Side 2  free  transition at x/c =  0.8261   70

  55   rms: 0.2535E-02   max: -.3892E-01   C at   70  2
       a = -1.500      CL = -0.1869
      Cm =  0.0029     CD =  0.00595   =>   CDf =  0.00431    CDp =  0.00164

 Side 1 forced transition at x/c =  1.0000   79
 Side 2  free  transition at x/c =  0.8261   70

  56   rms: 0.2535E-02   max: -.3892E-01   C at   70  2
       a = -1.500      CL = -0.1869
      Cm =  0.0029     CD =  0.00595   =>   CDf =  0.00431    CDp =  0.00164

 Side 1 forced transition at x/c =  1.0000   79
 Side 2  free  transition at x/c =  0.8261   70

  57   rms: 0.2536E-02   max: -.3894E-01   C at   70  2
       a = -1.500      CL = -0.1869
      Cm =  0.0029     CD =  0.00595   =>   CDf =  0.00431    CDp =  0.00164

 Side 1 forced transition at x/c =  1.0000   79
 Side 2  free  transition at x/c =  0.8261   70

  58   rms: 0.2535E-02   max: -.3893E-01   C at   70  2
       a = -1.500      CL = -0.1869
      Cm =  0.0029     CD =  0.00595   =>   CDf =  0.00431    CDp =  0.00164

 Side 1 forced transition at x/c =  1.0000   79
 Side 2  free  transition at x/c =  0.8261   70

  59   rms: 0.2535E-02   max: -.3893E-01   C at   70  2
       a = -1.500      CL = -0.1869
      Cm =  0.0029     CD =  0.00595   =>   CDf =  0.00431    CDp =  0.00164

 Side 1 forced transition at x/c =  1.0000   79
 Side 2  free  transition at x/c =  0.8261   70

  60   rms: 0.2536E-02   max: -.3893E-01   C at   70  2
       a = -1.500      CL = -0.1869
      Cm =  0.0029     CD =  0.00595   =>   CDf =  0.00431    CDp =  0.00164

 Side 1 forced transition at x/c =  1.0000   79
 Side 2  free  transition at x/c =  0.8261   70

  61   rms: 0.2535E-02   max: -.3892E-01   C at   70  2
       a = -1.500      CL = -0.1869
      Cm =  0.0029     CD =  0.00595   =>   CDf =  0.00431    CDp =  0.00164

 Side 1 forced transition at x/c =  1.0000   79
 Side 2  free  transition at x/c =  0.8261   70

  62   rms: 0.2536E-02   max: -.3895E-01   C at   70  2
       a = -1.500      CL = -0.1869
      Cm =  0.0029     CD =  0.00595   =>   CDf =  0.00431    CDp =  0.00164

 Side 1 forced transition at x/c =  1.0000   79
 Side 2  free  transition at x/c =  0.8261   70

  63   rms: 0.2535E-02   max: -.3893E-01   C at   70  2
       a = -1.500      CL = -0.1869
      Cm =  0.0029     CD =  0.00595   =>   CDf =  0.00431    CDp =  0.00164

 Side 1 forced transition at x/c =  1.0000   79
 Side 2  free  transition at x/c =  0.8261   70

  64   rms: 0.2535E-02   max: -.3893E-01   C at   70  2
       a = -1.500      CL = -0.1869
      Cm =  0.0029     CD =  0.00595   =>   CDf =  0.00431    CDp =  0.00164

 Side 1 forced transition at x/c =  1.0000   79
 Side 2  free  transition at x/c =  0.8261   70

  65   rms: 0.2535E-02   max: -.3893E-01   C at   70  2
       a = -1.500      CL = -0.1869
      Cm =  0.0029     CD =  0.00595   =>   CDf =  0.00431    CDp =  0.00164

 Side 1 forced transition at x/c =  1.0000   79
 Side 2  free  transition at x/c =  0.8261   70

  66   rms: 0.2536E-02   max: -.3894E-01   C at   70  2
       a = -1.500      CL = -0.1869
      Cm =  0.0029     CD =  0.00595   =>   CDf =  0.00431    CDp =  0.00164

 Side 1 forced transition at x/c =  1.0000   79
 Side 2  free  transition at x/c =  0.8261   70

  67   rms: 0.2536E-02   max: -.3894E-01   C at   70  2
       a = -1.500      CL = -0.1869
      Cm =  0.0029     CD =  0.00595   =>   CDf =  0.00431    CDp =  0.00164

 Side 1 forced transition at x/c =  1.0000   79
 Side 2  free  transition at x/c =  0.8261   70

  68   rms: 0.2535E-02   max: -.3892E-01   C at   70  2
       a = -1.500      CL = -0.1869
      Cm =  0.0029     CD =  0.00595   =>   CDf =  0.00431    CDp =  0.00164

 Side 1 forced transition at x/c =  1.0000   79
 Side 2  free  transition at x/c =  0.8261   70

  69   rms: 0.2535E-02   max: -.3893E-01   C at   70  2
       a = -1.500      CL = -0.1869
      Cm =  0.0029     CD =  0.00595   =>   CDf =  0.00431    CDp =  0.00164

 Side 1 forced transition at x/c =  1.0000   79
 Side 2  free  transition at x/c =  0.8261   70

  70   rms: 0.2534E-02   max: -.3891E-01   C at   70  2
       a = -1.500      CL = -0.1869
      Cm =  0.0029     CD =  0.00595   =>   CDf =  0.00431    CDp =  0.00164

 Side 1 forced transition at x/c =  1.0000   79
 Side 2  free  transition at x/c =  0.8261   70

  71   rms: 0.2536E-02   max: -.3895E-01   C at   70  2
       a = -1.500      CL = -0.1869
      Cm =  0.0029     CD =  0.00595   =>   CDf =  0.00431    CDp =  0.00164

 Side 1 forced transition at x/c =  1.0000   79
 Side 2  free  transition at x/c =  0.8261   70

  72   rms: 0.2535E-02   max: -.3893E-01   C at   70  2
       a = -1.500      CL = -0.1869
      Cm =  0.0029     CD =  0.00595   =>   CDf =  0.00431    CDp =  0.00164

 Side 1 forced transition at x/c =  1.0000   79
 Side 2  free  transition at x/c =  0.8261   70

  73   rms: 0.2535E-02   max: -.3893E-01   C at   70  2
       a = -1.500      CL = -0.1869
      Cm =  0.0029     CD =  0.00595   =>   CDf =  0.00431    CDp =  0.00164

 Side 1 forced transition at x/c =  1.0000   79
 Side 2  free  transition at x/c =  0.8261   70

  74   rms: 0.2534E-02   max: -.3891E-01   C at   70  2
       a = -1.500      CL = -0.1869
      Cm =  0.0029     CD =  0.00595   =>   CDf =  0.00431    CDp =  0.00164

 Side 1 forced transition at x/c =  1.0000   79
 Side 2  free  transition at x/c =  0.8261   70

  75   rms: 0.2535E-02   max: -.3893E-01   C at   70  2
       a = -1.500      CL = -0.1869
      Cm =  0.0029     CD =  0.00595   =>   CDf =  0.00431    CDp =  0.00164

 Side 1 forced transition at x/c =  1.0000   79
 Side 2  free  transition at x/c =  0.8261   70

  76   rms: 0.2535E-02   max: -.3893E-01   C at   70  2
       a = -1.500      CL = -0.1869
      Cm =  0.0029     CD =  0.00595   =>   CDf =  0.00431    CDp =  0.00164

 Side 1 forced transition at x/c =  1.0000   79
 Side 2  free  transition at x/c =  0.8261   70

  77   rms: 0.2535E-02   max: -.3893E-01   C at   70  2
       a = -1.500      CL = -0.1869
      Cm =  0.0029     CD =  0.00595   =>   CDf =  0.00431    CDp =  0.00164

 Side 1 forced transition at x/c =  1.0000   79
 Side 2  free  transition at x/c =  0.8261   70

  78   rms: 0.2535E-02   max: -.3893E-01   C at   70  2
       a = -1.500      CL = -0.1869
      Cm =  0.0029     CD =  0.00595   =>   CDf =  0.00431    CDp =  0.00164

 Side 1 forced transition at x/c =  1.0000   79
 Side 2  free  transition at x/c =  0.8261   70

  79   rms: 0.2535E-02   max: -.3892E-01   C at   70  2
       a = -1.500      CL = -0.1869
      Cm =  0.0029     CD =  0.00595   =>   CDf =  0.00431    CDp =  0.00164

 Side 1 forced transition at x/c =  1.0000   79
 Side 2  free  transition at x/c =  0.8261   70

  80   rms: 0.2536E-02   max: -.3894E-01   C at   70  2
       a = -1.500      CL = -0.1869
      Cm =  0.0029     CD =  0.00595   =>   CDf =  0.00431    CDp =  0.00164

 Side 1 forced transition at x/c =  1.0000   79
 Side 2  free  transition at x/c =  0.8261   70

  81   rms: 0.2535E-02   max: -.3893E-01   C at   70  2
       a = -1.500      CL = -0.1869
      Cm =  0.0029     CD =  0.00595   =>   CDf =  0.00431    CDp =  0.00164

 Side 1 forced transition at x/c =  1.0000   79
 Side 2  free  transition at x/c =  0.8261   70

  82   rms: 0.2535E-02   max: -.3892E-01   C at   70  2
       a = -1.500      CL = -0.1869
      Cm =  0.0029     CD =  0.00595   =>   CDf =  0.00431    CDp =  0.00164

 Side 1 forced transition at x/c =  1.0000   79
 Side 2  free  transition at x/c =  0.8261   70

  83   rms: 0.2536E-02   max: -.3894E-01   C at   70  2
       a = -1.500      CL = -0.1869
      Cm =  0.0029     CD =  0.00595   =>   CDf =  0.00431    CDp =  0.00164

 Side 1 forced transition at x/c =  1.0000   79
 Side 2  free  transition at x/c =  0.8261   70

  84   rms: 0.2535E-02   max: -.3893E-01   C at   70  2
       a = -1.500      CL = -0.1869
      Cm =  0.0029     CD =  0.00595   =>   CDf =  0.00431    CDp =  0.00164

 Side 1 forced transition at x/c =  1.0000   79
 Side 2  free  transition at x/c =  0.8261   70

  85   rms: 0.2535E-02   max: -.3893E-01   C at   70  2
       a = -1.500      CL = -0.1869
      Cm =  0.0029     CD =  0.00595   =>   CDf =  0.00431    CDp =  0.00164

 Side 1 forced transition at x/c =  1.0000   79
 Side 2  free  transition at x/c =  0.8261   70

  86   rms: 0.2536E-02   max: -.3894E-01   C at   70  2
       a = -1.500      CL = -0.1869
      Cm =  0.0029     CD =  0.00595   =>   CDf =  0.00431    CDp =  0.00164

 Side 1 forced transition at x/c =  1.0000   79
 Side 2  free  transition at x/c =  0.8261   70

  87   rms: 0.2535E-02   max: -.3893E-01   C at   70  2
       a = -1.500      CL = -0.1869
      Cm =  0.0029     CD =  0.00595   =>   CDf =  0.00431    CDp =  0.00164

 Side 1 forced transition at x/c =  1.0000   79
 Side 2  free  transition at x/c =  0.8261   70

  88   rms: 0.2535E-02   max: -.3892E-01   C at   70  2
       a = -1.500      CL = -0.1869
      Cm =  0.0029     CD =  0.00595   =>   CDf =  0.00431    CDp =  0.00164

 Side 1 forced transition at x/c =  1.0000   79
 Side 2  free  transition at x/c =  0.8261   70

  89   rms: 0.2535E-02   max: -.3893E-01   C at   70  2
       a = -1.500      CL = -0.1869
      Cm =  0.0029     CD =  0.00595   =>   CDf =  0.00431    CDp =  0.00164

 Side 1 forced transition at x/c =  1.0000   79
 Side 2  free  transition at x/c =  0.8261   70

  90   rms: 0.2535E-02   max: -.3893E-01   C at   70  2
       a = -1.500      CL = -0.1869
      Cm =  0.0029     CD =  0.00595   =>   CDf =  0.00431    CDp =  0.00164

 Side 1 forced transition at x/c =  1.0000   79
 Side 2  free  transition at x/c =  0.8261   70

  91   rms: 0.2536E-02   max: -.3894E-01   C at   70  2
       a = -1.500      CL = -0.1869
      Cm =  0.0029     CD =  0.00595   =>   CDf =  0.00431    CDp =  0.00164

 Side 1 forced transition at x/c =  1.0000   79
 Side 2  free  transition at x/c =  0.8261   70

  92   rms: 0.2535E-02   max: -.3892E-01   C at   70  2
       a = -1.500      CL = -0.1869
      Cm =  0.0029     CD =  0.00595   =>   CDf =  0.00431    CDp =  0.00164

 Side 1 forced transition at x/c =  1.0000   79
 Side 2  free  transition at x/c =  0.8261   70

  93   rms: 0.2535E-02   max: -.3893E-01   C at   70  2
       a = -1.500      CL = -0.1869
      Cm =  0.0029     CD =  0.00595   =>   CDf =  0.00431    CDp =  0.00164

 Side 1 forced transition at x/c =  1.0000   79
 Side 2  free  transition at x/c =  0.8261   70

  94   rms: 0.2535E-02   max: -.3893E-01   C at   70  2
       a = -1.500      CL = -0.1869
      Cm =  0.0029     CD =  0.00595   =>   CDf =  0.00431    CDp =  0.00164

 Side 1 forced transition at x/c =  1.0000   79
 Side 2  free  transition at x/c =  0.8261   70

  95   rms: 0.2536E-02   max: -.3893E-01   C at   70  2
       a = -1.500      CL = -0.1869
      Cm =  0.0029     CD =  0.00595   =>   CDf =  0.00431    CDp =  0.00164

 Side 1 forced transition at x/c =  1.0000   79
 Side 2  free  transition at x/c =  0.8261   70

  96   rms: 0.2536E-02   max: -.3894E-01   C at   70  2
       a = -1.500      CL = -0.1869
      Cm =  0.0029     CD =  0.00595   =>   CDf =  0.00431    CDp =  0.00164

 Side 1 forced transition at x/c =  1.0000   79
 Side 2  free  transition at x/c =  0.8261   70

  97   rms: 0.2535E-02   max: -.3893E-01   C at   70  2
       a = -1.500      CL = -0.1869
      Cm =  0.0029     CD =  0.00595   =>   CDf =  0.00431    CDp =  0.00164

 Side 1 forced transition at x/c =  1.0000   79
 Side 2  free  transition at x/c =  0.8261   70

  98   rms: 0.2535E-02   max: -.3892E-01   C at   70  2
       a = -1.500      CL = -0.1869
      Cm =  0.0029     CD =  0.00595   =>   CDf =  0.00431    CDp =  0.00164

 Side 1 forced transition at x/c =  1.0000   79
 Side 2  free  transition at x/c =  0.8261   70

  99   rms: 0.2536E-02   max: -.3894E-01   C at   70  2
       a = -1.500      CL = -0.1869
      Cm =  0.0029     CD =  0.00595   =>   CDf =  0.00431    CDp =  0.00164

 Side 1 forced transition at x/c =  1.0000   79
 Side 2  free  transition at x/c =  0.8261   70

 100   rms: 0.2535E-02   max: -.3892E-01   C at   70  2
       a = -1.500      CL = -0.1869
      Cm =  0.0029     CD =  0.00595   =>   CDf =  0.00431    CDp =  0.00164

 Side 1 forced transition at x/c =  1.0000   79
 Side 2  free  transition at x/c =  0.8261   70

 101   rms: 0.2536E-02   max: -.3894E-01   C at   70  2
       a = -1.500      CL = -0.1869
      Cm =  0.0029     CD =  0.00595   =>   CDf =  0.00431    CDp =  0.00164

 Side 1 forced transition at x/c =  1.0000   79
 Side 2  free  transition at x/c =  0.8261   70

 102   rms: 0.2535E-02   max: -.3893E-01   C at   70  2
       a = -1.500      CL = -0.1869
      Cm =  0.0029     CD =  0.00595   =>   CDf =  0.00431    CDp =  0.00164

 Side 1 forced transition at x/c =  1.0000   79
 Side 2  free  transition at x/c =  0.8261   70

 103   rms: 0.2535E-02   max: -.3893E-01   C at   70  2
       a = -1.500      CL = -0.1869
      Cm =  0.0029     CD =  0.00595   =>   CDf =  0.00431    CDp =  0.00164

 Side 1 forced transition at x/c =  1.0000   79
 Side 2  free  transition at x/c =  0.8261   70

 104   rms: 0.2535E-02   max: -.3892E-01   C at   70  2
       a = -1.500      CL = -0.1869
      Cm =  0.0029     CD =  0.00595   =>   CDf =  0.00431    CDp =  0.00164

 Side 1 forced transition at x/c =  1.0000   79
 Side 2  free  transition at x/c =  0.8261   70

 105   rms: 0.2536E-02   max: -.3894E-01   C at   70  2
       a = -1.500      CL = -0.1869
      Cm =  0.0029     CD =  0.00595   =>   CDf =  0.00431    CDp =  0.00164

 Side 1 forced transition at x/c =  1.0000   79
 Side 2  free  transition at x/c =  0.8261   70

 106   rms: 0.2535E-02   max: -.3893E-01   C at   70  2
       a = -1.500      CL = -0.1869
      Cm =  0.0029     CD =  0.00595   =>   CDf =  0.00431    CDp =  0.00164

 Side 1 forced transition at x/c =  1.0000   79
 Side 2  free  transition at x/c =  0.8261   70

 107   rms: 0.2535E-02   max: -.3893E-01   C at   70  2
       a = -1.500      CL = -0.1869
      Cm =  0.0029     CD =  0.00595   =>   CDf =  0.00431    CDp =  0.00164

 Side 1 forced transition at x/c =  1.0000   79
 Side 2  free  transition at x/c =  0.8261   70

 108   rms: 0.2535E-02   max: -.3893E-01   C at   70  2
       a = -1.500      CL = -0.1869
      Cm =  0.0029     CD =  0.00595   =>   CDf =  0.00431    CDp =  0.00164

 Side 1 forced transition at x/c =  1.0000   79
 Side 2  free  transition at x/c =  0.8261   70

 109   rms: 0.2535E-02   max: -.3893E-01   C at   70  2
       a = -1.500      CL = -0.1869
      Cm =  0.0029     CD =  0.00595   =>   CDf =  0.00431    CDp =  0.00164

 Side 1 forced transition at x/c =  1.0000   79
 Side 2  free  transition at x/c =  0.8261   70

 110   rms: 0.2535E-02   max: -.3893E-01   C at   70  2
       a = -1.500      CL = -0.1869
      Cm =  0.0029     CD =  0.00595   =>   CDf =  0.00431    CDp =  0.00164

 Side 1 forced transition at x/c =  1.0000   79
 Side 2  free  transition at x/c =  0.8261   70

 111   rms: 0.2535E-02   max: -.3892E-01   C at   70  2
       a = -1.500      CL = -0.1869
      Cm =  0.0029     CD =  0.00595   =>   CDf =  0.00431    CDp =  0.00164

 Side 1 forced transition at x/c =  1.0000   79
 Side 2  free  transition at x/c =  0.8261   70

 112   rms: 0.2536E-02   max: -.3894E-01   C at   70  2
       a = -1.500      CL = -0.1869
      Cm =  0.0029     CD =  0.00595   =>   CDf =  0.00431    CDp =  0.00164

 Side 1 forced transition at x/c =  1.0000   79
 Side 2  free  transition at x/c =  0.8261   70

 113   rms: 0.2536E-02   max: -.3894E-01   C at   70  2
       a = -1.500      CL = -0.1869
      Cm =  0.0029     CD =  0.00595   =>   CDf =  0.00431    CDp =  0.00164

 Side 1 forced transition at x/c =  1.0000   79
 Side 2  free  transition at x/c =  0.8261   70

 114   rms: 0.2535E-02   max: -.3893E-01   C at   70  2
       a = -1.500      CL = -0.1869
      Cm =  0.0029     CD =  0.00595   =>   CDf =  0.00431    CDp =  0.00164

 Side 1 forced transition at x/c =  1.0000   79
 Side 2  free  transition at x/c =  0.8261   70

 115   rms: 0.2535E-02   max: -.3892E-01   C at   70  2
       a = -1.500      CL = -0.1869
      Cm =  0.0029     CD =  0.00595   =>   CDf =  0.00431    CDp =  0.00164

 Side 1 forced transition at x/c =  1.0000   79
 Side 2  free  transition at x/c =  0.8261   70

 116   rms: 0.2536E-02   max: -.3894E-01   C at   70  2
       a = -1.500      CL = -0.1869
      Cm =  0.0029     CD =  0.00595   =>   CDf =  0.00431    CDp =  0.00164

 Side 1 forced transition at x/c =  1.0000   79
 Side 2  free  transition at x/c =  0.8261   70

 117   rms: 0.2535E-02   max: -.3892E-01   C at   70  2
       a = -1.500      CL = -0.1869
      Cm =  0.0029     CD =  0.00595   =>   CDf =  0.00431    CDp =  0.00164

 Side 1 forced transition at x/c =  1.0000   79
 Side 2  free  transition at x/c =  0.8261   70

 118   rms: 0.2536E-02   max: -.3894E-01   C at   70  2
       a = -1.500      CL = -0.1869
      Cm =  0.0029     CD =  0.00595   =>   CDf =  0.00431    CDp =  0.00164

 Side 1 forced transition at x/c =  1.0000   79
 Side 2  free  transition at x/c =  0.8261   70

 119   rms: 0.2535E-02   max: -.3893E-01   C at   70  2
       a = -1.500      CL = -0.1869
      Cm =  0.0029     CD =  0.00595   =>   CDf =  0.00431    CDp =  0.00164

 Side 1 forced transition at x/c =  1.0000   79
 Side 2  free  transition at x/c =  0.8261   70

 120   rms: 0.2535E-02   max: -.3893E-01   C at   70  2
       a = -1.500      CL = -0.1869
      Cm =  0.0029     CD =  0.00595   =>   CDf =  0.00431    CDp =  0.00164

 Side 1 forced transition at x/c =  1.0000   79
 Side 2  free  transition at x/c =  0.8261   70

 121   rms: 0.2534E-02   max: -.3891E-01   C at   70  2
       a = -1.500      CL = -0.1869
      Cm =  0.0029     CD =  0.00595   =>   CDf =  0.00431    CDp =  0.00164

 Side 1 forced transition at x/c =  1.0000   79
 Side 2  free  transition at x/c =  0.8261   70

 122   rms: 0.2535E-02   max: -.3892E-01   C at   70  2
       a = -1.500      CL = -0.1869
      Cm =  0.0029     CD =  0.00595   =>   CDf =  0.00431    CDp =  0.00164

 Side 1 forced transition at x/c =  1.0000   79
 Side 2  free  transition at x/c =  0.8261   70

 123   rms: 0.2536E-02   max: -.3894E-01   C at   70  2
       a = -1.500      CL = -0.1869
      Cm =  0.0029     CD =  0.00595   =>   CDf =  0.00431    CDp =  0.00164

 Side 1 forced transition at x/c =  1.0000   79
 Side 2  free  transition at x/c =  0.8261   70

 124   rms: 0.2535E-02   max: -.3892E-01   C at   70  2
       a = -1.500      CL = -0.1869
      Cm =  0.0029     CD =  0.00595   =>   CDf =  0.00431    CDp =  0.00164

 Side 1 forced transition at x/c =  1.0000   79
 Side 2  free  transition at x/c =  0.8261   70

 125   rms: 0.2535E-02   max: -.3892E-01   C at   70  2
       a = -1.500      CL = -0.1869
      Cm =  0.0029     CD =  0.00595   =>   CDf =  0.00431    CDp =  0.00164

 Side 1 forced transition at x/c =  1.0000   79
 Side 2  free  transition at x/c =  0.8261   70

 126   rms: 0.2535E-02   max: -.3892E-01   C at   70  2
       a = -1.500      CL = -0.1869
      Cm =  0.0029     CD =  0.00595   =>   CDf =  0.00431    CDp =  0.00164

 Side 1 forced transition at x/c =  1.0000   79
 Side 2  free  transition at x/c =  0.8261   70

 127   rms: 0.2536E-02   max: -.3893E-01   C at   70  2
       a = -1.500      CL = -0.1869
      Cm =  0.0029     CD =  0.00595   =>   CDf =  0.00431    CDp =  0.00164

 Side 1 forced transition at x/c =  1.0000   79
 Side 2  free  transition at x/c =  0.8261   70

 128   rms: 0.2536E-02   max: -.3894E-01   C at   70  2
       a = -1.500      CL = -0.1869
      Cm =  0.0029     CD =  0.00595   =>   CDf =  0.00431    CDp =  0.00164

 Side 1 forced transition at x/c =  1.0000   79
 Side 2  free  transition at x/c =  0.8261   70

 129   rms: 0.2535E-02   max: -.3892E-01   C at   70  2
       a = -1.500      CL = -0.1869
      Cm =  0.0029     CD =  0.00595   =>   CDf =  0.00431    CDp =  0.00164

 Side 1 forced transition at x/c =  1.0000   79
 Side 2  free  transition at x/c =  0.8261   70

 130   rms: 0.2536E-02   max: -.3894E-01   C at   70  2
       a = -1.500      CL = -0.1869
      Cm =  0.0029     CD =  0.00595   =>   CDf =  0.00431    CDp =  0.00164

 Side 1 forced transition at x/c =  1.0000   79
 Side 2  free  transition at x/c =  0.8261   70

 131   rms: 0.2535E-02   max: -.3893E-01   C at   70  2
       a = -1.500      CL = -0.1869
      Cm =  0.0029     CD =  0.00595   =>   CDf =  0.00431    CDp =  0.00164

 Side 1 forced transition at x/c =  1.0000   79
 Side 2  free  transition at x/c =  0.8261   70

 132   rms: 0.2535E-02   max: -.3893E-01   C at   70  2
       a = -1.500      CL = -0.1869
      Cm =  0.0029     CD =  0.00595   =>   CDf =  0.00431    CDp =  0.00164

 Side 1 forced transition at x/c =  1.0000   79
 Side 2  free  transition at x/c =  0.8261   70

 133   rms: 0.2535E-02   max: -.3893E-01   C at   70  2
       a = -1.500      CL = -0.1869
      Cm =  0.0029     CD =  0.00595   =>   CDf =  0.00431    CDp =  0.00164

 Side 1 forced transition at x/c =  1.0000   79
 Side 2  free  transition at x/c =  0.8261   70

 134   rms: 0.2535E-02   max: -.3892E-01   C at   70  2
       a = -1.500      CL = -0.1869
      Cm =  0.0029     CD =  0.00595   =>   CDf =  0.00431    CDp =  0.00164

 Side 1 forced transition at x/c =  1.0000   79
 Side 2  free  transition at x/c =  0.8261   70

 135   rms: 0.2535E-02   max: -.3893E-01   C at   70  2
       a = -1.500      CL = -0.1869
      Cm =  0.0029     CD =  0.00595   =>   CDf =  0.00431    CDp =  0.00164

 Side 1 forced transition at x/c =  1.0000   79
 Side 2  free  transition at x/c =  0.8261   70

 136   rms: 0.2536E-02   max: -.3894E-01   C at   70  2
       a = -1.500      CL = -0.1869
      Cm =  0.0029     CD =  0.00595   =>   CDf =  0.00431    CDp =  0.00164

 Side 1 forced transition at x/c =  1.0000   79
 Side 2  free  transition at x/c =  0.8261   70

 137   rms: 0.2536E-02   max: -.3894E-01   C at   70  2
       a = -1.500      CL = -0.1869
      Cm =  0.0029     CD =  0.00595   =>   CDf =  0.00431    CDp =  0.00164

 Side 1 forced transition at x/c =  1.0000   79
 Side 2  free  transition at x/c =  0.8261   70

 138   rms: 0.2535E-02   max: -.3892E-01   C at   70  2
       a = -1.500      CL = -0.1869
      Cm =  0.0029     CD =  0.00595   =>   CDf =  0.00431    CDp =  0.00164

 Side 1 forced transition at x/c =  1.0000   79
 Side 2  free  transition at x/c =  0.8261   70

 139   rms: 0.2535E-02   max: -.3893E-01   C at   70  2
       a = -1.500      CL = -0.1869
      Cm =  0.0029     CD =  0.00595   =>   CDf =  0.00431    CDp =  0.00164

 Side 1 forced transition at x/c =  1.0000   79
 Side 2  free  transition at x/c =  0.8261   70

 140   rms: 0.2535E-02   max: -.3892E-01   C at   70  2
       a = -1.500      CL = -0.1869
      Cm =  0.0029     CD =  0.00595   =>   CDf =  0.00431    CDp =  0.00164

 Side 1 forced transition at x/c =  1.0000   79
 Side 2  free  transition at x/c =  0.8261   70

 141   rms: 0.2536E-02   max: -.3893E-01   C at   70  2
       a = -1.500      CL = -0.1869
      Cm =  0.0029     CD =  0.00595   =>   CDf =  0.00431    CDp =  0.00164

 Side 1 forced transition at x/c =  1.0000   79
 Side 2  free  transition at x/c =  0.8261   70

 142   rms: 0.2536E-02   max: -.3894E-01   C at   70  2
       a = -1.500      CL = -0.1869
      Cm =  0.0029     CD =  0.00595   =>   CDf =  0.00431    CDp =  0.00164

 Side 1 forced transition at x/c =  1.0000   79
 Side 2  free  transition at x/c =  0.8261   70

 143   rms: 0.2535E-02   max: -.3892E-01   C at   70  2
       a = -1.500      CL = -0.1869
      Cm =  0.0029     CD =  0.00595   =>   CDf =  0.00431    CDp =  0.00164

 Side 1 forced transition at x/c =  1.0000   79
 Side 2  free  transition at x/c =  0.8261   70

 144   rms: 0.2536E-02   max: -.3894E-01   C at   70  2
       a = -1.500      CL = -0.1869
      Cm =  0.0029     CD =  0.00595   =>   CDf =  0.00431    CDp =  0.00164

 Side 1 forced transition at x/c =  1.0000   79
 Side 2  free  transition at x/c =  0.8261   70

 145   rms: 0.2535E-02   max: -.3893E-01   C at   70  2
       a = -1.500      CL = -0.1869
      Cm =  0.0029     CD =  0.00595   =>   CDf =  0.00431    CDp =  0.00164

 Side 1 forced transition at x/c =  1.0000   79
 Side 2  free  transition at x/c =  0.8261   70

 146   rms: 0.2535E-02   max: -.3893E-01   C at   70  2
       a = -1.500      CL = -0.1869
      Cm =  0.0029     CD =  0.00595   =>   CDf =  0.00431    CDp =  0.00164

 Side 1 forced transition at x/c =  1.0000   79
 Side 2  free  transition at x/c =  0.8261   70

 147   rms: 0.2535E-02   max: -.3893E-01   C at   70  2
       a = -1.500      CL = -0.1869
      Cm =  0.0029     CD =  0.00595   =>   CDf =  0.00431    CDp =  0.00164

 Side 1 forced transition at x/c =  1.0000   79
 Side 2  free  transition at x/c =  0.8261   70

 148   rms: 0.2536E-02   max: -.3894E-01   C at   70  2
       a = -1.500      CL = -0.1869
      Cm =  0.0029     CD =  0.00595   =>   CDf =  0.00431    CDp =  0.00164

 Side 1 forced transition at x/c =  1.0000   79
 Side 2  free  transition at x/c =  0.8261   70

 149   rms: 0.2535E-02   max: -.3893E-01   C at   70  2
       a = -1.500      CL = -0.1869
      Cm =  0.0029     CD =  0.00595   =>   CDf =  0.00431    CDp =  0.00164

 Side 1 forced transition at x/c =  1.0000   79
 Side 2  free  transition at x/c =  0.8261   70

 150   rms: 0.2537E-02   max: -.3895E-01   C at   70  2
       a = -1.500      CL = -0.1869
      Cm =  0.0029     CD =  0.00595   =>   CDf =  0.00431    CDp =  0.00164

 Side 1 forced transition at x/c =  1.0000   79
 Side 2  free  transition at x/c =  0.8261   70

 151   rms: 0.2535E-02   max: -.3892E-01   C at   70  2
       a = -1.500      CL = -0.1869
      Cm =  0.0029     CD =  0.00595   =>   CDf =  0.00431    CDp =  0.00164

 Side 1 forced transition at x/c =  1.0000   79
 Side 2  free  transition at x/c =  0.8261   70

 152   rms: 0.2536E-02   max: -.3895E-01   C at   70  2
       a = -1.500      CL = -0.1869
      Cm =  0.0029     CD =  0.00595   =>   CDf =  0.00431    CDp =  0.00164

 Side 1 forced transition at x/c =  1.0000   79
 Side 2  free  transition at x/c =  0.8261   70

 153   rms: 0.2535E-02   max: -.3892E-01   C at   70  2
       a = -1.500      CL = -0.1869
      Cm =  0.0029     CD =  0.00595   =>   CDf =  0.00431    CDp =  0.00164

 Side 1 forced transition at x/c =  1.0000   79
 Side 2  free  transition at x/c =  0.8261   70

 154   rms: 0.2534E-02   max: -.3892E-01   C at   70  2
       a = -1.500      CL = -0.1869
      Cm =  0.0029     CD =  0.00595   =>   CDf =  0.00431    CDp =  0.00164

 Side 1 forced transition at x/c =  1.0000   79
 Side 2  free  transition at x/c =  0.8261   70

 155   rms: 0.2535E-02   max: -.3893E-01   C at   70  2
       a = -1.500      CL = -0.1869
      Cm =  0.0029     CD =  0.00595   =>   CDf =  0.00431    CDp =  0.00164
 VISCAL:  Convergence failed
 Calculating wake trajectory ...
 Calculating source influence matrix ...

 Solving BL system ...

 Side 1 forced transition at x/c =  1.0000   79
 Side 2  free  transition at x/c =  0.8261   70

   1   rms: 0.1523E+00   max: -.2043E+01   C at   70  2   RLX: 0.245
       a = -1.000      CL = -0.1759
      Cm =  0.0038     CD =  0.00585   =>   CDf =  0.00431    CDp =  0.00154

 Side 1 forced transition at x/c =  1.0000   79
 Side 2  free  transition at x/c =  0.8934   75

   2   rms: 0.7582E-01   max: -.2826E+00   T at   75  2
       a = -1.000      CL = -0.1437
      Cm =  0.0069     CD =  0.00569   =>   CDf =  0.00420    CDp =  0.00150

 MRCHDU: Convergence failed at  82  side 2    Res =  0.1084E+01
 Side 1 forced transition at x/c =  1.0000   80
 Side 2 forced transition at x/c =  1.0000   82

   3   rms: 0.6844E-01   max: 0.6010E+00   D at   74  2
       a = -1.000      CL = -0.0980
      Cm = -0.0031     CD =  0.00566   =>   CDf =  0.00416    CDp =  0.00150

 Side 1 forced transition at x/c =  1.0000   80
 Side 2 forced transition at x/c =  1.0000   82

   4   rms: 0.1392E-01   max: 0.1178E+00   D at   75  2
       a = -1.000      CL = -0.1016
      Cm = -0.0020     CD =  0.00572   =>   CDf =  0.00416    CDp =  0.00156

 Side 1 forced transition at x/c =  1.0000   80
 Side 2  free  transition at x/c =  0.9824   80

   5   rms: 0.2362E-01   max: -.1830E+00   D at   82  2
       a = -1.000      CL = -0.1135
      Cm =  0.0006     CD =  0.00572   =>   CDf =  0.00412    CDp =  0.00161

 Side 1 forced transition at x/c =  1.0000   80
 Side 2  free  transition at x/c =  0.9943   81

   6   rms: 0.9106E-02   max: 0.7942E-01   C at   81  2
       a = -1.000      CL = -0.1101
      Cm = -0.0002     CD =  0.00572   =>   CDf =  0.00412    CDp =  0.00161

 Side 1 forced transition at x/c =  1.0000   80
 Side 2  free  transition at x/c =  0.9893   81

   7   rms: 0.4951E-03   max: -.4520E-02   C at   81  2
       a = -1.000      CL = -0.1102
      Cm = -0.0002     CD =  0.00573   =>   CDf =  0.00412    CDp =  0.00161

 Side 1 forced transition at x/c =  1.0000   80
 Side 2  free  transition at x/c =  0.9895   81

   8   rms: 0.1077E-05   max: -.7396E-05   D at   81  2
       a = -1.000      CL = -0.1102
      Cm = -0.0002     CD =  0.00573   =>   CDf =  0.00412    CDp =  0.00161
 plradd ia,ip,cpol            6           0  1.93715245E-02

 Point added to stored polar  1
 Point written to save file  ht33_Re300k.base.pol                            
 Dump file unspecified or not available
 Calculating wake trajectory ...
 Calculating source influence matrix ...

 Solving BL system ...

 Side 1 forced transition at x/c =  1.0000   80
 Side 2  free  transition at x/c =  0.9895   81

   1   rms: 0.1441E+00   max: 0.4823E+00   D at   82  2
       a = -0.500      CL = -0.0008
      Cm = -0.0115     CD =  0.00563   =>   CDf =  0.00418    CDp =  0.00145

 Side 1 forced transition at x/c =  1.0000   81
 Side 2 forced transition at x/c =  1.0000   81
 idif Ue xi dudx           1  0.31831416      1.56760216E-03   203.05800    
 Uenew xinew           2  1.09897051E-02  5.41210175E-05

   2   rms: 0.1015E+00   max: -.5738E+00   D at   81  2   RLX: 0.871
       a = -0.500      CL = -0.0501
      Cm = -0.0014     CD =  0.00558   =>   CDf =  0.00419    CDp =  0.00139

 Side 1 forced transition at x/c =  1.0000   80
 Side 2 forced transition at x/c =  1.0000   82

   3   rms: 0.1634E-01   max: 0.1018E+00   D at   81  2
       a = -0.500      CL = -0.0509
      Cm = -0.0010     CD =  0.00566   =>   CDf =  0.00423    CDp =  0.00142

 Side 1 forced transition at x/c =  1.0000   80
 Side 2 forced transition at x/c =  1.0000   82

   4   rms: 0.1738E-02   max: 0.1699E-01   C at   82  2
       a = -0.500      CL = -0.0509
      Cm = -0.0010     CD =  0.00567   =>   CDf =  0.00420    CDp =  0.00147

 Side 1 forced transition at x/c =  1.0000   80
 Side 2 forced transition at x/c =  1.0000   82

   5   rms: 0.2830E-04   max: 0.3266E-03   C at   82  2
       a = -0.500      CL = -0.0509
      Cm = -0.0010     CD =  0.00567   =>   CDf =  0.00419    CDp =  0.00148
 plradd ia,ip,cpol            7           0  2.69596353E-02

 Point added to stored polar  1
 Point written to save file  ht33_Re300k.base.pol                            
 Dump file unspecified or not available
 Calculating wake trajectory ...
 Calculating source influence matrix ...

 Solving BL system ...

 Side 1 forced transition at x/c =  1.0000   80
 Side 2 forced transition at x/c =  1.0000   82

   1   rms: 0.9025E-01   max: -.2068E+00   C at   82  2
       a =  0.000      CL = -0.0001
      Cm =  0.0000     CD =  0.00565   =>   CDf =  0.00424    CDp =  0.00141

 Side 1 forced transition at x/c =  1.0000   81
 Side 2 forced transition at x/c =  1.0000   81

   2   rms: 0.4385E-02   max: 0.3467E-01   D at    3  1
       a =  0.000      CL =  0.0000
      Cm =  0.0000     CD =  0.00565   =>   CDf =  0.00423    CDp =  0.00142

 Side 1 forced transition at x/c =  1.0000   81
 Side 2 forced transition at x/c =  1.0000   81

   3   rms: 0.2638E-03   max: -.2020E-02   D at    6  2
       a =  0.000      CL =  0.0000
      Cm =  0.0000     CD =  0.00565   =>   CDf =  0.00422    CDp =  0.00143

 Side 1 forced transition at x/c =  1.0000   81
 Side 2 forced transition at x/c =  1.0000   81

   4   rms: 0.5896E-06   max: 0.4356E-05   C at   81  2
       a =  0.000      CL =  0.0000
      Cm =  0.0000     CD =  0.00565   =>   CDf =  0.00422    CDp =  0.00143
 plradd ia,ip,cpol            8           0  4.79706787E-02

 Point added to stored polar  1
 Point written to save file  ht33_Re300k.base.pol                            
 Dump file unspecified or not available
 Calculating wake trajectory ...
 Calculating source influence matrix ...

 Solving BL system ...

 Side 1 forced transition at x/c =  1.0000   81
 Side 2 forced transition at x/c =  1.0000   81

   1   rms: 0.8867E-01   max: -.1989E+00   C at   81  2
       a =  0.500      CL =  0.0510
      Cm =  0.0010     CD =  0.00566   =>   CDf =  0.00424    CDp =  0.00142

 Side 1 forced transition at x/c =  1.0000   82
 Side 2 forced transition at x/c =  1.0000   80

   2   rms: 0.3189E-02   max: 0.2111E-01   C at   82  1
       a =  0.500      CL =  0.0509
      Cm =  0.0010     CD =  0.00567   =>   CDf =  0.00420    CDp =  0.00147

 Side 1 forced transition at x/c =  1.0000   82
 Side 2 forced transition at x/c =  1.0000   80

   3   rms: 0.2735E-03   max: -.2733E-02   D at    4  1
       a =  0.500      CL =  0.0509
      Cm =  0.0010     CD =  0.00567   =>   CDf =  0.00419    CDp =  0.00148

 Side 1 forced transition at x/c =  1.0000   82
 Side 2 forced transition at x/c =  1.0000   80

   4   rms: 0.5799E-06   max: -.4284E-05   D at    4  1
       a =  0.500      CL =  0.0509
      Cm =  0.0010     CD =  0.00567   =>   CDf =  0.00419    CDp =  0.00148
 plradd ia,ip,cpol            9           0  2.69505884E-02

 Point added to stored polar  1
 Point written to save file  ht33_Re300k.base.pol                            
 Dump file unspecified or not available
 Calculating wake trajectory ...
 Calculating source influence matrix ...

 Solving BL system ...

 Side 1 forced transition at x/c =  1.0000   82
 Side 2 forced transition at x/c =  1.0000   80

   1   rms: 0.9021E-01   max: -.2019E+00   C at   80  2
       a =  1.000      CL =  0.1017
      Cm =  0.0020     CD =  0.00571   =>   CDf =  0.00419    CDp =  0.00152

 Side 1  free  transition at x/c =  0.9882   81
 Side 2 forced transition at x/c =  1.0000   80

   2   rms: 0.1646E-01   max: -.1233E+00   C at   81  1
       a =  1.000      CL =  0.1106
      Cm =  0.0001     CD =  0.00572   =>   CDf =  0.00413    CDp =  0.00159

 Side 1  free  transition at x/c =  0.9903   81
 Side 2 forced transition at x/c =  1.0000   80

   3   rms: 0.1703E-02   max: 0.1627E-01   C at   81  1
       a =  1.000      CL =  0.1103
      Cm =  0.0002     CD =  0.00573   =>   CDf =  0.00412    CDp =  0.00161

 Side 1  free  transition at x/c =  0.9894   81
 Side 2 forced transition at x/c =  1.0000   80

   4   rms: 0.1534E-04   max: -.1453E-03   C at   81  1
       a =  1.000      CL =  0.1103
      Cm =  0.0002     CD =  0.00573   =>   CDf =  0.00412    CDp =  0.00161
 plradd ia,ip,cpol           10           0  1.93646178E-02

 Point added to stored polar  1
 Point written to save file  ht33_Re300k.base.pol                            
 Dump file unspecified or not available
 Calculating wake trajectory ...
 Calculating source influence matrix ...

 Solving BL system ...

 Side 1  free  transition at x/c =  0.9894   81
 Side 2 forced transition at x/c =  1.0000   80

   1   rms: 0.1438E+00   max: 0.3625E+00   C at   80  2
       a =  1.500      CL =  0.2196
      Cm = -0.0112     CD =  0.00580   =>   CDf =  0.00408    CDp =  0.00172

 Side 1  free  transition at x/c =  0.7709   67
 Side 2 forced transition at x/c =  1.0000   79

   2   rms: 0.6006E-01   max: -.7503E+00   C at   67  1   RLX: 0.666
       a =  1.500      CL =  0.1971
      Cm = -0.0050     CD =  0.00601   =>   CDf =  0.00457    CDp =  0.00144

 Side 1  free  transition at x/c =  0.8063   69
 Side 2 forced transition at x/c =  1.0000   79

   3   rms: 0.1803E-01   max: -.2030E+00   C at   69  1
       a =  1.500      CL =  0.1866
      Cm = -0.0028     CD =  0.00597   =>   CDf =  0.00438    CDp =  0.00159

 Side 1  free  transition at x/c =  0.8289   71
 Side 2 forced transition at x/c =  1.0000   79

   4   rms: 0.4304E-02   max: 0.6479E-01   C at   71  1
       a =  1.500      CL =  0.1870
      Cm = -0.0029     CD =  0.00596   =>   CDf =  0.00429    CDp =  0.00167

 Side 1  free  transition at x/c =  0.8261   70
 Side 2 forced transition at x/c =  1.0000   79

   5   rms: 0.5626E-04   max: -.7270E-03   D at   75  1
       a =  1.500      CL =  0.1870
      Cm = -0.0029     CD =  0.00596   =>   CDf =  0.00431    CDp =  0.00165
 plradd ia,ip,cpol           11           0  9.67915356E-03

 Point added to stored polar  1
 Point written to save file  ht33_Re300k.base.pol                            
 Dump file unspecified or not available
 Calculating wake trajectory ...
 Calculating source influence matrix ...

 Solving BL system ...

 Side 1  free  transition at x/c =  0.8261   70
 Side 2 forced transition at x/c =  1.0000   79

   1   rms: 0.1810E+00   max: 0.2615E+01   C at   70  1   RLX: 0.574
       a =  2.000      CL =  0.2118
      Cm = -0.0006     CD =  0.00625   =>   CDf =  0.00431    CDp =  0.00194

 Side 1  free  transition at x/c =  0.6879   61
 Side 2 forced transition at x/c =  1.0000   79

   2   rms: 0.5663E-01   max: 0.6374E+00   C at   61  1
       a =  2.000      CL =  0.2322
      Cm =  0.0003     CD =  0.00676   =>   CDf =  0.00487    CDp =  0.00189

 Side 1  free  transition at x/c =  0.6004   55
 Side 2 forced transition at x/c =  1.0000   79

   3   rms: 0.2116E-01   max: -.2973E+00   C at   55  1
       a =  2.000      CL =  0.2315
      Cm =  0.0005     CD =  0.00683   =>   CDf =  0.00522    CDp =  0.00161

 Side 1  free  transition at x/c =  0.6130   56
 Side 2 forced transition at x/c =  1.0000   79

   4   rms: 0.1367E-02   max: -.2291E-01   D at   60  1
       a =  2.000      CL =  0.2315
      Cm =  0.0004     CD =  0.00684   =>   CDf =  0.00514    CDp =  0.00170

 Side 1  free  transition at x/c =  0.6124   56
 Side 2 forced transition at x/c =  1.0000   79

   5   rms: 0.1967E-04   max: -.3272E-03   D at   60  1
       a =  2.000      CL =  0.2315
      Cm =  0.0004     CD =  0.00684   =>   CDf =  0.00514    CDp =  0.00170
 plradd ia,ip,cpol           12           0  6.62419153E-03

 Point added to stored polar  1
 Point written to save file  ht33_Re300k.base.pol                            
 Dump file unspecified or not available
 Calculating wake trajectory ...
 Calculating source influence matrix ...

 Solving BL system ...

 Side 1  free  transition at x/c =  0.6123   56
 Side 2 forced transition at x/c =  1.0000   79

   1   rms: 0.2652E+00   max: 0.4225E+01   C at   56  1   RLX: 0.355
       a =  2.500      CL =  0.2482
      Cm =  0.0012     CD =  0.00726   =>   CDf =  0.00514    CDp =  0.00212

 Side 1  free  transition at x/c =  0.5364   50
 Side 2 forced transition at x/c =  1.0000   79

   2   rms: 0.9182E-01   max: 0.1154E+01   C at   50  1
       a =  2.500      CL =  0.2829
      Cm =  0.0015     CD =  0.00761   =>   CDf =  0.00543    CDp =  0.00218

 Side 1  free  transition at x/c =  0.4239   43
 Side 2 forced transition at x/c =  1.0000   78

   3   rms: 0.2573E-01   max: -.2670E+00   C at   43  1
       a =  2.500      CL =  0.2820
      Cm =  0.0016     CD =  0.00779   =>   CDf =  0.00593    CDp =  0.00186

 Side 1  free  transition at x/c =  0.4394   45
 Side 2 forced transition at x/c =  1.0000   78

   4   rms: 0.3191E-02   max: -.3416E-01   D at   47  1
       a =  2.500      CL =  0.2821
      Cm =  0.0016     CD =  0.00778   =>   CDf =  0.00584    CDp =  0.00195

 Side 1  free  transition at x/c =  0.4366   44
 Side 2 forced transition at x/c =  1.0000   78

   5   rms: 0.7643E-03   max: 0.1218E-01   C at   44  1
       a =  2.500      CL =  0.2821
      Cm =  0.0016     CD =  0.00777   =>   CDf =  0.00583    CDp =  0.00194

 Side 1  free  transition at x/c =  0.4362   44
 Side 2 forced transition at x/c =  1.0000   78

   6   rms: 0.2381E-05   max: -.3699E-04   D at   47  1
       a =  2.500      CL =  0.2821
      Cm =  0.0016     CD =  0.00777   =>   CDf =  0.00583    CDp =  0.00194
 plradd ia,ip,cpol           13           0  4.30571940E-03

 Point added to stored polar  1
 Point written to save file  ht33_Re300k.base.pol                            
 Dump file unspecified or not available
 Calculating wake trajectory ...
 Calculating source influence matrix ...

 Solving BL system ...

 Side 1  free  transition at x/c =  0.4362   44
 Side 2 forced transition at x/c =  1.0000   78

   1   rms: 0.1750E+00   max: 0.2621E+01   C at   44  1   RLX: 0.572
       a =  3.000      CL =  0.3125
      Cm =  0.0019     CD =  0.00817   =>   CDf =  0.00583    CDp =  0.00234

 Side 1  free  transition at x/c =  0.3439   38
 Side 2 forced transition at x/c =  1.0000   78

   2   rms: 0.5246E-01   max: -.4405E+00   D at   39  1
       a =  3.000      CL =  0.3350
      Cm =  0.0020     CD =  0.00854   =>   CDf =  0.00621    CDp =  0.00233

 Side 1  free  transition at x/c =  0.2870   34
 Side 2 forced transition at x/c =  1.0000   78

   3   rms: 0.1785E-01   max: -.2036E+00   C at   34  1
       a =  3.000      CL =  0.3347
      Cm =  0.0020     CD =  0.00863   =>   CDf =  0.00641    CDp =  0.00221

 Side 1  free  transition at x/c =  0.2920   34
 Side 2 forced transition at x/c =  1.0000   78

   4   rms: 0.2376E-02   max: 0.3773E-01   C at   34  1
       a =  3.000      CL =  0.3347
      Cm =  0.0020     CD =  0.00864   =>   CDf =  0.00637    CDp =  0.00227

 Side 1  free  transition at x/c =  0.2908   34
 Side 2 forced transition at x/c =  1.0000   78

   5   rms: 0.2563E-04   max: -.4480E-03   D at   37  1
       a =  3.000      CL =  0.3347
      Cm =  0.0020     CD =  0.00864   =>   CDf =  0.00638    CDp =  0.00226
 plradd ia,ip,cpol           14           0  2.54967017E-03

 Point added to stored polar  1
 Point written to save file  ht33_Re300k.base.pol                            
 Dump file unspecified or not available
 Calculating wake trajectory ...
 Calculating source influence matrix ...

 Solving BL system ...

 Side 1  free  transition at x/c =  0.2908   34
 Side 2 forced transition at x/c =  1.0000   78

   1   rms: 0.1982E+00   max: 0.3183E+01   C at   34  1   RLX: 0.471
       a =  3.500      CL =  0.3596
      Cm =  0.0022     CD =  0.00906   =>   CDf =  0.00638    CDp =  0.00268

 Side 1  free  transition at x/c =  0.2212   29
 Side 2 forced transition at x/c =  1.0000   78

   2   rms: 0.6770E-01   max: -.5835E+00   D at   30  1   RLX: 0.857
       a =  3.500      CL =  0.3842
      Cm =  0.0023     CD =  0.00936   =>   CDf =  0.00659    CDp =  0.00278

 Side 1  free  transition at x/c =  0.1611   26
 Side 2 forced transition at x/c =  1.0000   77

   3   rms: 0.2524E-01   max: -.3302E+00   D at   26  1
       a =  3.500      CL =  0.3873
      Cm =  0.0023     CD =  0.00970   =>   CDf =  0.00690    CDp =  0.00280

 Side 1  free  transition at x/c =  0.1434   25
 Side 2 forced transition at x/c =  1.0000   77

   4   rms: 0.4722E-02   max: -.8647E-01   D at   26  1
       a =  3.500      CL =  0.3871
      Cm =  0.0023     CD =  0.00978   =>   CDf =  0.00697    CDp =  0.00280

 Side 1  free  transition at x/c =  0.1418   25
 Side 2 forced transition at x/c =  1.0000   77

   5   rms: 0.4228E-03   max: -.6441E-02   D at   26  1
       a =  3.500      CL =  0.3871
      Cm =  0.0023     CD =  0.00978   =>   CDf =  0.00699    CDp =  0.00279

 Side 1  free  transition at x/c =  0.1417   25
 Side 2 forced transition at x/c =  1.0000   77

   6   rms: 0.3384E-05   max: 0.4554E-04   C at   25  1
       a =  3.500      CL =  0.3871
      Cm =  0.0023     CD =  0.00978   =>   CDf =  0.00699    CDp =  0.00279
 plradd ia,ip,cpol           15           0  2.54967017E-03

 Point added to stored polar  1
 Point written to save file  ht33_Re300k.base.pol                            
 Dump file unspecified or not available
 Calculating wake trajectory ...
 Calculating source influence matrix ...

 Solving BL system ...

 Side 1  free  transition at x/c =  0.1417   25
 Side 2 forced transition at x/c =  1.0000   77

   1   rms: 0.2684E+00   max: 0.3568E+01   C at   25  1   RLX: 0.230
       a =  4.000      CL =  0.3989
      Cm =  0.0023     CD =  0.01021   =>   CDf =  0.00699    CDp =  0.00322

 Side 1  free  transition at x/c =  0.1182   23
 Side 2 forced transition at x/c =  1.0000   77

   2   rms: 0.1611E+00   max: 0.1508E+01   C at   23  1   RLX: 0.364
       a =  4.000      CL =  0.4138
      Cm =  0.0024     CD =  0.01049   =>   CDf =  0.00709    CDp =  0.00340

 Side 1  free  transition at x/c =  0.0963   21
 Side 2 forced transition at x/c =  1.0000   77

   3   rms: 0.9322E-01   max: 0.9039E+00   T at   21  1   RLX: 0.755
       a =  4.000      CL =  0.4342
      Cm =  0.0027     CD =  0.01087   =>   CDf =  0.00722    CDp =  0.00365

 Side 1  free  transition at x/c =  0.0728   19
 Side 2 forced transition at x/c =  1.0000   77

   4   rms: 0.3932E-01   max: -.4968E+00   C at   19  1
       a =  4.000      CL =  0.4400
      Cm =  0.0027     CD =  0.01110   =>   CDf =  0.00737    CDp =  0.00373

 Side 1  free  transition at x/c =  0.0666   19
 Side 2 forced transition at x/c =  1.0000   77

   5   rms: 0.4028E-02   max: 0.4361E-01   T at   19  1
       a =  4.000      CL =  0.4400
      Cm =  0.0026     CD =  0.01111   =>   CDf =  0.00733    CDp =  0.00378

 Side 1  free  transition at x/c =  0.0656   19
 Side 2 forced transition at x/c =  1.0000   77

   6   rms: 0.1515E-03   max: -.2650E-02   D at   19  1
       a =  4.000      CL =  0.4400
      Cm =  0.0026     CD =  0.01111   =>   CDf =  0.00734    CDp =  0.00377

 Side 1  free  transition at x/c =  0.0655   19
 Side 2 forced transition at x/c =  1.0000   77

   7   rms: 0.1618E-05   max: 0.6336E-05   D at   19  1
       a =  4.000      CL =  0.4400
      Cm =  0.0026     CD =  0.01111   =>   CDf =  0.00734    CDp =  0.00377
 plradd ia,ip,cpol           16           0  2.54967017E-03

 Point added to stored polar  1
 Point written to save file  ht33_Re300k.base.pol                            
 Dump file unspecified or not available
 Calculating wake trajectory ...
 Calculating source influence matrix ...

 Solving BL system ...

 Side 1  free  transition at x/c =  0.0655   19
 Side 2 forced transition at x/c =  1.0000   77

   1   rms: 0.1530E+00   max: 0.1356E+01   T at   19  1   RLX: 0.441
       a =  4.500      CL =  0.4635
      Cm =  0.0029     CD =  0.01171   =>   CDf =  0.00734    CDp =  0.00437

 MRCHDU: Convergence failed at  19  side 1    Res =  0.2028E+01
 MRCHDU: Convergence failed at  20  side 1    Res =  0.2606E+01
 MRCHDU: Convergence failed at  21  side 1    Res =  0.2549E+02
 MRCHDU: Convergence failed at  22  side 1    Res =  0.5459E+01
 MRCHDU: Convergence failed at  23  side 1    Res =  0.6040E+01
 MRCHDU: Convergence failed at  24  side 1    Res =  0.7794E+01
 MRCHDU: Convergence failed at  25  side 1    Res =  0.9238E+01
 MRCHDU: Convergence failed at  26  side 1    Res =  0.9585E+01
 MRCHDU: Convergence failed at  27  side 1    Res =  0.7880E+01
 MRCHDU: Convergence failed at  28  side 1    Res =  0.8437E+01
 MRCHDU: Convergence failed at  29  side 1    Res =  0.8289E+01
 MRCHDU: Convergence failed at  30  side 1    Res =  0.8054E+01
 MRCHDU: Convergence failed at  31  side 1    Res =  0.7868E+01
 MRCHDU: Convergence failed at  32  side 1    Res =  0.6927E+01
 MRCHDU: Convergence failed at  33  side 1    Res =  0.6725E+01
 MRCHDU: Convergence failed at  34  side 1    Res =  0.5288E+01
 MRCHDU: Convergence failed at  35  side 1    Res =  0.5190E+01
 MRCHDU: Convergence failed at  36  side 1    Res =  0.5097E+01
 MRCHDU: Convergence failed at  37  side 1    Res =  0.2821E+02
 MRCHDU: Convergence failed at  38  side 1    Res =  0.3342E+02
 MRCHDU: Convergence failed at  39  side 1    Res =  0.4194E+02
 MRCHDU: Convergence failed at  40  side 1    Res =  0.5769E+02
 MRCHDU: Convergence failed at  41  side 1    Res =  0.8924E+02
 MRCHDU: Convergence failed at  42  side 1    Res =  0.1847E+03
 MRCHDU: Convergence failed at  43  side 1    Res =  0.1128E+02
 MRCHDU: Convergence failed at  44  side 1    Res =  0.1191E+02
 MRCHDU: Convergence failed at  45  side 1    Res =  0.1126E+02
 MRCHDU: Convergence failed at  46  side 1    Res =  0.1143E+02
 MRCHDU: Convergence failed at  47  side 1    Res =  0.1117E+02
 MRCHDU: Convergence failed at  48  side 1    Res =  0.1116E+02
 MRCHDU: Convergence failed at  49  side 1    Res =  0.1116E+02
 MRCHDU: Convergence failed at  50  side 1    Res =  0.1124E+02
 MRCHDU: Convergence failed at  51  side 1    Res =  0.1136E+02
 MRCHDU: Convergence failed at  52  side 1    Res =  0.1405E+02
 MRCHDU: Convergence failed at  53  side 1    Res =  0.1462E+02
 MRCHDU: Convergence failed at  54  side 1    Res =  0.1519E+02
 MRCHDU: Convergence failed at  55  side 1    Res =  0.1576E+02
 MRCHDU: Convergence failed at  56  side 1    Res =  0.1633E+02
[...]
 MRCHDU: Convergence failed at  84  side 1    Res =  0.1957E-01
 MRCHDU: Convergence failed at  85  side 1    Res =  0.1292E-01
 MRCHDU: Convergence failed at  86  side 1    Res =  0.5120E-02
 MRCHDU: Convergence failed at  95  side 2    Res =  0.2053E-01
 MRCHDU: Convergence failed at  96  side 2    Res =  0.1559E-01
 Side 1  free  transition at x/c =  0.0366   17
 Side 2 forced transition at x/c =  1.0000   76

 128   rms: 0.3919E+05   max: -.7518E+06   C at   97  2   RLX: 0.000
       a =  8.000      CL =  0.7047
      Cm = -0.0459     CD =+Infinity   =>   CDf =  0.00375    CDp =+Infinity

 MRCHDU: Convergence failed at  81  side 1    Res =  0.1887E+00
 MRCHDU: Convergence failed at  82  side 1    Res =  0.4457E+00
 MRCHDU: Convergence failed at  83  side 1    Res =  0.1959E-02
 MRCHDU: Convergence failed at  84  side 1    Res =  0.1957E-01
 MRCHDU: Convergence failed at  85  side 1    Res =  0.1292E-01
 MRCHDU: Convergence failed at  86  side 1    Res =  0.5120E-02
 MRCHDU: Convergence failed at  95  side 2    Res =  0.2053E-01
 MRCHDU: Convergence failed at  96  side 2    Res =  0.1560E-01
 Side 1  free  transition at x/c =  0.0366   17
 Side 2 forced transition at x/c =  1.0000   76

 129   rms: 0.4128E+05   max: -.7918E+06   C at   97  2   RLX: 0.000
       a =  8.000      CL =  0.7047
      Cm = -0.0459     CD =+Infinity   =>   CDf =  0.00375    CDp =+Infinity

 MRCHDU: Convergence failed at  81  side 1    Res =  0.1887E+00
 MRCHDU: Convergence failed at  82  side 1    Res =  0.4457E+00
 MRCHDU: Convergence failed at  83  side 1    Res =  0.1959E-02
 MRCHDU: Convergence failed at  84  side 1    Res =  0.1957E-01
 MRCHDU: Convergence failed at  85  side 1    Res =  0.1292E-01
 MRCHDU: Convergence failed at  86  side 1    Res =  0.5120E-02
 MRCHDU: Convergence failed at  95  side 2    Res =  0.2054E-01
 MRCHDU: Convergence failed at  96  side 2    Res =  0.1560E-01
 Side 1  free  transition at x/c =  0.0366   17
 Side 2 forced transition at x/c =  1.0000   76

 130   rms: 0.4222E+05   max: -.8100E+06   C at   97  2   RLX: 0.000
       a =  8.000      CL =  0.7047
      Cm = -0.0459     CD =+Infinity   =>   CDf =  0.00375    CDp =+Infinity

 MRCHDU: Convergence failed at  81  side 1    Res =  0.1887E+00
 MRCHDU: Convergence failed at  82  side 1    Res =  0.4457E+00
 MRCHDU: Convergence failed at  83  side 1    Res =  0.1959E-02
 MRCHDU: Convergence failed at  84  side 1    Res =  0.1957E-01
 MRCHDU: Convergence failed at  85  side 1    Res =  0.1292E-01
 MRCHDU: Convergence failed at  86  side 1    Res =  0.5120E-02
 MRCHDU: Convergence failed at  95  side 2    Res =  0.2054E-01
 MRCHDU: Convergence failed at  96  side 2    Res =  0.1560E-01
 MRCHDU: Convergence failed at  97  side 2    Res =  0.3742E-01
 MRCHDU: Convergence failed at  98  side 2    Res =  0.7848E-03
 Side 1  free  transition at x/c =  0.0366   17
 Side 2 forced transition at x/c =  1.0000   76

 131   rms: 0.5126E+05   max: -.9833E+06   C at   98  2   RLX: 0.000
       a =  8.000      CL =  0.7047
      Cm = -0.0459     CD =+Infinity   =>   CDf =  0.00375    CDp =+Infinity

 MRCHDU: Convergence failed at  81  side 1    Res =  0.1887E+00
 MRCHDU: Convergence failed at  82  side 1    Res =  0.4457E+00
 MRCHDU: Convergence failed at  83  side 1    Res =  0.1958E-02
 MRCHDU: Convergence failed at  84  side 1    Res =  0.1957E-01
 MRCHDU: Convergence failed at  85  side 1    Res =  0.1292E-01
 MRCHDU: Convergence failed at  86  side 1    Res =  0.5120E-02
 MRCHDU: Convergence failed at  95  side 2    Res =  0.2054E-01
 MRCHDU: Convergence failed at  96  side 2    Res =  0.1561E-01
 MRCHDU: Convergence failed at  97  side 2    Res =  0.8951E-01
 MRCHDU: Convergence failed at  98  side 2    Res =  0.7848E-03
 Side 1  free  transition at x/c =  0.0366   17
 Side 2 forced transition at x/c =  1.0000   76

 132   rms: 0.4854E+05   max: -.9312E+06   C at   98  2   RLX: 0.000
       a =  8.000      CL =  0.7047
      Cm = -0.0459     CD =+Infinity   =>   CDf =  0.00375    CDp =+Infinity

 MRCHDU: Convergence failed at  81  side 1    Res =  0.1887E+00
 MRCHDU: Convergence failed at  82  side 1    Res =  0.4457E+00
 MRCHDU: Convergence failed at  83  side 1    Res =  0.1958E-02
 MRCHDU: Convergence failed at  84  side 1    Res =  0.1957E-01
 MRCHDU: Convergence failed at  85  side 1    Res =  0.1292E-01
 MRCHDU: Convergence failed at  86  side 1    Res =  0.5120E-02
 MRCHDU: Convergence failed at  95  side 2    Res =  0.2055E-01
 MRCHDU: Convergence failed at  96  side 2    Res =  0.1561E-01
 MRCHDU: Convergence failed at  97  side 2    Res =  0.1413E+00
 MRCHDU: Convergence failed at  98  side 2    Res =  0.2770E-04
 Side 1  free  transition at x/c =  0.0366   17
 Side 2 forced transition at x/c =  1.0000   76

 133   rms: 0.5995E+02   max: 0.1129E+04   T at   98  2   RLX: 0.001
       a =  8.000      CL =  0.7035
      Cm = -0.0456     CD =+Infinity   =>   CDf =  0.00375    CDp =+Infinity

 MRCHDU: Convergence failed at  81  side 1    Res =  0.1885E+00
 MRCHDU: Convergence failed at  82  side 1    Res =  0.4455E+00
 MRCHDU: Convergence failed at  83  side 1    Res =  0.1802E-02
 MRCHDU: Convergence failed at  84  side 1    Res =  0.1936E-01
 MRCHDU: Convergence failed at  85  side 1    Res =  0.1260E-01
 MRCHDU: Convergence failed at  86  side 1    Res =  0.4933E-02
 MRCHDU: Convergence failed at  95  side 2    Res =  0.4060E-01
 MRCHDU: Convergence failed at  96  side 2    Res =  0.3110E-01
 Side 1  free  transition at x/c =  0.0366   17
 Side 2 forced transition at x/c =  1.0000   76

 134   rms: 0.4546E+02   max: -.1035E+04   T at   98  2   RLX: 0.000
       a =  8.000      CL =  0.7031
      Cm = -0.0455     CD =+Infinity   =>   CDf =  0.00375    CDp =+Infinity

 MRCHDU: Convergence failed at  81  side 1    Res =  0.1884E+00
 MRCHDU: Convergence failed at  82  side 1    Res =  0.4454E+00
 MRCHDU: Convergence failed at  83  side 1    Res =  0.1756E-02
 MRCHDU: Convergence failed at  84  side 1    Res =  0.1940E-01
 MRCHDU: Convergence failed at  85  side 1    Res =  0.1263E-01
 MRCHDU: Convergence failed at  86  side 1    Res =  0.4949E-02
 MRCHDU: Convergence failed at  95  side 2    Res =  0.3836E-01
 MRCHDU: Convergence failed at  96  side 2    Res =  0.2767E-01
 MRCHDU: Convergence failed at  97  side 2    Res =  0.2339E+00
 MRCHDU: Convergence failed at  98  side 2    Res =  0.5918E-04
 Side 1  free  transition at x/c =  0.0366   17
 Side 2 forced transition at x/c =  1.0000   76

 135   rms: 0.7015E+03   max: -.1512E+05   T at   98  2   RLX: 0.000
       a =  8.000      CL =  0.7030
      Cm = -0.0454     CD =+Infinity   =>   CDf =  0.00375    CDp =+Infinity

 MRCHDU: Convergence failed at  81  side 1    Res =  0.1884E+00
 MRCHDU: Convergence failed at  82  side 1    Res =  0.4455E+00
 MRCHDU: Convergence failed at  83  side 1    Res =  0.1755E-02
 MRCHDU: Convergence failed at  84  side 1    Res =  0.1939E-01
 MRCHDU: Convergence failed at  85  side 1    Res =  0.1263E-01
 MRCHDU: Convergence failed at  86  side 1    Res =  0.4949E-02
 MRCHDU: Convergence failed at  95  side 2    Res =  0.3848E-01
 MRCHDU: Convergence failed at  96  side 2    Res =  0.2789E-01
 MRCHDU: Convergence failed at  97  side 2    Res =  0.1440E-01
 Side 1  free  transition at x/c =  0.0366   17
 Side 2 forced transition at x/c =  1.0000   76

 136   rms: 0.8170E+02   max: 0.1502E+04   T at   98  2   RLX: 0.001
       a =  8.000      CL =  0.7021
      Cm = -0.0452     CD =+Infinity   =>   CDf =  0.00375    CDp =+Infinity

 MRCHDU: Convergence failed at  81  side 1    Res =  0.1883E+00
 MRCHDU: Convergence failed at  82  side 1    Res =  0.1887E+00
 MRCHDU: Convergence failed at  83  side 1    Res =  0.1670E-02
 MRCHDU: Convergence failed at  84  side 1    Res =  0.1932E-01
 MRCHDU: Convergence failed at  85  side 1    Res =  0.1247E-01
 MRCHDU: Convergence failed at  86  side 1    Res =  0.4851E-02
 MRCHDU: Convergence failed at  95  side 2    Res =  0.5298E-01
 MRCHDU: Convergence failed at  96  side 2    Res =  0.5908E-01
 Side 1  free  transition at x/c =  0.0366   17
 Side 2 forced transition at x/c =  1.0000   76

 137   rms: 0.8181E+02   max: -.1672E+04   T at   98  2   RLX: 0.000
       a =  8.000      CL =  0.7018
      Cm = -0.0451     CD =+Infinity   =>   CDf =  0.00375    CDp =+Infinity

 MRCHDU: Convergence failed at  81  side 1    Res =  0.1883E+00
 MRCHDU: Convergence failed at  82  side 1    Res =  0.4453E+00
 MRCHDU: Convergence failed at  83  side 1    Res =  0.1639E-02
 MRCHDU: Convergence failed at  84  side 1    Res =  0.1932E-01
 MRCHDU: Convergence failed at  85  side 1    Res =  0.1243E-01
 MRCHDU: Convergence failed at  86  side 1    Res =  0.4828E-02
 MRCHDU: Convergence failed at  95  side 2    Res =  0.5799E-01
 MRCHDU: Convergence failed at  96  side 2    Res =  0.3457E-01
 MRCHDU: Convergence failed at  97  side 2    Res =  0.2011E+00
 MRCHDU: Convergence failed at  98  side 2    Res =  0.3148E-04
 Side 1  free  transition at x/c =  0.0366   17
 Side 2 forced transition at x/c =  1.0000   76

 138   rms: 0.2774E+04   max: -.5790E+05   T at   98  2   RLX: 0.000
       a =  8.000      CL =  0.7018
      Cm = -0.0451     CD =+Infinity   =>   CDf =  0.00375    CDp =+Infinity

 MRCHDU: Convergence failed at  81  side 1    Res =  0.1883E+00
 MRCHDU: Convergence failed at  82  side 1    Res =  0.4453E+00
 MRCHDU: Convergence failed at  83  side 1    Res =  0.1631E-02
 MRCHDU: Convergence failed at  84  side 1    Res =  0.1930E-01
 MRCHDU: Convergence failed at  85  side 1    Res =  0.1241E-01
 MRCHDU: Convergence failed at  86  side 1    Res =  0.4816E-02
 MRCHDU: Convergence failed at  95  side 2    Res =  0.6095E-01
 MRCHDU: Convergence failed at  96  side 2    Res =  0.3967E-01
 MRCHDU: Convergence failed at  97  side 2    Res =  0.2537E-01
 Side 1  free  transition at x/c =  0.0366   17
 Side 2 forced transition at x/c =  1.0000   76

 139   rms: 0.9279E+02   max: 0.1645E+04   T at   98  2   RLX: 0.001
       a =  8.000      CL =  0.7011
      Cm = -0.0450     CD =+Infinity   =>   CDf =  0.00375    CDp =+Infinity

 MRCHDU: Convergence failed at  81  side 1    Res =  0.1881E+00
 MRCHDU: Convergence failed at  82  side 1    Res =  0.1885E+00
 MRCHDU: Convergence failed at  83  side 1    Res =  0.1586E-02
 MRCHDU: Convergence failed at  84  side 1    Res =  0.1937E-01
 MRCHDU: Convergence failed at  85  side 1    Res =  0.1241E-01
 MRCHDU: Convergence failed at  86  side 1    Res =  0.4805E-02
 MRCHDU: Convergence failed at  95  side 2    Res =  0.6292E-01
 MRCHDU: Convergence failed at  96  side 2    Res =  0.5479E-01
 Side 1  free  transition at x/c =  0.0366   17
 Side 2 forced transition at x/c =  1.0000   76

 140   rms: 0.2106E+03   max: -.3905E+04   T at   98  2   RLX: 0.000
       a =  8.000      CL =  0.7010
      Cm = -0.0449     CD =+Infinity   =>   CDf =  0.00375    CDp =+Infinity

 MRCHDU: Convergence failed at  81  side 1    Res =  0.1881E+00
 MRCHDU: Convergence failed at  82  side 1    Res =  0.1885E+00
 MRCHDU: Convergence failed at  83  side 1    Res =  0.1567E-02
 MRCHDU: Convergence failed at  84  side 1    Res =  0.1934E-01
 MRCHDU: Convergence failed at  85  side 1    Res =  0.1238E-01
 MRCHDU: Convergence failed at  86  side 1    Res =  0.4786E-02
 Side 1  free  transition at x/c =  0.0366   17
 Side 2 forced transition at x/c =  1.0000   76

 141   rms: 0.4118E+02   max: -.7590E+03   C at   97  2   RLX: 0.001
       a =  8.000      CL =  0.7004
      Cm = -0.0448     CD =+Infinity   =>   CDf =  0.00375    CDp =+Infinity

 MRCHDU: Convergence failed at  81  side 1    Res =  0.1880E+00
 MRCHDU: Convergence failed at  82  side 1    Res =  0.4450E+00
 MRCHDU: Convergence failed at  83  side 1    Res =  0.1467E-02
 MRCHDU: Convergence failed at  84  side 1    Res =  0.1924E-01
 MRCHDU: Convergence failed at  85  side 1    Res =  0.1219E-01
 MRCHDU: Convergence failed at  86  side 1    Res =  0.4684E-02
 Side 1  free  transition at x/c =  0.0366   17
 Side 2 forced transition at x/c =  1.0000   76

 142   rms: 0.8664E+02   max: -.1654E+04   C at   97  2   RLX: 0.000
       a =  8.000      CL =  0.7001
      Cm = -0.0447     CD =+Infinity   =>   CDf =  0.00375    CDp =+Infinity

 MRCHDU: Convergence failed at  81  side 1    Res =  0.1880E+00
 MRCHDU: Convergence failed at  82  side 1    Res =  0.1884E+00
 MRCHDU: Convergence failed at  83  side 1    Res =  0.1437E-02
 MRCHDU: Convergence failed at  84  side 1    Res =  0.1920E-01
 MRCHDU: Convergence failed at  85  side 1    Res =  0.1211E-01
 MRCHDU: Convergence failed at  86  side 1    Res =  0.4633E-02
 Side 1  free  transition at x/c =  0.0366   17
 Side 2 forced transition at x/c =  1.0000   76

 143   rms: 0.1286E+03   max: -.2463E+04   C at   97  2   RLX: 0.000
       a =  8.000      CL =  0.6999
      Cm = -0.0446     CD =+Infinity   =>   CDf =  0.00375    CDp =+Infinity

 MRCHDU: Convergence failed at  81  side 1    Res =  0.1880E+00
 MRCHDU: Convergence failed at  82  side 1    Res =  0.1884E+00
 MRCHDU: Convergence failed at  83  side 1    Res =  0.1410E-02
 MRCHDU: Convergence failed at  84  side 1    Res =  0.1916E-01
 MRCHDU: Convergence failed at  85  side 1    Res =  0.1205E-01
 MRCHDU: Convergence failed at  86  side 1    Res =  0.4602E-02
 Side 1  free  transition at x/c =  0.0366   17
 Side 2 forced transition at x/c =  1.0000   76

 144   rms: 0.1742E+03   max: -.3338E+04   C at   97  2   RLX: 0.000
       a =  8.000      CL =  0.6998
      Cm = -0.0446     CD =+Infinity   =>   CDf =  0.00375    CDp =+Infinity

 MRCHDU: Convergence failed at  81  side 1    Res =  0.1880E+00
 MRCHDU: Convergence failed at  82  side 1    Res =  0.1884E+00
 MRCHDU: Convergence failed at  83  side 1    Res =  0.1392E-02
 MRCHDU: Convergence failed at  84  side 1    Res =  0.1914E-01
 MRCHDU: Convergence failed at  85  side 1    Res =  0.1202E-01
 MRCHDU: Convergence failed at  86  side 1    Res =  0.4582E-02
 Side 1  free  transition at x/c =  0.0366   17
 Side 2 forced transition at x/c =  1.0000   76

 145   rms: 0.1930E+03   max: -.3701E+04   C at   97  2   RLX: 0.000
       a =  8.000      CL =  0.6996
      Cm = -0.0445     CD =+Infinity   =>   CDf =  0.00375    CDp =+Infinity

 MRCHDU: Convergence failed at  81  side 1    Res =  0.1880E+00
 MRCHDU: Convergence failed at  82  side 1    Res =  0.1884E+00
 MRCHDU: Convergence failed at  83  side 1    Res =  0.1375E-02
 MRCHDU: Convergence failed at  84  side 1    Res =  0.1912E-01
 MRCHDU: Convergence failed at  85  side 1    Res =  0.1198E-01
 MRCHDU: Convergence failed at  86  side 1    Res =  0.4565E-02
 Side 1  free  transition at x/c =  0.0366   17
 Side 2 forced transition at x/c =  1.0000   76

 146   rms: 0.2747E+03   max: -.5268E+04   C at   97  2   RLX: 0.000
       a =  8.000      CL =  0.6996
      Cm = -0.0445     CD =+Infinity   =>   CDf =  0.00375    CDp =+Infinity

 MRCHDU: Convergence failed at  81  side 1    Res =  0.1880E+00
 MRCHDU: Convergence failed at  82  side 1    Res =  0.1884E+00
 MRCHDU: Convergence failed at  83  side 1    Res =  0.1364E-02
 MRCHDU: Convergence failed at  84  side 1    Res =  0.1911E-01
 MRCHDU: Convergence failed at  85  side 1    Res =  0.1196E-01
 MRCHDU: Convergence failed at  86  side 1    Res =  0.4553E-02
 Side 1  free  transition at x/c =  0.0366   17
 Side 2 forced transition at x/c =  1.0000   76

 147   rms: 0.3009E+03   max: -.5771E+04   C at   97  2   RLX: 0.000
       a =  8.000      CL =  0.6995
      Cm = -0.0445     CD =+Infinity   =>   CDf =  0.00375    CDp =+Infinity

 MRCHDU: Convergence failed at  81  side 1    Res =  0.1879E+00
 MRCHDU: Convergence failed at  82  side 1    Res =  0.1884E+00
 MRCHDU: Convergence failed at  83  side 1    Res =  0.1353E-02
 MRCHDU: Convergence failed at  84  side 1    Res =  0.1910E-01
 MRCHDU: Convergence failed at  85  side 1    Res =  0.1194E-01
 MRCHDU: Convergence failed at  86  side 1    Res =  0.4541E-02
 Side 1  free  transition at x/c =  0.0366   17
 Side 2 forced transition at x/c =  1.0000   76

 148   rms: 0.3266E+03   max: -.6264E+04   C at   97  2   RLX: 0.000
       a =  8.000      CL =  0.6994
      Cm = -0.0445     CD =+Infinity   =>   CDf =  0.00375    CDp =+Infinity

 MRCHDU: Convergence failed at  81  side 1    Res =  0.1879E+00
 MRCHDU: Convergence failed at  82  side 1    Res =  0.1884E+00
 MRCHDU: Convergence failed at  83  side 1    Res =  0.1340E-02
 MRCHDU: Convergence failed at  84  side 1    Res =  0.1909E-01
 MRCHDU: Convergence failed at  85  side 1    Res =  0.1192E-01
 MRCHDU: Convergence failed at  86  side 1    Res =  0.4532E-02
 Side 1  free  transition at x/c =  0.0366   17
 Side 2 forced transition at x/c =  1.0000   76

 149   rms: 0.4173E+03   max: -.8004E+04   C at   97  2   RLX: 0.000
       a =  8.000      CL =  0.6994
      Cm = -0.0445     CD =+Infinity   =>   CDf =  0.00375    CDp =+Infinity

 MRCHDU: Convergence failed at  81  side 1    Res =  0.1879E+00
 MRCHDU: Convergence failed at  82  side 1    Res =  0.1884E+00
 MRCHDU: Convergence failed at  83  side 1    Res =  0.1331E-02
 MRCHDU: Convergence failed at  84  side 1    Res =  0.1908E-01
 MRCHDU: Convergence failed at  85  side 1    Res =  0.1191E-01
 MRCHDU: Convergence failed at  86  side 1    Res =  0.4524E-02
 Side 1  free  transition at x/c =  0.0366   17
 Side 2 forced transition at x/c =  1.0000   76

 150   rms: 0.4277E+03   max: -.8204E+04   C at   97  2   RLX: 0.000
       a =  8.000      CL =  0.6993
      Cm = -0.0444     CD =+Infinity   =>   CDf =  0.00375    CDp =+Infinity

 MRCHDU: Convergence failed at  81  side 1    Res =  0.1879E+00
 MRCHDU: Convergence failed at  82  side 1    Res =  0.1883E+00
 MRCHDU: Convergence failed at  83  side 1    Res =  0.1322E-02
 MRCHDU: Convergence failed at  84  side 1    Res =  0.1908E-01
 MRCHDU: Convergence failed at  85  side 1    Res =  0.1190E-01
 MRCHDU: Convergence failed at  86  side 1    Res =  0.4517E-02
 Side 1  free  transition at x/c =  0.0366   17
 Side 2 forced transition at x/c =  1.0000   76

 151   rms: 0.5769E+03   max: -.1107E+05   C at   97  2   RLX: 0.000
       a =  8.000      CL =  0.6993
      Cm = -0.0444     CD =+Infinity   =>   CDf =  0.00375    CDp =+Infinity

 MRCHDU: Convergence failed at  81  side 1    Res =  0.1879E+00
 MRCHDU: Convergence failed at  82  side 1    Res =  0.1883E+00
 MRCHDU: Convergence failed at  83  side 1    Res =  0.1319E-02
 MRCHDU: Convergence failed at  84  side 1    Res =  0.1907E-01
 MRCHDU: Convergence failed at  85  side 1    Res =  0.1189E-01
 MRCHDU: Convergence failed at  86  side 1    Res =  0.4511E-02
 Side 1  free  transition at x/c =  0.0366   17
 Side 2 forced transition at x/c =  1.0000   76

 152   rms: 0.6378E+03   max: -.1223E+05   C at   97  2   RLX: 0.000
       a =  8.000      CL =  0.6993
      Cm = -0.0444     CD =+Infinity   =>   CDf =  0.00375    CDp =+Infinity

 MRCHDU: Convergence failed at  81  side 1    Res =  0.1879E+00
 MRCHDU: Convergence failed at  82  side 1    Res =  0.1883E+00
 MRCHDU: Convergence failed at  83  side 1    Res =  0.1314E-02
 MRCHDU: Convergence failed at  84  side 1    Res =  0.1906E-01
 MRCHDU: Convergence failed at  85  side 1    Res =  0.1188E-01
 MRCHDU: Convergence failed at  86  side 1    Res =  0.4506E-02
 Side 1  free  transition at x/c =  0.0366   17
 Side 2 forced transition at x/c =  1.0000   76

 153   rms: 0.8079E+03   max: -.1550E+05   C at   97  2   RLX: 0.000
       a =  8.000      CL =  0.6992
      Cm = -0.0444     CD =+Infinity   =>   CDf =  0.00375    CDp =+Infinity

 MRCHDU: Convergence failed at  81  side 1    Res =  0.1879E+00
 MRCHDU: Convergence failed at  82  side 1    Res =  0.1883E+00
 MRCHDU: Convergence failed at  83  side 1    Res =  0.1310E-02
 MRCHDU: Convergence failed at  84  side 1    Res =  0.1906E-01
 MRCHDU: Convergence failed at  85  side 1    Res =  0.1187E-01
 MRCHDU: Convergence failed at  86  side 1    Res =  0.4501E-02
 Side 1  free  transition at x/c =  0.0366   17
 Side 2 forced transition at x/c =  1.0000   76


[TIMEOUT]
