
 ===================================================
  XFOIL Version 6.99
  Copyright (C) 2000   Mark Drela, Harold Youngren

  This software comes with ABSOLUTELY NO WARRANTY,
    subject to the GNU General Public License.

  Caveat computor
 ===================================================

 File  xfoil.def  not found

   QUIT    Exit program

  .OPER    Direct operating point(s)
  .MDES    Complex mapping design routine
  .QDES    Surface speed design routine
  .GDES    Geometry design routine

   SAVE f  Write airfoil to labeled coordinate file
   PSAV f  Write airfoil to plain coordinate file
   ISAV f  Write airfoil to ISES coordinate file
   MSAV f  Write airfoil to MSES coordinate file
   REVE    Reverse written-airfoil node ordering

   LOAD f  Read buffer airfoil from coordinate file
   NACA i  Set NACA 4,5-digit airfoil and buffer airfoil
   INTE    Set buffer airfoil by interpolating two airfoils
   NORM    Buffer airfoil normalization toggle
   XYCM rr Change CM reference location, currently  0.25000 0.00000

   BEND    Display structural properties of current airfoil

   PCOP    Set current-airfoil panel nodes directly from buffer airfoil points
   PANE    Set current-airfoil panel nodes ( 160 ) based on curvature
  .PPAR    Show/change paneling

  .PLOP    Plotting options

   WDEF f  Write  current-settings file
   RDEF f  Reread current-settings file
   NAME s  Specify new airfoil name
   NINC    Increment name version number

   Z       Zoom    | (available in all menus)
   U       Unzoom  | 

 XFOIL   c>  
 Labeled airfoil file.  Name:  HT33                                            

 Number of input coordinate points: 240
 Counterclockwise ordering
 Max thickness =     0.059471  at x =   0.223
 Max camber    =    -0.000000  at x =   0.819

  LE  x,y  =   0.00001   0.00001  |   Chord =   1.00000
  TE  x,y  =   1.00001  -0.00000  |

 Current airfoil nodes set from buffer airfoil nodes ( 240 )

 XFOIL   c>  
 XFOIL   c>  
 Blunt trailing edge.  Gap =  0.00119

 Paneling parameters used...
   Number of panel nodes       160
   Panel bunching parameter    1.000
   TE/LE panel density ratio   0.150
   Refined-area/LE panel density ratio    0.200
   Top    side refined area x/c limits  1.000 1.000
   Bottom side refined area x/c limits  1.000 1.000

 XFOIL   c>  
.OPERi   c>  
 Xtr/c     =  1.0000    top    side
 Xtr/c     =  1.0000    bottom side
 Ncrit     =    9.00   ( 0.070 % turb. level )
 Vacc      =  0.0100

 Klag  =  5.6000     Uxwt  =    1.00
 A     =  6.7000     B     =  0.7500       KCt = 0.01485
 CtiniK=  1.8000     CtiniX=  3.3000

..VPAR   c>  
..VPAR   c>  
.OPERi   c>  
 M  =    0.0000
 Re =    150000

.OPERv   c>  
.OPERv   c>  
.OPERv   c>  
 Polar  1 newly created for accumulation
 Airfoil archived with polar: HT33                                            

Enter  polar save filename  OR  <return> for no file   s>  
 New polar save file available

Enter  polar dump filename  OR  <return> for no file   s>  
 Polar dump file will NOT be written

 Polar accumulation enabled

.OPERva   c>   Calculating unit vorticity distributions ...
 Calculating wake trajectory ...
 Calculating source influence matrix ...

 Solving BL system ...

 Initializing BL ...
    side            1  ...
 MRCHUE: Inverse mode at  76     Hk =   3.800
 MRCHUE: Inverse mode at  77     Hk =   3.891
    side            2  ...
 MRCHUE: Inverse mode at  12     Hk =   3.875
 MRCHUE: Inverse mode at  13     Hk =   4.614
 MRCHUE: Inverse mode at  14     Hk =   5.435
 MRCHUE: Inverse mode at  15     Hk =   6.367
 MRCHUE: Inverse mode at  16     Hk =   7.387
 MRCHUE: Inverse mode at  17     Hk =   8.432
 MRCHUE: Inverse mode at  18     Hk =   9.453
 MRCHUE: Inverse mode at  19     Hk =  10.433
 MRCHUE: Inverse mode at  20     Hk =   6.080
 MRCHUE: Inverse mode at  21     Hk =   4.105
 MRCHUE: Inverse mode at  22     Hk =   2.829

 Side 1 forced transition at x/c =  1.0000   77
 Side 2  free  transition at x/c =  0.0740   20

   1   rms: 0.1855E+00   max: -.1511E+01   T at   20  2   RLX: 0.331
       a = -4.000      CL = -0.4709
      Cm = -0.0042     CD =  0.01658   =>   CDf =  0.00859    CDp =  0.00799

 Side 1 forced transition at x/c =  1.0000   77
 Side 2  free  transition at x/c =  0.0802   20

   2   rms: 0.1507E+00   max: -.1303E+01   T at   20  2   RLX: 0.384
       a = -4.000      CL = -0.4583
      Cm = -0.0037     CD =  0.01749   =>   CDf =  0.00863    CDp =  0.00885

 Side 1 forced transition at x/c =  1.0000   77
 Side 2  free  transition at x/c =  0.0895   21

   3   rms: 0.8452E-01   max: -.6261E+00   T at   21  2   RLX: 0.799
       a = -4.000      CL = -0.4452
      Cm = -0.0033     CD =  0.01431   =>   CDf =  0.00868    CDp =  0.00562

 Side 1 forced transition at x/c =  1.0000   77
 Side 2  free  transition at x/c =  0.0964   21

   4   rms: 0.7154E-01   max: -.4384E+00   D at   21  2
       a = -4.000      CL = -0.4370
      Cm = -0.0037     CD =  0.01438   =>   CDf =  0.00884    CDp =  0.00554

 Side 1 forced transition at x/c =  1.0000   77
 Side 2  free  transition at x/c =  0.1057   22

   5   rms: 0.2425E-01   max: 0.3014E+00   D at   22  2
       a = -4.000      CL = -0.4386
      Cm = -0.0038     CD =  0.01412   =>   CDf =  0.00861    CDp =  0.00552

 Side 1 forced transition at x/c =  1.0000   77
 Side 2  free  transition at x/c =  0.1026   22

   6   rms: 0.1957E-02   max: -.1952E-01   D at   23  2
       a = -4.000      CL = -0.4386
      Cm = -0.0038     CD =  0.01415   =>   CDf =  0.00864    CDp =  0.00551

 Side 1 forced transition at x/c =  1.0000   77
 Side 2  free  transition at x/c =  0.1022   22

   7   rms: 0.4225E-04   max: -.7731E-03   D at   23  2
       a = -4.000      CL = -0.4386
      Cm = -0.0038     CD =  0.01415   =>   CDf =  0.00865    CDp =  0.00550
 plradd ia,ip,cpol            1           0  2.55126157E-03

 Point added to stored polar  1
 Point written to save file  ht33_Re150k.base.pol                            
 Dump file unspecified or not available
 Calculating wake trajectory ...
 Calculating source influence matrix ...

 Solving BL system ...

 Side 1 forced transition at x/c =  1.0000   77
 Side 2  free  transition at x/c =  0.1022   22

   1   rms: 0.2065E+00   max: -.2033E+01   T at   22  2   RLX: 0.246
       a = -3.500      CL = -0.4271
      Cm = -0.0037     CD =  0.01338   =>   CDf =  0.00865    CDp =  0.00473

 Side 1 forced transition at x/c =  1.0000   77
 Side 2  free  transition at x/c =  0.1144   23

   2   rms: 0.3854E+00   max: -.2686E+01   T at   23  2   RLX: 0.186
       a = -3.500      CL = -0.4210
      Cm = -0.0034     CD =  0.01304   =>   CDf =  0.00881    CDp =  0.00422

 Side 1 forced transition at x/c =  1.0000   77
 Side 2  free  transition at x/c =  0.1247   23

   3   rms: 0.1603E+00   max: -.2112E+01   T at   23  2   RLX: 0.237
       a = -3.500      CL = -0.4125
      Cm = -0.0034     CD =  0.01400   =>   CDf =  0.00872    CDp =  0.00528

 Side 1 forced transition at x/c =  1.0000   77
 Side 2  free  transition at x/c =  0.1407   24

   4   rms: 0.1323E+00   max: -.1729E+01   T at   24  2   RLX: 0.289
       a = -3.500      CL = -0.4054
      Cm = -0.0033     CD =  0.01353   =>   CDf =  0.00867    CDp =  0.00487

 MRCHDU: Convergence failed at  26  side 2    Res =  0.4819E+01
 MRCHDU: Convergence failed at  27  side 2    Res =  0.6374E+01
 MRCHDU: Convergence failed at  28  side 2    Res =  0.7845E+02
 MRCHDU: Convergence failed at  29  side 2    Res =  0.4506E+02
 MRCHDU: Convergence failed at  30  side 2    Res =  0.3666E+02
 MRCHDU: Convergence failed at  31  side 2    Res =  0.4400E+02
 MRCHDU: Convergence failed at  32  side 2    Res =  0.6236E+02
 MRCHDU: Convergence failed at  33  side 2    Res =  0.1069E+03
 MRCHDU: Convergence failed at  34  side 2    Res =  0.3112E+03
 MRCHDU: Convergence failed at  35  side 2    Res =  0.3087E+03
 MRCHDU: Convergence failed at  36  side 2    Res =  0.2359E+03
 MRCHDU: Convergence failed at  37  side 2    Res =  0.6812E+03
 MRCHDU: Convergence failed at  38  side 2    Res =  0.1542E+03
 MRCHDU: Convergence failed at  39  side 2    Res =  0.7411E+02
 MRCHDU: Convergence failed at  40  side 2    Res =  0.4618E+02
 MRCHDU: Convergence failed at  41  side 2    Res =  0.3461E+02
 MRCHDU: Convergence failed at  42  side 2    Res =  0.2972E+02
 MRCHDU: Convergence failed at  43  side 2    Res =  0.2584E+02
 MRCHDU: Convergence failed at  44  side 2    Res =  0.2295E+02
 MRCHDU: Convergence failed at  45  side 2    Res =  0.2104E+02
 MRCHDU: Convergence failed at  46  side 2    Res =  0.1960E+02
 MRCHDU: Convergence failed at  47  side 2    Res =  0.1807E+02
 MRCHDU: Convergence failed at  48  side 2    Res =  0.1711E+02
 MRCHDU: Convergence failed at  49  side 2    Res =  0.1668E+02
 MRCHDU: Convergence failed at  50  side 2    Res =  0.1618E+02
 MRCHDU: Convergence failed at  51  side 2    Res =  0.1566E+02
 MRCHDU: Convergence failed at  52  side 2    Res =  0.1519E+02
 MRCHDU: Convergence failed at  53  side 2    Res =  0.1473E+02
 MRCHDU: Convergence failed at  54  side 2    Res =  0.1428E+02
 MRCHDU: Convergence failed at  55  side 2    Res =  0.1386E+02
 MRCHDU: Convergence failed at  56  side 2    Res =  0.1352E+02
 MRCHDU: Convergence failed at  57  side 2    Res =  0.1321E+02
 MRCHDU: Convergence failed at  58  side 2    Res =  0.1288E+02
 MRCHDU: Convergence failed at  59  side 2    Res =  0.1261E+02
 MRCHDU: Convergence failed at  60  side 2    Res =  0.1235E+02
 MRCHDU: Convergence failed at  61  side 2    Res =  0.1212E+02
 MRCHDU: Convergence failed at  62  side 2    Res =  0.1191E+02
 MRCHDU: Convergence failed at  63  side 2    Res =  0.1169E+02
 MRCHDU: Convergence failed at  64  side 2    Res =  0.1149E+02
 MRCHDU: Convergence failed at  65  side 2    Res =  0.1131E+02
 MRCHDU: Convergence failed at  66  side 2    Res =  0.1113E+02
 MRCHDU: Convergence failed at  67  side 2    Res =  0.1096E+02
 MRCHDU: Convergence failed at  68  side 2    Res =  0.1080E+02
 MRCHDU: Convergence failed at  69  side 2    Res =  0.1064E+02
 MRCHDU: Convergence failed at  70  side 2    Res =  0.1050E+02
 MRCHDU: Convergence failed at  71  side 2    Res =  0.1035E+02
 MRCHDU: Convergence failed at  72  side 2    Res =  0.1020E+02
 MRCHDU: Convergence failed at  73  side 2    Res =  0.8405E+01
 MRCHDU: Convergence failed at  74  side 2    Res =  0.8612E+01
 MRCHDU: Convergence failed at  75  side 2    Res =  0.8835E+01
 MRCHDU: Convergence failed at  76  side 2    Res =  0.9106E+01
 MRCHDU: Convergence failed at  77  side 2    Res =  0.9385E+01
 MRCHDU: Convergence failed at  78  side 2    Res =  0.9720E+01
 MRCHDU: Convergence failed at  79  side 2    Res =  0.1007E+02
 MRCHDU: Convergence failed at  80  side 2    Res =  0.1049E+02
 MRCHDU: Convergence failed at  81  side 2    Res =  0.1103E+02
 MRCHDU: Convergence failed at  82  side 2    Res =  0.1164E+02
 MRCHDU: Convergence failed at  83  side 2    Res =  0.1241E+02
 MRCHDU: Convergence failed at  84  side 2    Res =  0.1322E+02
 MRCHDU: Convergence failed at  85  side 2    Res =  0.1360E+02
 Side 1 forced transition at x/c =  1.0000   77
 Side 2  free  transition at x/c =  0.1610   26

   5   rms: 0.4337E+00   max: 0.8512E+00   D at   87  2   RLX: 0.468
       a = -3.500      CL = -0.6154
      Cm =  0.0851     CD =  0.00800   =>   CDf =  0.00377    CDp =  0.00423

 Side 1 forced transition at x/c =  1.0000   77
 Side 2  free  transition at x/c =  0.2085   29

   6   rms: 0.1616E+00   max: 0.2727E+00   D at   87  2
       a = -3.500      CL = -0.3914
      Cm = -0.0025     CD =  0.01136   =>   CDf =  0.00969    CDp =  0.00167

 Side 1 forced transition at x/c =  1.0000   77
 Side 2  free  transition at x/c =  0.2497   32

   7   rms: 0.2467E-01   max: -.3142E+00   C at   32  2
       a = -3.500      CL = -0.3892
      Cm = -0.0031     CD =  0.01176   =>   CDf =  0.00786    CDp =  0.00389

 Side 1 forced transition at x/c =  1.0000   77
 Side 2  free  transition at x/c =  0.2258   31

   8   rms: 0.1525E-01   max: -.1664E+00   C at   31  2
       a = -3.500      CL = -0.3885
      Cm = -0.0031     CD =  0.01186   =>   CDf =  0.00794    CDp =  0.00392

 Side 1 forced transition at x/c =  1.0000   77
 Side 2  free  transition at x/c =  0.2325   31

   9   rms: 0.2188E-02   max: 0.3107E-01   C at   31  2
       a = -3.500      CL = -0.3885
      Cm = -0.0031     CD =  0.01188   =>   CDf =  0.00787    CDp =  0.00401

 Side 1 forced transition at x/c =  1.0000   77
 Side 2  free  transition at x/c =  0.2312   31

  10   rms: 0.5478E-04   max: -.8026E-03   C at   31  2
       a = -3.500      CL = -0.3885
      Cm = -0.0031     CD =  0.01188   =>   CDf =  0.00788    CDp =  0.00400
 plradd ia,ip,cpol            2           0  2.55126157E-03

 Point added to stored polar  1
 Point written to save file  ht33_Re150k.base.pol                            
 Dump file unspecified or not available
 Calculating wake trajectory ...
 Calculating source influence matrix ...

 Solving BL system ...

 Side 1 forced transition at x/c =  1.0000   77
 Side 2  free  transition at x/c =  0.2312   31

   1   rms: 0.2917E+00   max: -.4008E+01   C at   31  2   RLX: 0.125
       a = -3.000      CL = -0.3825
      Cm = -0.0031     CD =  0.01161   =>   CDf =  0.00788    CDp =  0.00373

 Side 1 forced transition at x/c =  1.0000   77
 Side 2  free  transition at x/c =  0.2553   33

   2   rms: 0.2434E+00   max: -.2849E+01   C at   33  2   RLX: 0.175
       a = -3.000      CL = -0.3742
      Cm = -0.0030     CD =  0.01137   =>   CDf =  0.00784    CDp =  0.00353

 Side 1 forced transition at x/c =  1.0000   77
 Side 2  free  transition at x/c =  0.2759   34

   3   rms: 0.1407E+00   max: -.1150E+01   C at   34  2   RLX: 0.435
       a = -3.000      CL = -0.3574
      Cm = -0.0029     CD =  0.01113   =>   CDf =  0.00795    CDp =  0.00318

 Side 1 forced transition at x/c =  1.0000   78
 Side 2  free  transition at x/c =  0.3230   36

   4   rms: 0.9948E-01   max: -.9187E+00   D at    2  1   RLX: 0.544
       a = -3.000      CL = -0.3451
      Cm = -0.0029     CD =  0.01125   =>   CDf =  0.00782    CDp =  0.00343

 MRCHDU: Convergence failed at  41  side 2    Res =  0.2233E+01
 MRCHDU: Convergence failed at  42  side 2    Res =  0.3113E+01
 MRCHDU: Convergence failed at  43  side 2    Res =  0.3934E+01
 MRCHDU: Convergence failed at  44  side 2    Res =  0.5704E+01
 MRCHDU: Convergence failed at  45  side 2    Res =  0.6132E+01
 MRCHDU: Convergence failed at  46  side 2    Res =  0.6248E+01
 MRCHDU: Convergence failed at  47  side 2    Res =  0.6234E+01
 MRCHDU: Convergence failed at  48  side 2    Res =  0.6269E+01
 MRCHDU: Convergence failed at  49  side 2    Res =  0.6249E+01
 MRCHDU: Convergence failed at  50  side 2    Res =  0.5389E+01
 MRCHDU: Convergence failed at  51  side 2    Res =  0.5292E+01
 MRCHDU: Convergence failed at  52  side 2    Res =  0.5198E+01
 MRCHDU: Convergence failed at  53  side 2    Res =  0.5086E+01
 MRCHDU: Convergence failed at  54  side 2    Res =  0.5643E+01
 MRCHDU: Convergence failed at  55  side 2    Res =  0.5280E+01
 MRCHDU: Convergence failed at  56  side 2    Res =  0.5117E+01
 MRCHDU: Convergence failed at  57  side 2    Res =  0.5023E+01
 MRCHDU: Convergence failed at  58  side 2    Res =  0.4913E+01
 MRCHDU: Convergence failed at  59  side 2    Res =  0.4819E+01
 MRCHDU: Convergence failed at  60  side 2    Res =  0.4740E+01
 MRCHDU: Convergence failed at  61  side 2    Res =  0.4670E+01
 MRCHDU: Convergence failed at  62  side 2    Res =  0.4609E+01
 MRCHDU: Convergence failed at  63  side 2    Res =  0.4556E+01
 MRCHDU: Convergence failed at  64  side 2    Res =  0.4500E+01
 MRCHDU: Convergence failed at  65  side 2    Res =  0.4463E+01
 MRCHDU: Convergence failed at  66  side 2    Res =  0.4434E+01
 MRCHDU: Convergence failed at  67  side 2    Res =  0.4409E+01
 MRCHDU: Convergence failed at  68  side 2    Res =  0.4384E+01
 MRCHDU: Convergence failed at  69  side 2    Res =  0.4370E+01
 MRCHDU: Convergence failed at  70  side 2    Res =  0.4365E+01
 MRCHDU: Convergence failed at  71  side 2    Res =  0.4353E+01
 MRCHDU: Convergence failed at  72  side 2    Res =  0.4343E+01
 MRCHDU: Convergence failed at  73  side 2    Res =  0.4336E+01
 MRCHDU: Convergence failed at  74  side 2    Res =  0.4337E+01
 MRCHDU: Convergence failed at  75  side 2    Res =  0.4335E+01
 MRCHDU: Convergence failed at  76  side 2    Res =  0.4328E+01
 MRCHDU: Convergence failed at  77  side 2    Res =  0.4322E+01
 MRCHDU: Convergence failed at  78  side 2    Res =  0.4315E+01
 MRCHDU: Convergence failed at  79  side 2    Res =  0.4298E+01
 MRCHDU: Convergence failed at  80  side 2    Res =  0.4288E+01
 MRCHDU: Convergence failed at  81  side 2    Res =  0.4258E+01
 MRCHDU: Convergence failed at  82  side 2    Res =  0.4206E+01
 MRCHDU: Convergence failed at  83  side 2    Res =  0.4131E+01
 MRCHDU: Convergence failed at  84  side 2    Res =  0.4034E+01
 Side 1 forced transition at x/c =  1.0000   78
 Side 2  free  transition at x/c =  0.3829   41

   5   rms: 0.2196E+00   max: -.8415E+00   D at   52  2   RLX: 0.594
       a = -3.000      CL = -0.3836
      Cm =  0.0212     CD =  0.00819   =>   CDf =  0.00442    CDp =  0.00378

 Side 1 forced transition at x/c =  1.0000   78
 Side 2  free  transition at x/c =  0.4328   44

   6   rms: 0.5986E-01   max: -.2909E+00   C at   44  2
       a = -3.000      CL = -0.3402
      Cm = -0.0020     CD =  0.01021   =>   CDf =  0.00754    CDp =  0.00267

 Side 1 forced transition at x/c =  1.0000   78
 Side 2  free  transition at x/c =  0.4417   45

   7   rms: 0.3309E-02   max: 0.3619E-01   C at   45  2
       a = -3.000      CL = -0.3392
      Cm = -0.0022     CD =  0.01039   =>   CDf =  0.00701    CDp =  0.00338

 Side 1 forced transition at x/c =  1.0000   78
 Side 2  free  transition at x/c =  0.4390   44

   8   rms: 0.1353E-03   max: 0.1685E-02   C at   44  2
       a = -3.000      CL = -0.3392
      Cm = -0.0022     CD =  0.01039   =>   CDf =  0.00703    CDp =  0.00336

 Side 1 forced transition at x/c =  1.0000   78
 Side 2  free  transition at x/c =  0.4388   44

   9   rms: 0.9577E-06   max: -.1094E-04   C at   44  2
       a = -3.000      CL = -0.3392
      Cm = -0.0022     CD =  0.01039   =>   CDf =  0.00703    CDp =  0.00336
 plradd ia,ip,cpol            3           0  4.30786144E-03

 Point added to stored polar  1
 Point written to save file  ht33_Re150k.base.pol                            
 Dump file unspecified or not available
 Calculating wake trajectory ...
 Calculating source influence matrix ...

 Solving BL system ...

 Side 1 forced transition at x/c =  1.0000   78
 Side 2  free  transition at x/c =  0.4388   44

   1   rms: 0.1504E+00   max: -.1591E+01   C at   44  2   RLX: 0.314
       a = -2.500      CL = -0.3230
      Cm = -0.0019     CD =  0.01014   =>   CDf =  0.00703    CDp =  0.00311

 Side 1 forced transition at x/c =  1.0000   78
 Side 2  free  transition at x/c =  0.4927   48

   2   rms: 0.2048E+00   max: -.3073E+01   C at   48  2   RLX: 0.163
       a = -2.500      CL = -0.3196
      Cm = -0.0013     CD =  0.00983   =>   CDf =  0.00680    CDp =  0.00302

 Side 1 forced transition at x/c =  1.0000   78
 Side 2  free  transition at x/c =  0.5026   49

   3   rms: 0.1390E+00   max: -.1928E+01   C at   49  2   RLX: 0.259
       a = -2.500      CL = -0.3110
      Cm = -0.0015     CD =  0.00975   =>   CDf =  0.00685    CDp =  0.00290

 Side 1 forced transition at x/c =  1.0000   78
 Side 2  free  transition at x/c =  0.5203   50

   4   rms: 0.7876E-01   max: -.8448E+00   C at   50  2   RLX: 0.592
       a = -2.500      CL = -0.2976
      Cm = -0.0013     CD =  0.00956   =>   CDf =  0.00685    CDp =  0.00271

 Side 1 forced transition at x/c =  1.0000   78
 Side 2  free  transition at x/c =  0.5704   54

   5   rms: 0.9361E-01   max: -.1352E+01   C at   54  2   RLX: 0.370
       a = -2.500      CL = -0.2958
      Cm = -0.0008     CD =  0.00936   =>   CDf =  0.00664    CDp =  0.00272

 Side 1 forced transition at x/c =  1.0000   78
 Side 2  free  transition at x/c =  0.5826   55

   6   rms: 0.7538E-01   max: -.1055E+01   C at   55  2   RLX: 0.474
       a = -2.500      CL = -0.2938
      Cm = -0.0006     CD =  0.00926   =>   CDf =  0.00661    CDp =  0.00266

 Side 1 forced transition at x/c =  1.0000   78
 Side 2  free  transition at x/c =  0.6001   56

   7   rms: 0.5704E-01   max: -.8361E+00   C at   56  2   RLX: 0.598
       a = -2.500      CL = -0.2929
      Cm = -0.0003     CD =  0.00919   =>   CDf =  0.00646    CDp =  0.00272

 Side 1 forced transition at x/c =  1.0000   78
 Side 2  free  transition at x/c =  0.6202   57

   8   rms: 0.3380E-01   max: -.5027E+00   C at   57  2   RLX: 0.995
       a = -2.500      CL = -0.2933
      Cm =  0.0004     CD =  0.00910   =>   CDf =  0.00631    CDp =  0.00279

 Side 1 forced transition at x/c =  1.0000   78
 Side 2  free  transition at x/c =  0.6477   59

   9   rms: 0.5064E-02   max: -.7225E-01   C at   59  2
       a = -2.500      CL = -0.2934
      Cm =  0.0004     CD =  0.00912   =>   CDf =  0.00613    CDp =  0.00298

 Side 1 forced transition at x/c =  1.0000   78
 Side 2  free  transition at x/c =  0.6511   59

  10   rms: 0.6416E-04   max: 0.7291E-03   C at   59  2
       a = -2.500      CL = -0.2934
      Cm =  0.0004     CD =  0.00912   =>   CDf =  0.00611    CDp =  0.00301
 plradd ia,ip,cpol            4           0  4.30786144E-03

 Point added to stored polar  1
 Point written to save file  ht33_Re150k.base.pol                            
 Dump file unspecified or not available
 Calculating wake trajectory ...
 Calculating source influence matrix ...

 Solving BL system ...

 Side 1 forced transition at x/c =  1.0000   78
 Side 2  free  transition at x/c =  0.6510   59

   1   rms: 0.1937E+00   max: -.2551E+01   C at   59  2   RLX: 0.196
       a = -2.000      CL = -0.2848
      Cm =  0.0012     CD =  0.00892   =>   CDf =  0.00610    CDp =  0.00281

 Side 1 forced transition at x/c =  1.0000   78
 Side 2  free  transition at x/c =  0.6977   63

   2   rms: 0.1902E+00   max: -.2593E+01   C at   63  2   RLX: 0.193
       a = -2.000      CL = -0.2792
      Cm =  0.0022     CD =  0.00870   =>   CDf =  0.00592    CDp =  0.00278

 Side 1 forced transition at x/c =  1.0000   78
 Side 2  free  transition at x/c =  0.7258   65

   3   rms: 0.1426E+00   max: -.1884E+01   C at   65  2   RLX: 0.265
       a = -2.000      CL = -0.2713
      Cm =  0.0025     CD =  0.00858   =>   CDf =  0.00587    CDp =  0.00272

 Side 1 forced transition at x/c =  1.0000   78
 Side 2  free  transition at x/c =  0.7549   67

   4   rms: 0.1213E+00   max: -.1631E+01   C at   67  2   RLX: 0.307
       a = -2.000      CL = -0.2646
      Cm =  0.0029     CD =  0.00848   =>   CDf =  0.00593    CDp =  0.00255

 Side 1 forced transition at x/c =  1.0000   79
 Side 2  free  transition at x/c =  0.7798   67

   5   rms: 0.8679E-01   max: -.1028E+01   C at   67  2   RLX: 0.486
       a = -2.000      CL = -0.2577
      Cm =  0.0037     CD =  0.00839   =>   CDf =  0.00574    CDp =  0.00265

 Side 1 forced transition at x/c =  1.0000   79
 Side 2  free  transition at x/c =  0.8233   70

   6   rms: 0.8367E-01   max: -.1168E+01   C at   70  2   RLX: 0.428
       a = -2.000      CL = -0.2544
      Cm =  0.0046     CD =  0.00832   =>   CDf =  0.00555    CDp =  0.00277

 Side 1 forced transition at x/c =  1.0000   79
 Side 2  free  transition at x/c =  0.8414   72

   7   rms: 0.5561E-01   max: -.7633E+00   C at   72  2   RLX: 0.655
       a = -2.000      CL = -0.2507
      Cm =  0.0049     CD =  0.00828   =>   CDf =  0.00555    CDp =  0.00273

 Side 1 forced transition at x/c =  1.0000   79
 Side 2  free  transition at x/c =  0.8670   73

   8   rms: 0.1774E-01   max: -.2122E+00   C at   73  2
       a = -2.000      CL = -0.2507
      Cm =  0.0056     CD =  0.00830   =>   CDf =  0.00549    CDp =  0.00282

 Side 1 forced transition at x/c =  1.0000   79
 Side 2  free  transition at x/c =  0.9083   76

   9   rms: 0.1898E-01   max: 0.2293E+00   C at   76  2
       a = -2.000      CL = -0.2472
      Cm =  0.0051     CD =  0.00832   =>   CDf =  0.00541    CDp =  0.00291

 Side 1 forced transition at x/c =  1.0000   79
 Side 2  free  transition at x/c =  0.8993   76

  10   rms: 0.1198E-02   max: -.8695E-02   C at   79  1
       a = -2.000      CL = -0.2461
      Cm =  0.0049     CD =  0.00833   =>   CDf =  0.00543    CDp =  0.00290

 Side 1 forced transition at x/c =  1.0000   79
 Side 2  free  transition at x/c =  0.8994   76

  11   rms: 0.6215E-05   max: 0.7859E-04   C at   76  2
       a = -2.000      CL = -0.2461
      Cm =  0.0049     CD =  0.00833   =>   CDf =  0.00543    CDp =  0.00290
 plradd ia,ip,cpol            5           0  6.62693614E-03

 Point added to stored polar  1
 Point written to save file  ht33_Re150k.base.pol                            
 Dump file unspecified or not available
 Calculating wake trajectory ...
 Calculating source influence matrix ...

 Solving BL system ...

 Side 1 forced transition at x/c =  1.0000   79
 Side 2  free  transition at x/c =  0.8994   76

   1   rms: 0.2278E+00   max: -.2293E+01   C at   76  2   RLX: 0.218
       a = -1.500      CL = -0.2238
      Cm =  0.0036     CD =  0.00824   =>   CDf =  0.00542    CDp =  0.00281

 Side 1 forced transition at x/c =  1.0000   79
 Side 2  free  transition at x/c =  0.9359   78

   2   rms: 0.1018E+00   max: 0.5484E+00   C at   79  2
       a = -1.500      CL = -0.1868
      Cm =  0.0060     CD =  0.00831   =>   CDf =  0.00543    CDp =  0.00288

 Side 1 forced transition at x/c =  1.0000   79
 Side 2 forced transition at x/c =  1.0000   83

   3   rms: 0.1016E+00   max: 0.1045E+01   D at   78  2
       a = -1.500      CL = -0.1260
      Cm = -0.0091     CD =  0.00812   =>   CDf =  0.00593    CDp =  0.00219

 MRCHDU: Convergence failed at  77  side 2    Res =  0.1287E+02
 MRCHDU: Convergence failed at  78  side 2    Res =  0.1903E+03
 Side 1 forced transition at x/c =  1.0000   80
 Side 2 forced transition at x/c =  1.0000   82
 idif Ue xi dudx           1  0.33259201      1.68514252E-03   197.36729    
 Uenew xinew           2  1.63519699E-02  8.28504562E-05

   4   rms: 0.2871E-01   max: 0.1714E+00   D at   79  2
       a = -1.500      CL = -0.1507
      Cm = -0.0029     CD =  0.00810   =>   CDf =  0.00572    CDp =  0.00238

 Side 1 forced transition at x/c =  1.0000   79
 Side 2 forced transition at x/c =  1.0000   83

   5   rms: 0.4766E-02   max: 0.3471E-01   C at   83  2
       a = -1.500      CL = -0.1500
      Cm = -0.0030     CD =  0.00815   =>   CDf =  0.00568    CDp =  0.00247

 Side 1 forced transition at x/c =  1.0000   79
 Side 2 forced transition at x/c =  1.0000   83

   6   rms: 0.1323E-02   max: -.1431E-01   D at    4  2
       a = -1.500      CL = -0.1500
      Cm = -0.0030     CD =  0.00816   =>   CDf =  0.00568    CDp =  0.00248

 Side 1 forced transition at x/c =  1.0000   79
 Side 2 forced transition at x/c =  1.0000   83

   7   rms: 0.6626E-05   max: -.7660E-04   D at    7  2
       a = -1.500      CL = -0.1500
      Cm = -0.0030     CD =  0.00816   =>   CDf =  0.00568    CDp =  0.00248
 plradd ia,ip,cpol            6           0  9.68250446E-03

 Point added to stored polar  1
 Point written to save file  ht33_Re150k.base.pol                            
 Dump file unspecified or not available
 Calculating wake trajectory ...
 Calculating source influence matrix ...

 Solving BL system ...

 Side 1 forced transition at x/c =  1.0000   79
 Side 2 forced transition at x/c =  1.0000   83

   1   rms: 0.9440E-01   max: -.2343E+00   n at   82  2
       a = -1.000      CL = -0.1008
      Cm = -0.0021     CD =  0.00802   =>   CDf =  0.00581    CDp =  0.00221

 Side 1 forced transition at x/c =  1.0000   80
 Side 2 forced transition at x/c =  1.0000   82

   2   rms: 0.9944E-02   max: 0.8027E-01   D at    3  1
       a = -1.000      CL = -0.1005
      Cm = -0.0020     CD =  0.00802   =>   CDf =  0.00591    CDp =  0.00211

 Side 1 forced transition at x/c =  1.0000   80
 Side 2 forced transition at x/c =  1.0000   82

   3   rms: 0.8106E-03   max: 0.5895E-02   D at    4  1
       a = -1.000      CL = -0.1005
      Cm = -0.0020     CD =  0.00803   =>   CDf =  0.00588    CDp =  0.00215

 Side 1 forced transition at x/c =  1.0000   80
 Side 2 forced transition at x/c =  1.0000   82

   4   rms: 0.2566E-05   max: -.1926E-04   D at   84  2
       a = -1.000      CL = -0.1005
      Cm = -0.0020     CD =  0.00803   =>   CDf =  0.00588    CDp =  0.00215
 plradd ia,ip,cpol            7           0  1.93715245E-02

 Point added to stored polar  1
 Point written to save file  ht33_Re150k.base.pol                            
 Dump file unspecified or not available
 Calculating wake trajectory ...
 Calculating source influence matrix ...

 Solving BL system ...

 Side 1 forced transition at x/c =  1.0000   80
 Side 2 forced transition at x/c =  1.0000   82

   1   rms: 0.8748E-01   max: -.1972E+00   C at   82  2
       a = -0.500      CL = -0.0507
      Cm = -0.0010     CD =  0.00796   =>   CDf =  0.00587    CDp =  0.00209

 Side 1 forced transition at x/c =  1.0000   80
 Side 2 forced transition at x/c =  1.0000   82

   2   rms: 0.3923E-02   max: 0.2874E-01   C at   82  2
       a = -0.500      CL = -0.0504
      Cm = -0.0010     CD =  0.00796   =>   CDf =  0.00600    CDp =  0.00196

 Side 1 forced transition at x/c =  1.0000   80
 Side 2 forced transition at x/c =  1.0000   82

   3   rms: 0.7716E-04   max: 0.8360E-03   C at   82  2
       a = -0.500      CL = -0.0504
      Cm = -0.0010     CD =  0.00796   =>   CDf =  0.00598    CDp =  0.00198
 plradd ia,ip,cpol            8           0  3.66544537E-02

 Point added to stored polar  1
 Point written to save file  ht33_Re150k.base.pol                            
 Dump file unspecified or not available
 Calculating wake trajectory ...
 Calculating source influence matrix ...

 Solving BL system ...

 Side 1 forced transition at x/c =  1.0000   80
 Side 2 forced transition at x/c =  1.0000   82

   1   rms: 0.8477E-01   max: -.1806E+00   C at   82  2
       a =  0.000      CL = -0.0001
      Cm =  0.0000     CD =  0.00794   =>   CDf =  0.00604    CDp =  0.00190

 Side 1 forced transition at x/c =  1.0000   81
 Side 2 forced transition at x/c =  1.0000   81

   2   rms: 0.3730E-02   max: 0.3415E-01   D at    3  1
       a =  0.000      CL =  0.0000
      Cm =  0.0000     CD =  0.00794   =>   CDf =  0.00603    CDp =  0.00191

 Side 1 forced transition at x/c =  1.0000   81
 Side 2 forced transition at x/c =  1.0000   81

   3   rms: 0.3378E-03   max: -.2610E-02   D at    4  2
       a =  0.000      CL =  0.0000
      Cm =  0.0000     CD =  0.00794   =>   CDf =  0.00602    CDp =  0.00192

 Side 1 forced transition at x/c =  1.0000   81
 Side 2 forced transition at x/c =  1.0000   81

   4   rms: 0.1240E-05   max: 0.8533E-05   D at    4  1
       a =  0.000      CL =  0.0000
      Cm =  0.0000     CD =  0.00794   =>   CDf =  0.00602    CDp =  0.00192
 plradd ia,ip,cpol            9           0  4.79706787E-02

 Point added to stored polar  1
 Point written to save file  ht33_Re150k.base.pol                            
 Dump file unspecified or not available
 Calculating wake trajectory ...
 Calculating source influence matrix ...

 Solving BL system ...

 Side 1 forced transition at x/c =  1.0000   81
 Side 2 forced transition at x/c =  1.0000   81

   1   rms: 0.8401E-01   max: -.1724E+00   C at   81  2
       a =  0.500      CL =  0.0505
      Cm =  0.0010     CD =  0.00796   =>   CDf =  0.00604    CDp =  0.00191

 Side 1 forced transition at x/c =  1.0000   82
 Side 2 forced transition at x/c =  1.0000   80

   2   rms: 0.2422E-02   max: 0.1458E-01   C at   82  1
       a =  0.500      CL =  0.0505
      Cm =  0.0010     CD =  0.00796   =>   CDf =  0.00599    CDp =  0.00197

 Side 1 forced transition at x/c =  1.0000   82
 Side 2 forced transition at x/c =  1.0000   80

   3   rms: 0.3404E-03   max: -.3685E-02   D at    4  1
       a =  0.500      CL =  0.0505
      Cm =  0.0010     CD =  0.00796   =>   CDf =  0.00598    CDp =  0.00198

 Side 1 forced transition at x/c =  1.0000   82
 Side 2 forced transition at x/c =  1.0000   80

   4   rms: 0.2369E-05   max: 0.2398E-04   D at    4  1
       a =  0.500      CL =  0.0505
      Cm =  0.0010     CD =  0.00796   =>   CDf =  0.00598    CDp =  0.00198
 plradd ia,ip,cpol           10           0  3.66439112E-02

 Point added to stored polar  1
 Point written to save file  ht33_Re150k.base.pol                            
 Dump file unspecified or not available
 Calculating wake trajectory ...
 Calculating source influence matrix ...

 Solving BL system ...

 Side 1 forced transition at x/c =  1.0000   82
 Side 2 forced transition at x/c =  1.0000   80

   1   rms: 0.8477E-01   max: -.1722E+00   C at   80  2
       a =  1.000      CL =  0.1008
      Cm =  0.0020     CD =  0.00802   =>   CDf =  0.00598    CDp =  0.00204

 Side 1 forced transition at x/c =  1.0000   82
 Side 2 forced transition at x/c =  1.0000   80

   2   rms: 0.3512E-02   max: 0.2426E-01   C at   82  1
       a =  1.000      CL =  0.1006
      Cm =  0.0020     CD =  0.00803   =>   CDf =  0.00589    CDp =  0.00214

 Side 1 forced transition at x/c =  1.0000   82
 Side 2 forced transition at x/c =  1.0000   80

   3   rms: 0.6249E-04   max: 0.5596E-03   C at   82  1
       a =  1.000      CL =  0.1006
      Cm =  0.0020     CD =  0.00803   =>   CDf =  0.00588    CDp =  0.00215
 plradd ia,ip,cpol           11           0  1.93646178E-02

 Point added to stored polar  1
 Point written to save file  ht33_Re150k.base.pol                            
 Dump file unspecified or not available
 Calculating wake trajectory ...
 Calculating source influence matrix ...

 Solving BL system ...

 Side 1 forced transition at x/c =  1.0000   82
 Side 2 forced transition at x/c =  1.0000   80

   1   rms: 0.8747E-01   max: -.1827E+00   C at   80  2
       a =  1.500      CL =  0.1504
      Cm =  0.0030     CD =  0.00813   =>   CDf =  0.00583    CDp =  0.00230

 Side 1 forced transition at x/c =  1.0000   83
 Side 2 forced transition at x/c =  1.0000   79

   2   rms: 0.6404E-02   max: 0.3558E-01   C at   83  1
       a =  1.500      CL =  0.1501
      Cm =  0.0030     CD =  0.00816   =>   CDf =  0.00570    CDp =  0.00245

 Side 1 forced transition at x/c =  1.0000   83
 Side 2 forced transition at x/c =  1.0000   79

   3   rms: 0.1246E-02   max: -.1334E-01   D at    4  1
       a =  1.500      CL =  0.1501
      Cm =  0.0030     CD =  0.00816   =>   CDf =  0.00568    CDp =  0.00248

 Side 1 forced transition at x/c =  1.0000   83
 Side 2 forced transition at x/c =  1.0000   79

   4   rms: 0.4447E-05   max: -.5604E-04   D at    7  1
       a =  1.500      CL =  0.1501
      Cm =  0.0030     CD =  0.00816   =>   CDf =  0.00568    CDp =  0.00248
 plradd ia,ip,cpol           12           0  9.67915356E-03

 Point added to stored polar  1
 Point written to save file  ht33_Re150k.base.pol                            
 Dump file unspecified or not available
 Calculating wake trajectory ...
 Calculating source influence matrix ...

 Solving BL system ...

 Side 1 forced transition at x/c =  1.0000   83
 Side 2 forced transition at x/c =  1.0000   79

   1   rms: 0.9443E-01   max: -.2092E+00   C at   79  2
       a =  2.000      CL =  0.1992
      Cm =  0.0038     CD =  0.00834   =>   CDf =  0.00568    CDp =  0.00266

 Side 1  free  transition at x/c =  0.9018   76
 Side 2 forced transition at x/c =  1.0000   79

   2   rms: 0.1550E+00   max: -.7873E+00   D at   83  1   RLX: 0.635
       a =  2.000      CL =  0.2441
      Cm = -0.0036     CD =  0.00859   =>   CDf =  0.00546    CDp =  0.00314

 Side 1  free  transition at x/c =  0.9239   77
 Side 2 forced transition at x/c =  1.0000   79

   3   rms: 0.2887E-01   max: -.2785E+00   D at   83  1
       a =  2.000      CL =  0.2471
      Cm = -0.0052     CD =  0.00825   =>   CDf =  0.00540    CDp =  0.00286

 Side 1  free  transition at x/c =  0.8939   75
 Side 2 forced transition at x/c =  1.0000   79

   4   rms: 0.6189E-02   max: -.7282E-01   C at   75  1
       a =  2.000      CL =  0.2465
      Cm = -0.0050     CD =  0.00833   =>   CDf =  0.00543    CDp =  0.00290

 Side 1  free  transition at x/c =  0.8989   76
 Side 2 forced transition at x/c =  1.0000   79

   5   rms: 0.1762E-02   max: -.2363E-01   C at   76  1
       a =  2.000      CL =  0.2463
      Cm = -0.0049     CD =  0.00833   =>   CDf =  0.00543    CDp =  0.00290

 Side 1  free  transition at x/c =  0.8992   76
 Side 2 forced transition at x/c =  1.0000   79

   6   rms: 0.8270E-05   max: -.4609E-04   C at   79  2
       a =  2.000      CL =  0.2463
      Cm = -0.0049     CD =  0.00833   =>   CDf =  0.00543    CDp =  0.00290
 plradd ia,ip,cpol           13           0  6.62419153E-03

 Point added to stored polar  1
 Point written to save file  ht33_Re150k.base.pol                            
 Dump file unspecified or not available
 Calculating wake trajectory ...
 Calculating source influence matrix ...

 Solving BL system ...

 Side 1  free  transition at x/c =  0.8992   76
 Side 2 forced transition at x/c =  1.0000   79

   1   rms: 0.2301E+00   max: 0.2322E+01   C at   76  1   RLX: 0.451
       a =  2.500      CL =  0.2929
      Cm = -0.0078     CD =  0.00844   =>   CDf =  0.00533    CDp =  0.00310

 Side 1  free  transition at x/c =  0.7484   66
 Side 2 forced transition at x/c =  1.0000   78

   2   rms: 0.5604E-01   max: 0.4619E+00   C at   66  1
       a =  2.500      CL =  0.2946
      Cm = -0.0008     CD =  0.00897   =>   CDf =  0.00575    CDp =  0.00321

 Side 1  free  transition at x/c =  0.6397   59
 Side 2 forced transition at x/c =  1.0000   78

   3   rms: 0.2415E-01   max: -.2556E+00   C at   59  1
       a =  2.500      CL =  0.2935
      Cm = -0.0004     CD =  0.00908   =>   CDf =  0.00621    CDp =  0.00287

 Side 1  free  transition at x/c =  0.6533   59
 Side 2 forced transition at x/c =  1.0000   78

   4   rms: 0.3179E-02   max: -.4605E-01   D at   65  1
       a =  2.500      CL =  0.2935
      Cm = -0.0005     CD =  0.00912   =>   CDf =  0.00610    CDp =  0.00302

 Side 1  free  transition at x/c =  0.6505   59
 Side 2 forced transition at x/c =  1.0000   78

   5   rms: 0.1053E-03   max: -.1152E-02   C at   59  1
       a =  2.500      CL =  0.2935
      Cm = -0.0004     CD =  0.00912   =>   CDf =  0.00611    CDp =  0.00301

 Side 1  free  transition at x/c =  0.6505   59
 Side 2 forced transition at x/c =  1.0000   78

   6   rms: 0.2222E-05   max: -.3314E-04   C at   59  1
       a =  2.500      CL =  0.2935
      Cm = -0.0004     CD =  0.00912   =>   CDf =  0.00611    CDp =  0.00301
 plradd ia,ip,cpol           14           0  4.30571940E-03

 Point added to stored polar  1
 Point written to save file  ht33_Re150k.base.pol                            
 Dump file unspecified or not available
 Calculating wake trajectory ...
 Calculating source influence matrix ...

 Solving BL system ...

 Side 1  free  transition at x/c =  0.6505   59
 Side 2 forced transition at x/c =  1.0000   78

   1   rms: 0.1962E+00   max: 0.2596E+01   C at   59  1   RLX: 0.578
       a =  3.000      CL =  0.3188
      Cm =  0.0017     CD =  0.00972   =>   CDf =  0.00611    CDp =  0.00361

 Side 1  free  transition at x/c =  0.5134   50
 Side 2 forced transition at x/c =  1.0000   78

   2   rms: 0.5795E-01   max: -.4604E+00   D at   51  1
       a =  3.000      CL =  0.3403
      Cm =  0.0021     CD =  0.01022   =>   CDf =  0.00678    CDp =  0.00344

 Side 1  free  transition at x/c =  0.4357   44
 Side 2 forced transition at x/c =  1.0000   78

   3   rms: 0.2555E-01   max: 0.2064E+00   D at   49  1
       a =  3.000      CL =  0.3393
      Cm =  0.0022     CD =  0.01036   =>   CDf =  0.00709    CDp =  0.00327

 Side 1  free  transition at x/c =  0.4406   45
 Side 2 forced transition at x/c =  1.0000   78

   4   rms: 0.2121E-02   max: -.2849E-01   D at   49  1
       a =  3.000      CL =  0.3393
      Cm =  0.0022     CD =  0.01040   =>   CDf =  0.00703    CDp =  0.00337

 Side 1  free  transition at x/c =  0.4386   44
 Side 2 forced transition at x/c =  1.0000   78

   5   rms: 0.2017E-03   max: 0.2325E-02   C at   44  1
       a =  3.000      CL =  0.3393
      Cm =  0.0022     CD =  0.01039   =>   CDf =  0.00703    CDp =  0.00337

 Side 1  free  transition at x/c =  0.4384   44
 Side 2 forced transition at x/c =  1.0000   78

   6   rms: 0.2040E-05   max: -.2934E-04   C at   44  1
       a =  3.000      CL =  0.3393
      Cm =  0.0022     CD =  0.01039   =>   CDf =  0.00703    CDp =  0.00337
 plradd ia,ip,cpol           15           0  4.30571940E-03

 Point added to stored polar  1
 Point written to save file  ht33_Re150k.base.pol                            
 Dump file unspecified or not available
 Calculating wake trajectory ...
 Calculating source influence matrix ...

 Solving BL system ...

 Side 1  free  transition at x/c =  0.4384   44
 Side 2 forced transition at x/c =  1.0000   78

   1   rms: 0.1533E+00   max: 0.1665E+01   C at   44  1   RLX: 0.709
       a =  3.500      CL =  0.3760
      Cm =  0.0029     CD =  0.01101   =>   CDf =  0.00692    CDp =  0.00409

 Side 1  free  transition at x/c =  0.3127   37
 Side 2 forced transition at x/c =  1.0000   77

   2   rms: 0.7961E-01   max: -.7765E+00   D at   39  1   RLX: 0.644
       a =  3.500      CL =  0.3859
      Cm =  0.0033     CD =  0.01131   =>   CDf =  0.00759    CDp =  0.00372

 Side 1  free  transition at x/c =  0.2767   34
 Side 2 forced transition at x/c =  1.0000   77

   3   rms: 0.4386E-01   max: -.5146E+00   D at   39  1   RLX: 0.972
       a =  3.500      CL =  0.3893
      Cm =  0.0031     CD =  0.01166   =>   CDf =  0.00764    CDp =  0.00402

 Side 1  free  transition at x/c =  0.2356   31
 Side 2 forced transition at x/c =  1.0000   77

   4   rms: 0.1794E-01   max: -.2340E+00   D at   32  1
       a =  3.500      CL =  0.3887
      Cm =  0.0031     CD =  0.01188   =>   CDf =  0.00788    CDp =  0.00400

 Side 1  free  transition at x/c =  0.2318   31
 Side 2 forced transition at x/c =  1.0000   77

   5   rms: 0.1908E-02   max: 0.3017E-01   C at   31  1
       a =  3.500      CL =  0.3886
      Cm =  0.0031     CD =  0.01189   =>   CDf =  0.00787    CDp =  0.00401

 Side 1  free  transition at x/c =  0.2308   31
 Side 2 forced transition at x/c =  1.0000   77

   6   rms: 0.1958E-04   max: -.2486E-03   C at   31  1
       a =  3.500      CL =  0.3886
      Cm =  0.0031     CD =  0.01189   =>   CDf =  0.00788    CDp =  0.00401
 plradd ia,ip,cpol           16           0  2.54967017E-03

 Point added to stored polar  1
 Point written to save file  ht33_Re150k.base.pol                            
 Dump file unspecified or not available
 Calculating wake trajectory ...
 Calculating source influence matrix ...

 Solving BL system ...

 Side 1  free  transition at x/c =  0.2308   31
 Side 2 forced transition at x/c =  1.0000   77

   1   rms: 0.2959E+00   max: 0.4068E+01   C at   31  1   RLX: 0.264
       a =  4.000      CL =  0.4016
      Cm =  0.0033     CD =  0.01249   =>   CDf =  0.00788    CDp =  0.00460

 Side 1  free  transition at x/c =  0.1834   28
 Side 2 forced transition at x/c =  1.0000   77

   2   rms: 0.2217E+00   max: 0.2486E+01   T at   28  1   RLX: 0.406
       a =  4.000      CL =  0.4160
      Cm =  0.0035     CD =  0.01358   =>   CDf =  0.00819    CDp =  0.00539

 MRCHDU: Convergence failed at  28  side 1    Res =  0.4749E+01
 Side 1  free  transition at x/c =  0.1432   25
 Side 2 forced transition at x/c =  1.0000   77

   3   rms: 0.1448E+00   max: 0.1644E+01   T at   25  1   RLX: 0.693
       a =  4.000      CL =  0.4327
      Cm =  0.0039     CD =  0.01473   =>   CDf =  0.00857    CDp =  0.00616

 MRCHDU: Convergence failed at  25  side 1    Res =  0.2831E+01
 Side 1  free  transition at x/c =  0.1133   22
 Side 2 forced transition at x/c =  1.0000   77

   4   rms: 0.8096E-01   max: -.6695E+00   C at   22  1   RLX: 0.747
       a =  4.000      CL =  0.4387
      Cm =  0.0040     CD =  0.01381   =>   CDf =  0.00871    CDp =  0.00510

 Side 1  free  transition at x/c =  0.1027   22
 Side 2 forced transition at x/c =  1.0000   77

   5   rms: 0.3996E-01   max: -.6157E+00   D at   23  1   RLX: 0.812
       a =  4.000      CL =  0.4383
      Cm =  0.0037     CD =  0.01416   =>   CDf =  0.00868    CDp =  0.00549

 Side 1  free  transition at x/c =  0.1034   22
 Side 2 forced transition at x/c =  1.0000   77

   6   rms: 0.8443E-02   max: -.2041E+00   D at   23  1
       a =  4.000      CL =  0.4388
      Cm =  0.0038     CD =  0.01414   =>   CDf =  0.00862    CDp =  0.00552

 Side 1  free  transition at x/c =  0.1023   22
 Side 2 forced transition at x/c =  1.0000   77

   7   rms: 0.1430E-02   max: -.3212E-01   D at   23  1
       a =  4.000      CL =  0.4387
      Cm =  0.0038     CD =  0.01415   =>   CDf =  0.00864    CDp =  0.00551

 Side 1  free  transition at x/c =  0.1022   22
 Side 2 forced transition at x/c =  1.0000   77

   8   rms: 0.3989E-04   max: -.8746E-03   D at   23  1
       a =  4.000      CL =  0.4387
      Cm =  0.0038     CD =  0.01415   =>   CDf =  0.00865    CDp =  0.00550
 plradd ia,ip,cpol           17           0  2.54967017E-03

 Point added to stored polar  1
 Point written to save file  ht33_Re150k.base.pol                            
 Dump file unspecified or not available
 Calculating wake trajectory ...
 Calculating source influence matrix ...

 Solving BL system ...

 Side 1  free  transition at x/c =  0.1021   22
 Side 2 forced transition at x/c =  1.0000   77

   1   rms: 0.2077E+00   max: 0.2031E+01   T at   22  1   RLX: 0.441
       a =  4.500      CL =  0.4600
      Cm =  0.0041     CD =  0.01558   =>   CDf =  0.00865    CDp =  0.00692

 MRCHDU: Convergence failed at  22  side 1    Res =  0.6991E+01
 MRCHDU: Convergence failed at  23  side 1    Res =  0.5327E+01
 MRCHDU: Convergence failed at  24  side 1    Res =  0.7582E+01
 MRCHDU: Convergence failed at  25  side 1    Res =  0.5733E+01
 MRCHDU: Convergence failed at  26  side 1    Res =  0.3524E+01
 MRCHDU: Convergence failed at  27  side 1    Res =  0.3182E+01
 MRCHDU: Convergence failed at  28  side 1    Res =  0.3208E+01
 MRCHDU: Convergence failed at  29  side 1    Res =  0.3379E+01
 MRCHDU: Convergence failed at  30  side 1    Res =  0.3490E+01
 MRCHDU: Convergence failed at  31  side 1    Res =  0.3664E+01
 MRCHDU: Convergence failed at  32  side 1    Res =  0.3825E+01
 MRCHDU: Convergence failed at  33  side 1    Res =  0.3823E+01
 MRCHDU: Convergence failed at  34  side 1    Res =  0.8286E+01
 MRCHDU: Convergence failed at  35  side 1    Res =  0.9235E+01
 MRCHDU: Convergence failed at  36  side 1    Res =  0.1063E+02
 MRCHDU: Convergence failed at  37  side 1    Res =  0.1197E+02
 MRCHDU: Convergence failed at  38  side 1    Res =  0.1368E+02
 MRCHDU: Convergence failed at  39  side 1    Res =  0.1686E+02
 MRCHDU: Convergence failed at  40  side 1    Res =  0.2048E+02
 MRCHDU: Convergence failed at  41  side 1    Res =  0.2422E+02
 MRCHDU: Convergence failed at  42  side 1    Res =  0.3109E+02
 MRCHDU: Convergence failed at  43  side 1    Res =  0.4157E+02
 MRCHDU: Convergence failed at  44  side 1    Res =  0.6909E+02
 MRCHDU: Convergence failed at  45  side 1    Res =  0.1447E+03
 MRCHDU: Convergence failed at  46  side 1    Res =  0.1155E+04
 MRCHDU: Convergence failed at  47  side 1    Res =  0.1809E+03
 MRCHDU: Convergence failed at  48  side 1    Res =  0.8365E+02
 MRCHDU: Convergence failed at  49  side 1    Res =  0.6553E+02
 MRCHDU: Convergence failed at  50  side 1    Res =  0.5333E+02
 MRCHDU: Convergence failed at  51  side 1    Res =  0.4660E+02
 MRCHDU: Convergence failed at  52  side 1    Res =  0.4023E+02
 MRCHDU: Convergence failed at  53  side 1    Res =  0.3703E+02
 MRCHDU: Convergence failed at  54  side 1    Res =  0.3466E+02
 MRCHDU: Convergence failed at  55  side 1    Res =  0.3142E+02
 MRCHDU: Convergence failed at  56  side 1    Res =  0.2887E+02
 MRCHDU: Convergence failed at  57  side 1    Res =  0.2784E+02
 MRCHDU: Convergence failed at  58  side 1    Res =  0.2596E+02
 MRCHDU: Convergence failed at  59  side 1    Res =  0.2438E+02
 MRCHDU: Convergence failed at  60  side 1    Res =  0.2396E+02
 MRCHDU: Convergence failed at  61  side 1    Res =  0.2270E+02
 MRCHDU: Convergence failed at  62  side 1    Res =  0.2242E+02
 MRCHDU: Convergence failed at  63  side 1    Res =  0.2138E+02
 MRCHDU: Convergence failed at  64  side 1    Res =  0.2120E+02
 MRCHDU: Convergence failed at  65  side 1    Res =  0.2029E+02
 MRCHDU: Convergence failed at  66  side 1    Res =  0.1948E+02
 MRCHDU: Convergence failed at  67  side 1    Res =  0.1877E+02
 MRCHDU: Convergence failed at  68  side 1    Res =  0.1806E+02
 MRCHDU: Convergence failed at  69  side 1    Res =  0.1745E+02
 MRCHDU: Convergence failed at  70  side 1    Res =  0.1686E+02
 MRCHDU: Convergence failed at  71  side 1    Res =  0.1634E+02
 MRCHDU: Convergence failed at  72  side 1    Res =  0.1582E+02
 MRCHDU: Convergence failed at  73  side 1    Res =  0.1534E+02
 MRCHDU: Convergence failed at  74  side 1    Res =  0.1487E+02
 MRCHDU: Convergence failed at  75  side 1    Res =  0.1074E+02
 MRCHDU: Convergence failed at  76  side 1    Res =  0.1614E+02
 MRCHDU: Convergence failed at  77  side 1    Res =  0.2321E+02
 MRCHDU: Convergence failed at  78  side 1    Res =  0.2297E+02
 MRCHDU: Convergence failed at  79  side 1    Res =  0.2093E+02
 MRCHDU: Convergence failed at  80  side 1    Res =  0.1899E+02
 MRCHDU: Convergence failed at  81  side 1    Res =  0.1706E+02
 MRCHDU: Convergence failed at  82  side 1    Res =  0.1529E+02
 MRCHDU: Convergence failed at  83  side 1    Res =  0.2523E+02
 MRCHDU: Convergence failed at  84  side 1    Res =  0.2517E+02
 MRCHDU: Convergence failed at  85  side 1    Res =  0.2733E+02
 Side 1  free  transition at x/c =  0.0881   21
 Side 2 forced transition at x/c =  1.0000   77

   2   rms: 0.5051E+00   max: -.2093E+01   C at   77  2   RLX: 0.239
       a =  4.500      CL =  0.9342
      Cm = -0.1740     CD =  0.00980   =>   CDf =  0.00365    CDp =  0.00614

 Side 1  free  transition at x/c =  0.0856   20
 Side 2 forced transition at x/c =  1.0000   77

   3   rms: 0.3531E+00   max: 0.1736E+01   T at   20  1   RLX: 0.377
       a =  4.500      CL =  0.6665
      Cm = -0.0637     CD =  0.02168   =>   CDf =  0.00695    CDp =  0.01474

 Side 1  free  transition at x/c =  0.0732   20
 Side 2 forced transition at x/c =  1.0000   76

   4   rms: 0.3665E+00   max: 0.1235E+01   D at    2  1   RLX: 0.412
       a =  4.500      CL =  0.5988
      Cm = -0.0333     CD =  0.01946   =>   CDf =  0.00668    CDp =  0.01278

 Side 1  free  transition at x/c =  0.0691   20
 Side 2 forced transition at x/c =  1.0000   76

   5   rms: 0.4590E+00   max: -.1629E+01   D at   38  1   RLX: 0.307
       a =  4.500      CL =  0.5882
      Cm = -0.0205     CD =  0.01784   =>   CDf =  0.00664    CDp =  0.01121

 MRCHDU: Convergence failed at  34  side 1    Res =  0.2415E+00
 Side 1  free  transition at x/c =  0.0661   20
 Side 2 forced transition at x/c =  1.0000   76

   6   rms: 0.3751E+00   max: 0.1391E+01   C at   76  2   RLX: 0.380
       a =  4.500      CL =  0.6043
      Cm = -0.0158     CD =  0.01629   =>   CDf =  0.00782    CDp =  0.00847

 MRCHDU: Convergence failed at  44  side 1    Res =  0.1979E+01
 MRCHDU: Convergence failed at  74  side 1    Res =  0.1997E+00
 Side 1  free  transition at x/c =  0.0615   20
 Side 2 forced transition at x/c =  1.0000   76

   7   rms: 0.2255E+00   max: -.6029E+00   D at   82  1   RLX: 0.691
       a =  4.500      CL =  0.5443
      Cm = -0.0042     CD =  0.01605   =>   CDf =  0.00870    CDp =  0.00735

 Side 1  free  transition at x/c =  0.0652   20
 Side 2 forced transition at x/c =  1.0000   76

   8   rms: 0.1216E+00   max: -.5264E+00   C at   76  2   RLX: 0.950
       a =  4.500      CL =  0.4895
      Cm =  0.0054     CD =  0.01636   =>   CDf =  0.00861    CDp =  0.00776

 Side 1  free  transition at x/c =  0.0703   20
 Side 2 forced transition at x/c =  1.0000   76

   9   rms: 0.2253E-01   max: -.1519E+00   D at   23  1
       a =  4.500      CL =  0.4899
      Cm =  0.0048     CD =  0.01646   =>   CDf =  0.00875    CDp =  0.00771

 Side 1  free  transition at x/c =  0.0702   20
 Side 2 forced transition at x/c =  1.0000   76

  10   rms: 0.1049E-02   max: 0.7194E-02   D at   21  1
       a =  4.500      CL =  0.4899
      Cm =  0.0048     CD =  0.01648   =>   CDf =  0.00873    CDp =  0.00775

 Side 1  free  transition at x/c =  0.0701   20
 Side 2 forced transition at x/c =  1.0000   76

  11   rms: 0.4258E-05   max: 0.2868E-04   D at   21  1
       a =  4.500      CL =  0.4899
      Cm =  0.0048     CD =  0.01648   =>   CDf =  0.00873    CDp =  0.00775
 plradd ia,ip,cpol           18           0  1.27250270E-03

 Point added to stored polar  1
 Point written to save file  ht33_Re150k.base.pol                            
 Dump file unspecified or not available
 Calculating wake trajectory ...
 Calculating source influence matrix ...

 Solving BL system ...

 Side 1  free  transition at x/c =  0.0701   20
 Side 2 forced transition at x/c =  1.0000   76

   1   rms: 0.1217E+00   max: 0.9645E+00   T at   20  1
       a =  5.000      CL =  0.5437
      Cm =  0.0063     CD =  0.01865   =>   CDf =  0.00873    CDp =  0.00992

 Side 1  free  transition at x/c =  0.0578   19
 Side 2 forced transition at x/c =  1.0000   76

   2   rms: 0.8876E-01   max: -.3476E+00   D at   19  1
       a =  5.000      CL =  0.5421
      Cm =  0.0060     CD =  0.01881   =>   CDf =  0.00835    CDp =  0.01047

 Side 1  free  transition at x/c =  0.0559   19
 Side 2 forced transition at x/c =  1.0000   76

   3   rms: 0.7529E-02   max: 0.7787E-01   D at   19  1
       a =  5.000      CL =  0.5421
      Cm =  0.0059     CD =  0.01921   =>   CDf =  0.00858    CDp =  0.01063

 Side 1  free  transition at x/c =  0.0558   19
 Side 2 forced transition at x/c =  1.0000   76

   4   rms: 0.2102E-03   max: 0.1156E-02   D at   22  1
       a =  5.000      CL =  0.5421
      Cm =  0.0059     CD =  0.01920   =>   CDf =  0.00858    CDp =  0.01062

 Side 1  free  transition at x/c =  0.0557   19
 Side 2 forced transition at x/c =  1.0000   76

   5   rms: 0.2275E-05   max: 0.6965E-05   D at   37  1
       a =  5.000      CL =  0.5421
      Cm =  0.0059     CD =  0.01920   =>   CDf =  0.00858    CDp =  0.01062
 plradd ia,ip,cpol           19           0  1.27250270E-03

 Point added to stored polar  1
 Point written to save file  ht33_Re150k.base.pol                            
 Dump file unspecified or not available
 Calculating wake trajectory ...
 Calculating source influence matrix ...

 Solving BL system ...

 Side 1  free  transition at x/c =  0.0557   19
 Side 2 forced transition at x/c =  1.0000   76

   1   rms: 0.1104E+00   max: 0.8372E+00   T at   19  1
       a =  5.500      CL =  0.5955
      Cm =  0.0071     CD =  0.02159   =>   CDf =  0.00841    CDp =  0.01319

 Side 1  free  transition at x/c =  0.0496   20
 Side 2 forced transition at x/c =  1.0000   75
 idif Ue xi dudx           1  0.17791171      3.50713730E-03   50.728470    
 Uenew xinew           2  2.04398902E-03  4.02927399E-05

   2   rms: 0.3988E-01   max: -.6599E+00   D at    2  1   RLX: 0.758
       a =  5.500      CL =  0.5950
      Cm =  0.0071     CD =  0.02286   =>   CDf =  0.00836    CDp =  0.01450

 Side 1  free  transition at x/c =  0.0493   19
 Side 2 forced transition at x/c =  1.0000   76

   3   rms: 0.7062E-02   max: -.9767E-01   T at    2  2
       a =  5.500      CL =  0.5940
      Cm =  0.0070     CD =  0.02295   =>   CDf =  0.00826    CDp =  0.01470

 Side 1  free  transition at x/c =  0.0491   19
 Side 2 forced transition at x/c =  1.0000   76

   4   rms: 0.8941E-03   max: 0.8993E-02   D at    4  2
       a =  5.500      CL =  0.5939
      Cm =  0.0070     CD =  0.02296   =>   CDf =  0.00827    CDp =  0.01469

 Side 1  free  transition at x/c =  0.0491   19
 Side 2 forced transition at x/c =  1.0000   76

   5   rms: 0.4759E-05   max: 0.4542E-04   D at    4  2
       a =  5.500      CL =  0.5939
      Cm =  0.0070     CD =  0.02296   =>   CDf =  0.00828    CDp =  0.01468
 plradd ia,ip,cpol           20           0  1.27250270E-03

 Point added to stored polar  1
 Point written to save file  ht33_Re150k.base.pol                            
 Dump file unspecified or not available
 Calculating wake trajectory ...
 Calculating source influence matrix ...

 Solving BL system ...

 Side 1  free  transition at x/c =  0.0491   19
 Side 2 forced transition at x/c =  1.0000   76

   1   rms: 0.1792E+00   max: 0.6499E+00   T at   19  1
       a =  6.000      CL =  0.6429
      Cm =  0.0079     CD =  0.02954   =>   CDf =  0.00809    CDp =  0.02145

 Side 1  free  transition at x/c =  0.0459   19
 Side 2 forced transition at x/c =  1.0000   75

   2   rms: 0.8406E-01   max: 0.6061E+00   D at   20  1
       a =  6.000      CL =  0.6406
      Cm =  0.0080     CD =  0.02960   =>   CDf =  0.00729    CDp =  0.02230

 Side 1  free  transition at x/c =  0.0451   19
 Side 2 forced transition at x/c =  1.0000   75

   3   rms: 0.5023E-01   max: 0.2182E+00   D at   24  1
       a =  6.000      CL =  0.6441
      Cm =  0.0082     CD =  0.02807   =>   CDf =  0.00763    CDp =  0.02044

 Side 1  free  transition at x/c =  0.0449   19
 Side 2 forced transition at x/c =  1.0000   75

   4   rms: 0.2677E-02   max: 0.2351E-01   D at   22  1
       a =  6.000      CL =  0.6437
      Cm =  0.0082     CD =  0.02821   =>   CDf =  0.00722    CDp =  0.02099

 Side 1  free  transition at x/c =  0.0450   19
 Side 2 forced transition at x/c =  1.0000   75

   5   rms: 0.4705E-04   max: 0.2559E-03   D at   21  1
       a =  6.000      CL =  0.6437
      Cm =  0.0082     CD =  0.02821   =>   CDf =  0.00723    CDp =  0.02097
 plradd ia,ip,cpol           21           0  1.27250270E-03

 Point added to stored polar  1
 Point written to save file  ht33_Re150k.base.pol                            
 Dump file unspecified or not available
 Calculating wake trajectory ...
 Calculating source influence matrix ...

 Solving BL system ...

 Side 1  free  transition at x/c =  0.0450   19
 Side 2 forced transition at x/c =  1.0000   75

   1   rms: 0.1644E+00   max: 0.4552E+00   D at   26  1
       a =  6.500      CL =  0.6906
      Cm =  0.0096     CD =  0.03535   =>   CDf =  0.00723    CDp =  0.02812

 Side 1  free  transition at x/c =  0.0479   19
 Side 2 forced transition at x/c =  1.0000   75

   2   rms: 0.2125E+00   max: -.5780E+00   D at   83  1   RLX: 0.865
       a =  6.500      CL =  0.7151
      Cm =  0.0084     CD =  0.04281   =>   CDf =  0.00510    CDp =  0.03772

 Side 1  free  transition at x/c =  0.0478   19
 Side 2 forced transition at x/c =  1.0000   75

   3   rms: 0.3401E+00   max: 0.1342E+01   D at   20  1
       a =  6.500      CL =  0.6759
      Cm =  0.0093     CD =  0.04083   =>   CDf =  0.00726    CDp =  0.03357

 Side 1  free  transition at x/c =  0.0478   19
 Side 2 forced transition at x/c =  1.0000   75

   4   rms: 0.1191E+00   max: 0.3381E+00   D at   27  1
       a =  6.500      CL =  0.6836
      Cm =  0.0085     CD =  0.03951   =>   CDf =  0.00706    CDp =  0.03246

 Side 1  free  transition at x/c =  0.0478   19
 Side 2 forced transition at x/c =  1.0000   75

   5   rms: 0.7732E-01   max: 0.1955E+00   D at   24  1
       a =  6.500      CL =  0.6820
      Cm =  0.0087     CD =  0.03931   =>   CDf =  0.00671    CDp =  0.03259

 Side 1  free  transition at x/c =  0.0478   19
 Side 2 forced transition at x/c =  1.0000   75

   6   rms: 0.6561E-01   max: -.1622E+00   T at   19  1
       a =  6.500      CL =  0.6819
      Cm =  0.0086     CD =  0.03942   =>   CDf =  0.00665    CDp =  0.03277

 Side 1  free  transition at x/c =  0.0478   19
 Side 2 forced transition at x/c =  1.0000   75

   7   rms: 0.7101E-01   max: 0.1733E+00   D at   27  1
       a =  6.500      CL =  0.6821
      Cm =  0.0086     CD =  0.03937   =>   CDf =  0.00669    CDp =  0.03268

 Side 1  free  transition at x/c =  0.0478   19
 Side 2 forced transition at x/c =  1.0000   75

   8   rms: 0.6845E-01   max: 0.1652E+00   D at   27  1
       a =  6.500      CL =  0.6820
      Cm =  0.0086     CD =  0.03938   =>   CDf =  0.00667    CDp =  0.03271

 Side 1  free  transition at x/c =  0.0478   19
 Side 2 forced transition at x/c =  1.0000   75

   9   rms: 0.6901E-01   max: 0.1671E+00   D at   27  1
       a =  6.500      CL =  0.6820
      Cm =  0.0086     CD =  0.03938   =>   CDf =  0.00667    CDp =  0.03270

 Side 1  free  transition at x/c =  0.0478   19
 Side 2 forced transition at x/c =  1.0000   75

  10   rms: 0.6879E-01   max: 0.1664E+00   D at   27  1
       a =  6.500      CL =  0.6820
      Cm =  0.0086     CD =  0.03938   =>   CDf =  0.00667    CDp =  0.03270

 Side 1  free  transition at x/c =  0.0478   19
 Side 2 forced transition at x/c =  1.0000   75

  11   rms: 0.6885E-01   max: 0.1666E+00   D at   27  1
       a =  6.500      CL =  0.6820
      Cm =  0.0086     CD =  0.03938   =>   CDf =  0.00667    CDp =  0.03270

 Side 1  free  transition at x/c =  0.0478   19
 Side 2 forced transition at x/c =  1.0000   75

  12   rms: 0.6884E-01   max: 0.1665E+00   D at   27  1
       a =  6.500      CL =  0.6820
      Cm =  0.0086     CD =  0.03938   =>   CDf =  0.00667    CDp =  0.03270

 Side 1  free  transition at x/c =  0.0478   19
 Side 2 forced transition at x/c =  1.0000   75

  13   rms: 0.6884E-01   max: 0.1666E+00   D at   27  1
       a =  6.500      CL =  0.6820
      Cm =  0.0086     CD =  0.03938   =>   CDf =  0.00667    CDp =  0.03270

 Side 1  free  transition at x/c =  0.0478   19
 Side 2 forced transition at x/c =  1.0000   75

  14   rms: 0.6884E-01   max: 0.1665E+00   D at   27  1
       a =  6.500      CL =  0.6820
      Cm =  0.0086     CD =  0.03938   =>   CDf =  0.00667    CDp =  0.03270

 Side 1  free  transition at x/c =  0.0478   19
 Side 2 forced transition at x/c =  1.0000   75

  15   rms: 0.6884E-01   max: 0.1666E+00   D at   27  1
       a =  6.500      CL =  0.6820
      Cm =  0.0086     CD =  0.03938   =>   CDf =  0.00667    CDp =  0.03270

 Side 1  free  transition at x/c =  0.0478   19
 Side 2 forced transition at x/c =  1.0000   75

  16   rms: 0.6884E-01   max: 0.1665E+00   D at   27  1
       a =  6.500      CL =  0.6820
      Cm =  0.0086     CD =  0.03938   =>   CDf =  0.00667    CDp =  0.03270

 Side 1  free  transition at x/c =  0.0478   19
 Side 2 forced transition at x/c =  1.0000   75

  17   rms: 0.6885E-01   max: 0.1666E+00   D at   27  1
       a =  6.500      CL =  0.6820
      Cm =  0.0086     CD =  0.03938   =>   CDf =  0.00667    CDp =  0.03270

 Side 1  free  transition at x/c =  0.0478   19
 Side 2 forced transition at x/c =  1.0000   75

  18   rms: 0.6884E-01   max: 0.1666E+00   D at   27  1
       a =  6.500      CL =  0.6820
      Cm =  0.0086     CD =  0.03938   =>   CDf =  0.00667    CDp =  0.03270

 Side 1  free  transition at x/c =  0.0478   19
 Side 2 forced transition at x/c =  1.0000   75

  19   rms: 0.6886E-01   max: 0.1666E+00   D at   27  1
       a =  6.500      CL =  0.6820
      Cm =  0.0086     CD =  0.03938   =>   CDf =  0.00667    CDp =  0.03270

 Side 1  free  transition at x/c =  0.0478   19
 Side 2 forced transition at x/c =  1.0000   75

  20   rms: 0.6885E-01   max: 0.1666E+00   D at   27  1
       a =  6.500      CL =  0.6820
      Cm =  0.0086     CD =  0.03938   =>   CDf =  0.00667    CDp =  0.03270

 Side 1  free  transition at x/c =  0.0478   19
 Side 2 forced transition at x/c =  1.0000   75

  21   rms: 0.6884E-01   max: 0.1666E+00   D at   27  1
       a =  6.500      CL =  0.6820
      Cm =  0.0086     CD =  0.03938   =>   CDf =  0.00667    CDp =  0.03270

 Side 1  free  transition at x/c =  0.0478   19
 Side 2 forced transition at x/c =  1.0000   75

  22   rms: 0.6884E-01   max: 0.1666E+00   D at   27  1
       a =  6.500      CL =  0.6820
      Cm =  0.0086     CD =  0.03938   =>   CDf =  0.00667    CDp =  0.03270

 Side 1  free  transition at x/c =  0.0478   19
 Side 2 forced transition at x/c =  1.0000   75

  23   rms: 0.6884E-01   max: 0.1666E+00   D at   27  1
       a =  6.500      CL =  0.6820
      Cm =  0.0086     CD =  0.03938   =>   CDf =  0.00667    CDp =  0.03270

 Side 1  free  transition at x/c =  0.0478   19
 Side 2 forced transition at x/c =  1.0000   75

  24   rms: 0.6884E-01   max: 0.1665E+00   D at   27  1
       a =  6.500      CL =  0.6820
      Cm =  0.0086     CD =  0.03938   =>   CDf =  0.00667    CDp =  0.03270

 Side 1  free  transition at x/c =  0.0478   19
 Side 2 forced transition at x/c =  1.0000   75

  25   rms: 0.6884E-01   max: 0.1666E+00   D at   27  1
       a =  6.500      CL =  0.6820
      Cm =  0.0086     CD =  0.03938   =>   CDf =  0.00667    CDp =  0.03270

 Side 1  free  transition at x/c =  0.0478   19
 Side 2 forced transition at x/c =  1.0000   75

  26   rms: 0.6884E-01   max: 0.1665E+00   D at   27  1
       a =  6.500      CL =  0.6820
      Cm =  0.0086     CD =  0.03938   =>   CDf =  0.00667    CDp =  0.03270

 Side 1  free  transition at x/c =  0.0478   19
 Side 2 forced transition at x/c =  1.0000   75

  27   rms: 0.6884E-01   max: 0.1666E+00   D at   27  1
       a =  6.500      CL =  0.6820
      Cm =  0.0086     CD =  0.03938   =>   CDf =  0.00667    CDp =  0.03270

 Side 1  free  transition at x/c =  0.0478   19
 Side 2 forced transition at x/c =  1.0000   75

  28   rms: 0.6884E-01   max: 0.1666E+00   D at   27  1
       a =  6.500      CL =  0.6820
      Cm =  0.0086     CD =  0.03938   =>   CDf =  0.00667    CDp =  0.03270

 Side 1  free  transition at x/c =  0.0478   19
 Side 2 forced transition at x/c =  1.0000   75

  29   rms: 0.6885E-01   max: 0.1666E+00   D at   27  1
       a =  6.500      CL =  0.6820
      Cm =  0.0086     CD =  0.03938   =>   CDf =  0.00667    CDp =  0.03270

 Side 1  free  transition at x/c =  0.0478   19
 Side 2 forced transition at x/c =  1.0000   75

  30   rms: 0.6884E-01   max: 0.1666E+00   D at   27  1
       a =  6.500      CL =  0.6820
      Cm =  0.0086     CD =  0.03938   =>   CDf =  0.00667    CDp =  0.03270

 Side 1  free  transition at x/c =  0.0478   19
 Side 2 forced transition at x/c =  1.0000   75

  31   rms: 0.6884E-01   max: 0.1666E+00   D at   27  1
       a =  6.500      CL =  0.6820
      Cm =  0.0086     CD =  0.03938   =>   CDf =  0.00667    CDp =  0.03270

 Side 1  free  transition at x/c =  0.0478   19
 Side 2 forced transition at x/c =  1.0000   75

  32   rms: 0.6885E-01   max: 0.1666E+00   D at   27  1
       a =  6.500      CL =  0.6820
      Cm =  0.0086     CD =  0.03938   =>   CDf =  0.00667    CDp =  0.03270

 Side 1  free  transition at x/c =  0.0478   19
 Side 2 forced transition at x/c =  1.0000   75

  33   rms: 0.6884E-01   max: 0.1666E+00   D at   27  1
       a =  6.500      CL =  0.6820
      Cm =  0.0086     CD =  0.03938   =>   CDf =  0.00667    CDp =  0.03270

 Side 1  free  transition at x/c =  0.0478   19
 Side 2 forced transition at x/c =  1.0000   75

  34   rms: 0.6884E-01   max: 0.1665E+00   D at   27  1
       a =  6.500      CL =  0.6820
      Cm =  0.0086     CD =  0.03938   =>   CDf =  0.00667    CDp =  0.03270

 Side 1  free  transition at x/c =  0.0478   19
 Side 2 forced transition at x/c =  1.0000   75

  35   rms: 0.6885E-01   max: 0.1666E+00   D at   27  1
       a =  6.500      CL =  0.6820
      Cm =  0.0086     CD =  0.03938   =>   CDf =  0.00667    CDp =  0.03270

 Side 1  free  transition at x/c =  0.0478   19
 Side 2 forced transition at x/c =  1.0000   75

  36   rms: 0.6884E-01   max: 0.1665E+00   D at   27  1
       a =  6.500      CL =  0.6820
      Cm =  0.0086     CD =  0.03938   =>   CDf =  0.00667    CDp =  0.03270

 Side 1  free  transition at x/c =  0.0478   19
 Side 2 forced transition at x/c =  1.0000   75

  37   rms: 0.6885E-01   max: 0.1666E+00   D at   27  1
       a =  6.500      CL =  0.6820
      Cm =  0.0086     CD =  0.03938   =>   CDf =  0.00667    CDp =  0.03270

 Side 1  free  transition at x/c =  0.0478   19
 Side 2 forced transition at x/c =  1.0000   75

  38   rms: 0.6886E-01   max: 0.1666E+00   D at   27  1
       a =  6.500      CL =  0.6820
      Cm =  0.0086     CD =  0.03938   =>   CDf =  0.00667    CDp =  0.03270

 Side 1  free  transition at x/c =  0.0478   19
 Side 2 forced transition at x/c =  1.0000   75

  39   rms: 0.6886E-01   max: 0.1666E+00   D at   27  1
       a =  6.500      CL =  0.6820
      Cm =  0.0086     CD =  0.03938   =>   CDf =  0.00667    CDp =  0.03270

 Side 1  free  transition at x/c =  0.0478   19
 Side 2 forced transition at x/c =  1.0000   75

  40   rms: 0.6884E-01   max: 0.1666E+00   D at   27  1
       a =  6.500      CL =  0.6820
      Cm =  0.0086     CD =  0.03938   =>   CDf =  0.00667    CDp =  0.03270

 Side 1  free  transition at x/c =  0.0478   19
 Side 2 forced transition at x/c =  1.0000   75

  41   rms: 0.6884E-01   max: 0.1665E+00   D at   27  1
       a =  6.500      CL =  0.6820
      Cm =  0.0086     CD =  0.03938   =>   CDf =  0.00667    CDp =  0.03270

 Side 1  free  transition at x/c =  0.0478   19
 Side 2 forced transition at x/c =  1.0000   75

  42   rms: 0.6884E-01   max: 0.1666E+00   D at   27  1
       a =  6.500      CL =  0.6820
      Cm =  0.0086     CD =  0.03938   =>   CDf =  0.00667    CDp =  0.03270

 Side 1  free  transition at x/c =  0.0478   19
 Side 2 forced transition at x/c =  1.0000   75

  43   rms: 0.6884E-01   max: 0.1666E+00   D at   27  1
       a =  6.500      CL =  0.6820
      Cm =  0.0086     CD =  0.03938   =>   CDf =  0.00667    CDp =  0.03270

 Side 1  free  transition at x/c =  0.0478   19
 Side 2 forced transition at x/c =  1.0000   75

  44   rms: 0.6884E-01   max: 0.1665E+00   D at   27  1
       a =  6.500      CL =  0.6820
      Cm =  0.0086     CD =  0.03938   =>   CDf =  0.00667    CDp =  0.03270

 Side 1  free  transition at x/c =  0.0478   19
 Side 2 forced transition at x/c =  1.0000   75

  45   rms: 0.6885E-01   max: 0.1666E+00   D at   27  1
       a =  6.500      CL =  0.6820
      Cm =  0.0086     CD =  0.03938   =>   CDf =  0.00667    CDp =  0.03270

 Side 1  free  transition at x/c =  0.0478   19
 Side 2 forced transition at x/c =  1.0000   75

  46   rms: 0.6885E-01   max: 0.1666E+00   D at   27  1
       a =  6.500      CL =  0.6820
      Cm =  0.0086     CD =  0.03938   =>   CDf =  0.00667    CDp =  0.03270

 Side 1  free  transition at x/c =  0.0478   19
 Side 2 forced transition at x/c =  1.0000   75

  47   rms: 0.6884E-01   max: 0.1666E+00   D at   27  1
       a =  6.500      CL =  0.6820
      Cm =  0.0086     CD =  0.03938   =>   CDf =  0.00667    CDp =  0.03270

 Side 1  free  transition at x/c =  0.0478   19
 Side 2 forced transition at x/c =  1.0000   75

  48   rms: 0.6884E-01   max: 0.1666E+00   D at   27  1
       a =  6.500      CL =  0.6820
      Cm =  0.0086     CD =  0.03938   =>   CDf =  0.00667    CDp =  0.03270

 Side 1  free  transition at x/c =  0.0478   19
 Side 2 forced transition at x/c =  1.0000   75

  49   rms: 0.6884E-01   max: 0.1666E+00   D at   27  1
       a =  6.500      CL =  0.6820
      Cm =  0.0086     CD =  0.03938   =>   CDf =  0.00667    CDp =  0.03270

 Side 1  free  transition at x/c =  0.0478   19
 Side 2 forced transition at x/c =  1.0000   75

  50   rms: 0.6886E-01   max: 0.1666E+00   D at   27  1
       a =  6.500      CL =  0.6820
      Cm =  0.0086     CD =  0.03938   =>   CDf =  0.00667    CDp =  0.03270

 Side 1  free  transition at x/c =  0.0478   19
 Side 2 forced transition at x/c =  1.0000   75

  51   rms: 0.6884E-01   max: 0.1666E+00   D at   27  1
       a =  6.500      CL =  0.6820
      Cm =  0.0086     CD =  0.03938   =>   CDf =  0.00667    CDp =  0.03270

 Side 1  free  transition at x/c =  0.0478   19
 Side 2 forced transition at x/c =  1.0000   75

  52   rms: 0.6884E-01   max: 0.1666E+00   D at   27  1
       a =  6.500      CL =  0.6820
      Cm =  0.0086     CD =  0.03938   =>   CDf =  0.00667    CDp =  0.03270

 Side 1  free  transition at x/c =  0.0478   19
 Side 2 forced transition at x/c =  1.0000   75

  53   rms: 0.6884E-01   max: 0.1666E+00   D at   27  1
       a =  6.500      CL =  0.6820
      Cm =  0.0086     CD =  0.03938   =>   CDf =  0.00667    CDp =  0.03270

 Side 1  free  transition at x/c =  0.0478   19
 Side 2 forced transition at x/c =  1.0000   75

  54   rms: 0.6884E-01   max: 0.1665E+00   D at   27  1
       a =  6.500      CL =  0.6820
      Cm =  0.0086     CD =  0.03938   =>   CDf =  0.00667    CDp =  0.03270

 Side 1  free  transition at x/c =  0.0478   19
 Side 2 forced transition at x/c =  1.0000   75

  55   rms: 0.6884E-01   max: 0.1665E+00   D at   27  1
       a =  6.500      CL =  0.6820
      Cm =  0.0086     CD =  0.03938   =>   CDf =  0.00667    CDp =  0.03270

 Side 1  free  transition at x/c =  0.0478   19
 Side 2 forced transition at x/c =  1.0000   75

  56   rms: 0.6885E-01   max: 0.1666E+00   D at   27  1
       a =  6.500      CL =  0.6820
      Cm =  0.0086     CD =  0.03938   =>   CDf =  0.00667    CDp =  0.03270

 Side 1  free  transition at x/c =  0.0478   19
 Side 2 forced transition at x/c =  1.0000   75

  57   rms: 0.6884E-01   max: 0.1665E+00   D at   27  1
       a =  6.500      CL =  0.6820
      Cm =  0.0086     CD =  0.03938   =>   CDf =  0.00667    CDp =  0.03270

 Side 1  free  transition at x/c =  0.0478   19
 Side 2 forced transition at x/c =  1.0000   75

  58   rms: 0.6884E-01   max: 0.1665E+00   D at   27  1
       a =  6.500      CL =  0.6820
      Cm =  0.0086     CD =  0.03938   =>   CDf =  0.00667    CDp =  0.03270

 Side 1  free  transition at x/c =  0.0478   19
 Side 2 forced transition at x/c =  1.0000   75

  59   rms: 0.6884E-01   max: 0.1665E+00   D at   27  1
       a =  6.500      CL =  0.6820
      Cm =  0.0086     CD =  0.03938   =>   CDf =  0.00667    CDp =  0.03270

 Side 1  free  transition at x/c =  0.0478   19
 Side 2 forced transition at x/c =  1.0000   75

  60   rms: 0.6884E-01   max: 0.1666E+00   D at   27  1
       a =  6.500      CL =  0.6820
      Cm =  0.0086     CD =  0.03938   =>   CDf =  0.00667    CDp =  0.03270

 Side 1  free  transition at x/c =  0.0478   19
 Side 2 forced transition at x/c =  1.0000   75

  61   rms: 0.6884E-01   max: 0.1666E+00   D at   27  1
       a =  6.500      CL =  0.6820
      Cm =  0.0086     CD =  0.03938   =>   CDf =  0.00667    CDp =  0.03270

 Side 1  free  transition at x/c =  0.0478   19
 Side 2 forced transition at x/c =  1.0000   75

  62   rms: 0.6884E-01   max: 0.1665E+00   D at   27  1
       a =  6.500      CL =  0.6820
      Cm =  0.0086     CD =  0.03938   =>   CDf =  0.00667    CDp =  0.03270

 Side 1  free  transition at x/c =  0.0478   19
 Side 2 forced transition at x/c =  1.0000   75

  63   rms: 0.6884E-01   max: 0.1666E+00   D at   27  1
       a =  6.500      CL =  0.6820
      Cm =  0.0086     CD =  0.03938   =>   CDf =  0.00667    CDp =  0.03270

 Side 1  free  transition at x/c =  0.0478   19
 Side 2 forced transition at x/c =  1.0000   75

  64   rms: 0.6884E-01   max: 0.1666E+00   D at   27  1
       a =  6.500      CL =  0.6820
      Cm =  0.0086     CD =  0.03938   =>   CDf =  0.00667    CDp =  0.03270

 Side 1  free  transition at x/c =  0.0478   19
 Side 2 forced transition at x/c =  1.0000   75

  65   rms: 0.6885E-01   max: 0.1666E+00   D at   27  1
       a =  6.500      CL =  0.6820
      Cm =  0.0086     CD =  0.03938   =>   CDf =  0.00667    CDp =  0.03270

 Side 1  free  transition at x/c =  0.0478   19
 Side 2 forced transition at x/c =  1.0000   75

  66   rms: 0.6884E-01   max: 0.1666E+00   D at   27  1
       a =  6.500      CL =  0.6820
      Cm =  0.0086     CD =  0.03938   =>   CDf =  0.00667    CDp =  0.03270

 Side 1  free  transition at x/c =  0.0478   19
 Side 2 forced transition at x/c =  1.0000   75

  67   rms: 0.6884E-01   max: 0.1666E+00   D at   27  1
       a =  6.500      CL =  0.6820
      Cm =  0.0086     CD =  0.03938   =>   CDf =  0.00667    CDp =  0.03270

 Side 1  free  transition at x/c =  0.0478   19
 Side 2 forced transition at x/c =  1.0000   75

  68   rms: 0.6884E-01   max: 0.1666E+00   D at   27  1
       a =  6.500      CL =  0.6820
      Cm =  0.0086     CD =  0.03938   =>   CDf =  0.00667    CDp =  0.03270

 Side 1  free  transition at x/c =  0.0478   19
 Side 2 forced transition at x/c =  1.0000   75

  69   rms: 0.6886E-01   max: 0.1666E+00   D at   27  1
       a =  6.500      CL =  0.6820
      Cm =  0.0086     CD =  0.03938   =>   CDf =  0.00667    CDp =  0.03270

 Side 1  free  transition at x/c =  0.0478   19
 Side 2 forced transition at x/c =  1.0000   75

  70   rms: 0.6885E-01   max: 0.1666E+00   D at   27  1
       a =  6.500      CL =  0.6820
      Cm =  0.0086     CD =  0.03938   =>   CDf =  0.00667    CDp =  0.03270

 Side 1  free  transition at x/c =  0.0478   19
 Side 2 forced transition at x/c =  1.0000   75

  71   rms: 0.6885E-01   max: 0.1666E+00   D at   27  1
       a =  6.500      CL =  0.6820
      Cm =  0.0086     CD =  0.03938   =>   CDf =  0.00667    CDp =  0.03270

 Side 1  free  transition at x/c =  0.0478   19
 Side 2 forced transition at x/c =  1.0000   75

  72   rms: 0.6884E-01   max: 0.1665E+00   D at   27  1
       a =  6.500      CL =  0.6820
      Cm =  0.0086     CD =  0.03938   =>   CDf =  0.00667    CDp =  0.03270

 Side 1  free  transition at x/c =  0.0478   19
 Side 2 forced transition at x/c =  1.0000   75

  73   rms: 0.6885E-01   max: 0.1666E+00   D at   27  1
       a =  6.500      CL =  0.6820
      Cm =  0.0086     CD =  0.03938   =>   CDf =  0.00667    CDp =  0.03270

 Side 1  free  transition at x/c =  0.0478   19
 Side 2 forced transition at x/c =  1.0000   75

  74   rms: 0.6884E-01   max: 0.1666E+00   D at   27  1
       a =  6.500      CL =  0.6820
      Cm =  0.0086     CD =  0.03938   =>   CDf =  0.00667    CDp =  0.03270

 Side 1  free  transition at x/c =  0.0478   19
 Side 2 forced transition at x/c =  1.0000   75

  75   rms: 0.6884E-01   max: 0.1665E+00   D at   27  1
       a =  6.500      CL =  0.6820
      Cm =  0.0086     CD =  0.03938   =>   CDf =  0.00667    CDp =  0.03270

 Side 1  free  transition at x/c =  0.0478   19
 Side 2 forced transition at x/c =  1.0000   75

  76   rms: 0.6884E-01   max: 0.1666E+00   D at   27  1
       a =  6.500      CL =  0.6820
      Cm =  0.0086     CD =  0.03938   =>   CDf =  0.00667    CDp =  0.03270

 Side 1  free  transition at x/c =  0.0478   19
 Side 2 forced transition at x/c =  1.0000   75

  77   rms: 0.6884E-01   max: 0.1666E+00   D at   27  1
       a =  6.500      CL =  0.6820
      Cm =  0.0086     CD =  0.03938   =>   CDf =  0.00667    CDp =  0.03270

 Side 1  free  transition at x/c =  0.0478   19
 Side 2 forced transition at x/c =  1.0000   75

  78   rms: 0.6884E-01   max: 0.1666E+00   D at   27  1
       a =  6.500      CL =  0.6820
      Cm =  0.0086     CD =  0.03938   =>   CDf =  0.00667    CDp =  0.03270

 Side 1  free  transition at x/c =  0.0478   19
 Side 2 forced transition at x/c =  1.0000   75

  79   rms: 0.6884E-01   max: 0.1666E+00   D at   27  1
       a =  6.500      CL =  0.6820
      Cm =  0.0086     CD =  0.03938   =>   CDf =  0.00667    CDp =  0.03270

 Side 1  free  transition at x/c =  0.0478   19
 Side 2 forced transition at x/c =  1.0000   75

  80   rms: 0.6885E-01   max: 0.1666E+00   D at   27  1
       a =  6.500      CL =  0.6820
      Cm =  0.0086     CD =  0.03938   =>   CDf =  0.00667    CDp =  0.03270

 Side 1  free  transition at x/c =  0.0478   19
 Side 2 forced transition at x/c =  1.0000   75

  81   rms: 0.6884E-01   max: 0.1665E+00   D at   27  1
       a =  6.500      CL =  0.6820
      Cm =  0.0086     CD =  0.03938   =>   CDf =  0.00667    CDp =  0.03270

 Side 1  free  transition at x/c =  0.0478   19
[...]
       a = 10.750      CL =  0.3732
      Cm = -0.0553     CD =*********   =>   CDf =  0.00402    CDp =*********

 Side 1  free  transition at x/c =  0.0586   17
 Side 2 forced transition at x/c =  1.0000   78

  86   rms: 0.1421E+09   max: -.1204E+10   C at   99  2   RLX: 0.000
       a = 10.750      CL =  0.3731
      Cm = -0.0553     CD =*********   =>   CDf =  0.00402    CDp =*********

 Side 1  free  transition at x/c =  0.0586   17
 Side 2 forced transition at x/c =  1.0000   78

  87   rms: 0.2643E+09   max: 0.2240E+10   C at   99  2   RLX: 0.000
       a = 10.750      CL =  0.3731
      Cm = -0.0553     CD =*********   =>   CDf =  0.00402    CDp =*********

 Side 1  free  transition at x/c =  0.0586   17
 Side 2 forced transition at x/c =  1.0000   78

  88   rms: 0.3366E+08   max: -.2852E+09   C at   99  2   RLX: 0.000
       a = 10.750      CL =  0.3731
      Cm = -0.0553     CD =*********   =>   CDf =  0.00402    CDp =*********

 Side 1  free  transition at x/c =  0.0586   17
 Side 2 forced transition at x/c =  1.0000   78

  89   rms: 0.2535E+10   max: -.2148E+11   C at   99  2   RLX: 0.000
       a = 10.750      CL =  0.3731
      Cm = -0.0553     CD =*********   =>   CDf =  0.00402    CDp =*********

 Side 1  free  transition at x/c =  0.0586   17
 Side 2 forced transition at x/c =  1.0000   78

  90   rms: 0.2243E+08   max: 0.1900E+09   C at   99  2   RLX: 0.000
       a = 10.750      CL =  0.3732
      Cm = -0.0553     CD =*********   =>   CDf =  0.00402    CDp =*********

 Side 1  free  transition at x/c =  0.0586   17
 Side 2 forced transition at x/c =  1.0000   78

  91   rms: 0.1713E+10   max: 0.1452E+11   C at   99  2   RLX: 0.000
       a = 10.750      CL =  0.3732
      Cm = -0.0553     CD =*********   =>   CDf =  0.00402    CDp =*********

 Side 1  free  transition at x/c =  0.0586   17
 Side 2 forced transition at x/c =  1.0000   78

  92   rms: 0.4056E+08   max: -.3437E+09   C at   99  2   RLX: 0.000
       a = 10.750      CL =  0.3731
      Cm = -0.0553     CD =*********   =>   CDf =  0.00402    CDp =*********

 Side 1  free  transition at x/c =  0.0586   17
 Side 2 forced transition at x/c =  1.0000   78

  93   rms: 0.6732E+08   max: 0.5704E+09   C at   99  2   RLX: 0.000
       a = 10.750      CL =  0.3731
      Cm = -0.0553     CD =*********   =>   CDf =  0.00402    CDp =*********

 Side 1  free  transition at x/c =  0.0586   17
 Side 2 forced transition at x/c =  1.0000   78

  94   rms: 0.1763E+09   max: 0.1494E+10   C at   99  2   RLX: 0.000
       a = 10.750      CL =  0.3732
      Cm = -0.0553     CD =*********   =>   CDf =  0.00402    CDp =*********

 Side 1  free  transition at x/c =  0.0586   17
 Side 2 forced transition at x/c =  1.0000   78

  95   rms: 0.9819E+07   max: -.8316E+08   C at   99  2   RLX: 0.000
       a = 10.750      CL =  0.3731
      Cm = -0.0553     CD =*********   =>   CDf =  0.00402    CDp =*********

 Side 1  free  transition at x/c =  0.0586   17
 Side 2 forced transition at x/c =  1.0000   78

  96   rms: 0.7808E+08   max: -.6616E+09   C at   99  2   RLX: 0.000
       a = 10.750      CL =  0.3731
      Cm = -0.0553     CD =*********   =>   CDf =  0.00402    CDp =*********

 Side 1  free  transition at x/c =  0.0586   17
 Side 2 forced transition at x/c =  1.0000   78

  97   rms: 0.1302E+10   max: 0.1103E+11   C at   99  2   RLX: 0.000
       a = 10.750      CL =  0.3731
      Cm = -0.0553     CD =*********   =>   CDf =  0.00402    CDp =*********

 Side 1  free  transition at x/c =  0.0586   17
 Side 2 forced transition at x/c =  1.0000   78

  98   rms: 0.1062E+09   max: -.8998E+09   C at   99  2   RLX: 0.000
       a = 10.750      CL =  0.3731
      Cm = -0.0553     CD =*********   =>   CDf =  0.00402    CDp =*********

 Side 1  free  transition at x/c =  0.0586   17
 Side 2 forced transition at x/c =  1.0000   78

  99   rms: 0.4849E+09   max: 0.4109E+10   C at   99  2   RLX: 0.000
       a = 10.750      CL =  0.3731
      Cm = -0.0553     CD =*********   =>   CDf =  0.00402    CDp =*********

 Side 1  free  transition at x/c =  0.0586   17
 Side 2 forced transition at x/c =  1.0000   78

 100   rms: 0.2150E+07   max: 0.1816E+08   C at   99  2   RLX: 0.000
       a = 10.750      CL =  0.3732
      Cm = -0.0553     CD =*********   =>   CDf =  0.00402    CDp =*********

 Side 1  free  transition at x/c =  0.0586   17
 Side 2 forced transition at x/c =  1.0000   78

 101   rms: 0.1317E+09   max: -.1116E+10   C at   99  2   RLX: 0.000
       a = 10.750      CL =  0.3732
      Cm = -0.0553     CD =*********   =>   CDf =  0.00402    CDp =*********

 Side 1  free  transition at x/c =  0.0586   17
 Side 2 forced transition at x/c =  1.0000   78

 102   rms: 0.7592E+08   max: 0.6432E+09   C at   99  2   RLX: 0.000
       a = 10.750      CL =  0.3732
      Cm = -0.0553     CD =*********   =>   CDf =  0.00402    CDp =*********

 Side 1  free  transition at x/c =  0.0586   17
 Side 2 forced transition at x/c =  1.0000   78

 103   rms: 0.1276E+09   max: -.1081E+10   C at   99  2   RLX: 0.000
       a = 10.750      CL =  0.3732
      Cm = -0.0553     CD =*********   =>   CDf =  0.00402    CDp =*********

 Side 1  free  transition at x/c =  0.0586   17
 Side 2 forced transition at x/c =  1.0000   78

 104   rms: 0.5368E+08   max: 0.4548E+09   C at   99  2   RLX: 0.000
       a = 10.750      CL =  0.3732
      Cm = -0.0553     CD =*********   =>   CDf =  0.00402    CDp =*********

 Side 1  free  transition at x/c =  0.0586   17
 Side 2 forced transition at x/c =  1.0000   78

 105   rms: 0.5537E+08   max: 0.4691E+09   C at   99  2   RLX: 0.000
       a = 10.750      CL =  0.3732
      Cm = -0.0553     CD =*********   =>   CDf =  0.00402    CDp =*********

 Side 1  free  transition at x/c =  0.0586   17
 Side 2 forced transition at x/c =  1.0000   78

 106   rms: 0.5701E+08   max: -.4831E+09   C at   99  2   RLX: 0.000
       a = 10.750      CL =  0.3732
      Cm = -0.0553     CD =*********   =>   CDf =  0.00402    CDp =*********

 Side 1  free  transition at x/c =  0.0586   17
 Side 2 forced transition at x/c =  1.0000   78

 107   rms: 0.4858E+08   max: 0.4116E+09   C at   99  2   RLX: 0.000
       a = 10.750      CL =  0.3732
      Cm = -0.0553     CD =*********   =>   CDf =  0.00402    CDp =*********

 Side 1  free  transition at x/c =  0.0586   17
 Side 2 forced transition at x/c =  1.0000   78

 108   rms: 0.1510E+09   max: 0.1280E+10   C at   99  2   RLX: 0.000
       a = 10.750      CL =  0.3732
      Cm = -0.0553     CD =*********   =>   CDf =  0.00402    CDp =*********

 Side 1  free  transition at x/c =  0.0586   17
 Side 2 forced transition at x/c =  1.0000   78

 109   rms: 0.1401E+09   max: -.1187E+10   C at   99  2   RLX: 0.000
       a = 10.750      CL =  0.3732
      Cm = -0.0553     CD =*********   =>   CDf =  0.00402    CDp =*********

 Side 1  free  transition at x/c =  0.0586   17
 Side 2 forced transition at x/c =  1.0000   78

 110   rms: 0.2979E+09   max: 0.2524E+10   C at   99  2   RLX: 0.000
       a = 10.750      CL =  0.3732
      Cm = -0.0553     CD =*********   =>   CDf =  0.00402    CDp =*********

 Side 1  free  transition at x/c =  0.0586   17
 Side 2 forced transition at x/c =  1.0000   78

 111   rms: 0.1970E+09   max: -.1669E+10   C at   99  2   RLX: 0.000
       a = 10.750      CL =  0.3732
      Cm = -0.0553     CD =*********   =>   CDf =  0.00402    CDp =*********

 Side 1  free  transition at x/c =  0.0586   17
 Side 2 forced transition at x/c =  1.0000   78

 112   rms: 0.1498E+09   max: 0.1269E+10   C at   99  2   RLX: 0.000
       a = 10.750      CL =  0.3732
      Cm = -0.0553     CD =*********   =>   CDf =  0.00402    CDp =*********

 Side 1  free  transition at x/c =  0.0586   17
 Side 2 forced transition at x/c =  1.0000   78

 113   rms: 0.1845E+09   max: 0.1563E+10   C at   99  2   RLX: 0.000
       a = 10.750      CL =  0.3732
      Cm = -0.0553     CD =*********   =>   CDf =  0.00402    CDp =*********

 Side 1  free  transition at x/c =  0.0586   17
 Side 2 forced transition at x/c =  1.0000   78

 114   rms: 0.1071E+09   max: -.9071E+09   C at   99  2   RLX: 0.000
       a = 10.750      CL =  0.3732
      Cm = -0.0553     CD =*********   =>   CDf =  0.00402    CDp =*********

 Side 1  free  transition at x/c =  0.0586   17
 Side 2 forced transition at x/c =  1.0000   78

 115   rms: 0.4442E+08   max: -.3764E+09   C at   99  2   RLX: 0.000
       a = 10.750      CL =  0.3732
      Cm = -0.0553     CD =*********   =>   CDf =  0.00402    CDp =*********

 Side 1  free  transition at x/c =  0.0586   17
 Side 2 forced transition at x/c =  1.0000   78

 116   rms: 0.3148E+07   max: -.2665E+08   C at   99  2   RLX: 0.000
       a = 10.750      CL =  0.3732
      Cm = -0.0553     CD =*********   =>   CDf =  0.00402    CDp =*********

 Side 1  free  transition at x/c =  0.0586   17
 Side 2 forced transition at x/c =  1.0000   78

 117   rms: 0.5154E+08   max: -.4367E+09   C at   99  2   RLX: 0.000
       a = 10.750      CL =  0.3732
      Cm = -0.0553     CD =*********   =>   CDf =  0.00402    CDp =*********

 Side 1  free  transition at x/c =  0.0586   17
 Side 2 forced transition at x/c =  1.0000   78

 118   rms: 0.9010E+08   max: 0.7635E+09   C at   99  2   RLX: 0.000
       a = 10.750      CL =  0.3732
      Cm = -0.0553     CD =*********   =>   CDf =  0.00402    CDp =*********

 Side 1  free  transition at x/c =  0.0586   17
 Side 2 forced transition at x/c =  1.0000   78

 119   rms: 0.7819E+08   max: -.6626E+09   C at   99  2   RLX: 0.000
       a = 10.750      CL =  0.3732
      Cm = -0.0553     CD =*********   =>   CDf =  0.00402    CDp =*********

 Side 1  free  transition at x/c =  0.0586   17
 Side 2 forced transition at x/c =  1.0000   78

 120   rms: 0.1064E+09   max: -.9016E+09   C at   99  2   RLX: 0.000
       a = 10.750      CL =  0.3731
      Cm = -0.0553     CD =*********   =>   CDf =  0.00402    CDp =*********

 Side 1  free  transition at x/c =  0.0586   17
 Side 2 forced transition at x/c =  1.0000   78

 121   rms: 0.1068E+08   max: 0.9048E+08   C at   99  2   RLX: 0.000
       a = 10.750      CL =  0.3732
      Cm = -0.0553     CD =*********   =>   CDf =  0.00402    CDp =*********

 Side 1  free  transition at x/c =  0.0586   17
 Side 2 forced transition at x/c =  1.0000   78

 122   rms: 0.1573E+09   max: 0.1333E+10   C at   99  2   RLX: 0.000
       a = 10.750      CL =  0.3732
      Cm = -0.0553     CD =*********   =>   CDf =  0.00402    CDp =*********

 Side 1  free  transition at x/c =  0.0586   17
 Side 2 forced transition at x/c =  1.0000   78

 123   rms: 0.3263E+07   max: -.2755E+08   C at   99  2   RLX: 0.000
       a = 10.750      CL =  0.3731
      Cm = -0.0553     CD =*********   =>   CDf =  0.00402    CDp =*********

 Side 1  free  transition at x/c =  0.0586   17
 Side 2 forced transition at x/c =  1.0000   78

 124   rms: 0.8418E+07   max: -.7122E+08   C at   99  2   RLX: 0.000
       a = 10.750      CL =  0.3731
      Cm = -0.0553     CD =*********   =>   CDf =  0.00402    CDp =*********

 Side 1  free  transition at x/c =  0.0586   17
 Side 2 forced transition at x/c =  1.0000   78

 125   rms: 0.5550E+08   max: -.4704E+09   C at   99  2   RLX: 0.000
       a = 10.750      CL =  0.3731
      Cm = -0.0553     CD =*********   =>   CDf =  0.00402    CDp =*********

 Side 1  free  transition at x/c =  0.0586   17
 Side 2 forced transition at x/c =  1.0000   78

 126   rms: 0.1572E+08   max: 0.1332E+09   C at   99  2   RLX: 0.000
       a = 10.750      CL =  0.3731
      Cm = -0.0553     CD =*********   =>   CDf =  0.00402    CDp =*********

 Side 1  free  transition at x/c =  0.0586   17
 Side 2 forced transition at x/c =  1.0000   78

 127   rms: 0.1292E+10   max: -.1095E+11   C at   99  2   RLX: 0.000
       a = 10.750      CL =  0.3731
      Cm = -0.0553     CD =*********   =>   CDf =  0.00402    CDp =*********

 Side 1  free  transition at x/c =  0.0586   17
 Side 2 forced transition at x/c =  1.0000   78

 128   rms: 0.2003E+09   max: 0.1698E+10   C at   99  2   RLX: 0.000
       a = 10.750      CL =  0.3731
      Cm = -0.0553     CD =*********   =>   CDf =  0.00402    CDp =*********

 Side 1  free  transition at x/c =  0.0586   17
 Side 2 forced transition at x/c =  1.0000   78

 129   rms: 0.1325E+09   max: -.1123E+10   C at   99  2   RLX: 0.000
       a = 10.750      CL =  0.3731
      Cm = -0.0553     CD =*********   =>   CDf =  0.00402    CDp =*********

 Side 1  free  transition at x/c =  0.0586   17
 Side 2 forced transition at x/c =  1.0000   78

 130   rms: 0.5770E+08   max: -.4889E+09   C at   99  2   RLX: 0.000
       a = 10.750      CL =  0.3731
      Cm = -0.0553     CD =*********   =>   CDf =  0.00402    CDp =*********

 Side 1  free  transition at x/c =  0.0586   17
 Side 2 forced transition at x/c =  1.0000   78

 131   rms: 0.1262E+08   max: -.1069E+09   C at   99  2   RLX: 0.000
       a = 10.750      CL =  0.3731
      Cm = -0.0553     CD =*********   =>   CDf =  0.00402    CDp =*********

 Side 1  free  transition at x/c =  0.0586   17
 Side 2 forced transition at x/c =  1.0000   78

 132   rms: 0.8112E+08   max: 0.6874E+09   C at   99  2   RLX: 0.000
       a = 10.750      CL =  0.3731
      Cm = -0.0553     CD =*********   =>   CDf =  0.00402    CDp =*********

 Side 1  free  transition at x/c =  0.0586   17
 Side 2 forced transition at x/c =  1.0000   78

 133   rms: 0.1448E+09   max: 0.1227E+10   C at   99  2   RLX: 0.000
       a = 10.750      CL =  0.3731
      Cm = -0.0553     CD =*********   =>   CDf =  0.00402    CDp =*********

 Side 1  free  transition at x/c =  0.0586   17
 Side 2 forced transition at x/c =  1.0000   78

 134   rms: 0.8020E+08   max: 0.6797E+09   C at   99  2   RLX: 0.000
       a = 10.750      CL =  0.3731
      Cm = -0.0553     CD =*********   =>   CDf =  0.00402    CDp =*********

 Side 1  free  transition at x/c =  0.0586   17
 Side 2 forced transition at x/c =  1.0000   78

 135   rms: 0.1161E+09   max: -.9842E+09   C at   99  2   RLX: 0.000
       a = 10.750      CL =  0.3731
      Cm = -0.0553     CD =*********   =>   CDf =  0.00402    CDp =*********

 Side 1  free  transition at x/c =  0.0586   17
 Side 2 forced transition at x/c =  1.0000   78

 136   rms: 0.3573E+07   max: 0.3023E+08   C at   99  2   RLX: 0.000
       a = 10.750      CL =  0.3731
      Cm = -0.0553     CD =*********   =>   CDf =  0.00402    CDp =*********

 Side 1  free  transition at x/c =  0.0586   17
 Side 2 forced transition at x/c =  1.0000   78

 137   rms: 0.6723E+08   max: -.5697E+09   C at   99  2   RLX: 0.000
       a = 10.750      CL =  0.3731
      Cm = -0.0553     CD =*********   =>   CDf =  0.00402    CDp =*********

 Side 1  free  transition at x/c =  0.0586   17
 Side 2 forced transition at x/c =  1.0000   78

 138   rms: 0.1172E+08   max: -.9932E+08   C at   99  2   RLX: 0.000
       a = 10.750      CL =  0.3731
      Cm = -0.0553     CD =*********   =>   CDf =  0.00402    CDp =*********

 Side 1  free  transition at x/c =  0.0586   17
 Side 2 forced transition at x/c =  1.0000   78

 139   rms: 0.6966E+08   max: 0.5902E+09   C at   99  2   RLX: 0.000
       a = 10.750      CL =  0.3731
      Cm = -0.0553     CD =*********   =>   CDf =  0.00402    CDp =*********

 Side 1  free  transition at x/c =  0.0586   17
 Side 2 forced transition at x/c =  1.0000   78

 140   rms: 0.7278E+08   max: 0.6167E+09   C at   99  2   RLX: 0.000
       a = 10.750      CL =  0.3731
      Cm = -0.0553     CD =*********   =>   CDf =  0.00402    CDp =*********

 Side 1  free  transition at x/c =  0.0586   17
 Side 2 forced transition at x/c =  1.0000   78

 141   rms: 0.1466E+09   max: 0.1242E+10   C at   99  2   RLX: 0.000
       a = 10.750      CL =  0.3731
      Cm = -0.0553     CD =*********   =>   CDf =  0.00402    CDp =*********

 Side 1  free  transition at x/c =  0.0586   17
 Side 2 forced transition at x/c =  1.0000   78

 142   rms: 0.4974E+08   max: 0.4215E+09   C at   99  2   RLX: 0.000
       a = 10.750      CL =  0.3731
      Cm = -0.0553     CD =*********   =>   CDf =  0.00402    CDp =*********

 Side 1  free  transition at x/c =  0.0586   17
 Side 2 forced transition at x/c =  1.0000   78

 143   rms: 0.2329E+07   max: 0.1954E+08   C at   99  2   RLX: 0.000
       a = 10.750      CL =  0.3732
      Cm = -0.0553     CD =*********   =>   CDf =  0.00402    CDp =*********

 Side 1  free  transition at x/c =  0.0586   17
 Side 2 forced transition at x/c =  1.0000   78

 144   rms: 0.3419E+09   max: 0.2897E+10   C at   99  2   RLX: 0.000
       a = 10.750      CL =  0.3732
      Cm = -0.0553     CD =*********   =>   CDf =  0.00402    CDp =*********

 Side 1  free  transition at x/c =  0.0586   17
 Side 2 forced transition at x/c =  1.0000   78

 145   rms: 0.4569E+08   max: -.3872E+09   C at   99  2   RLX: 0.000
       a = 10.750      CL =  0.3732
      Cm = -0.0553     CD =*********   =>   CDf =  0.00402    CDp =*********

 Side 1  free  transition at x/c =  0.0586   17
 Side 2 forced transition at x/c =  1.0000   78

 146   rms: 0.1002E+08   max: 0.8491E+08   C at   99  2   RLX: 0.000
       a = 10.750      CL =  0.3732
      Cm = -0.0553     CD =*********   =>   CDf =  0.00402    CDp =*********

 Side 1  free  transition at x/c =  0.0586   17
 Side 2 forced transition at x/c =  1.0000   78

 147   rms: 0.7369E+07   max: 0.6244E+08   C at   99  2   RLX: 0.000
       a = 10.750      CL =  0.3732
      Cm = -0.0553     CD =*********   =>   CDf =  0.00402    CDp =*********

 Side 1  free  transition at x/c =  0.0586   17
 Side 2 forced transition at x/c =  1.0000   78

 148   rms: 0.8882E+08   max: 0.7525E+09   C at   99  2   RLX: 0.000
       a = 10.750      CL =  0.3732
      Cm = -0.0553     CD =*********   =>   CDf =  0.00402    CDp =*********

 Side 1  free  transition at x/c =  0.0586   17
 Side 2 forced transition at x/c =  1.0000   78

 149   rms: 0.4185E+08   max: 0.3546E+09   C at   99  2   RLX: 0.000
       a = 10.750      CL =  0.3732
      Cm = -0.0553     CD =*********   =>   CDf =  0.00402    CDp =*********

 Side 1  free  transition at x/c =  0.0586   17
 Side 2 forced transition at x/c =  1.0000   78

 150   rms: 0.8924E+08   max: -.7561E+09   C at   99  2   RLX: 0.000
       a = 10.750      CL =  0.3732
      Cm = -0.0553     CD =*********   =>   CDf =  0.00402    CDp =*********

 Side 1  free  transition at x/c =  0.0586   17
 Side 2 forced transition at x/c =  1.0000   78

 151   rms: 0.2047E+09   max: 0.1735E+10   C at   99  2   RLX: 0.000
       a = 10.750      CL =  0.3732
      Cm = -0.0553     CD =*********   =>   CDf =  0.00402    CDp =*********

 Side 1  free  transition at x/c =  0.0586   17
 Side 2 forced transition at x/c =  1.0000   78

 152   rms: 0.1488E+09   max: -.1261E+10   C at   99  2   RLX: 0.000
       a = 10.750      CL =  0.3732
      Cm = -0.0553     CD =*********   =>   CDf =  0.00402    CDp =*********

 Side 1  free  transition at x/c =  0.0586   17
 Side 2 forced transition at x/c =  1.0000   78

 153   rms: 0.4266E+08   max: -.3614E+09   C at   99  2   RLX: 0.000
       a = 10.750      CL =  0.3732
      Cm = -0.0553     CD =*********   =>   CDf =  0.00402    CDp =*********

 Side 1  free  transition at x/c =  0.0586   17
 Side 2 forced transition at x/c =  1.0000   78

 154   rms: 0.1455E+08   max: 0.1232E+09   C at   99  2   RLX: 0.000
       a = 10.750      CL =  0.3732
      Cm = -0.0553     CD =*********   =>   CDf =  0.00402    CDp =*********

 Side 1  free  transition at x/c =  0.0586   17
 Side 2 forced transition at x/c =  1.0000   78

 155   rms: 0.2439E+08   max: -.2066E+09   C at   99  2   RLX: 0.000
       a = 10.750      CL =  0.3732
      Cm = -0.0553     CD =*********   =>   CDf =  0.00402    CDp =*********
 VISCAL:  Convergence failed

 Sequence halted since previous  4 points did not converge
 Last-converged  alpha =   8.000    CL =   0.37302

.OPERva   c>  
 Polar accumulation disabled

.OPERv   c>  
 XFOIL   c>  
 XFOIL   c>  