  
       XFOIL         Version 6.99
  
 Calculated polar for: I.S.A. 571                                      
  
 1 1 Reynolds number fixed          Mach number fixed         
  
 xtrf =   1.000 (top)        1.000 (bottom)  
 Mach =   0.000     Re =     0.500 e 6     Ncrit =   9.000
  
   alpha    CL        CD       CDp       CM     Top_Xtr  Bot_Xtr
  ------ -------- --------- --------- -------- -------- --------
-4.000  -0.0052   0.01168   0.00597  -0.0785   0.9752   0.0309
-3.500   0.0672   0.01160   0.00591  -0.0820   0.9683   0.0440
-3.000   0.1369   0.01065   0.00487  -0.0850   0.9611   0.0541
-2.500   0.2103   0.00973   0.00387  -0.0885   0.9540   0.0594
-2.000   0.2711   0.00891   0.00298  -0.0890   0.9342   0.0615
-1.500   0.3330   0.00810   0.00211  -0.0897   0.9035   0.0665
-1.000   0.3927   0.00777   0.00164  -0.0899   0.8471   0.0754
-0.500   0.4441   0.00799   0.00149  -0.0883   0.7404   0.1060
0.000   0.4922   0.00846   0.00149  -0.0866   0.6342   0.1395
0.500   0.5367   0.00683   0.00171  -0.0846   0.5517   1.0000
1.000   0.5874   0.00741   0.00182  -0.0836   0.4691   1.0000
1.500   0.6392   0.00796   0.00201  -0.0829   0.4152   1.0000
2.000   0.6923   0.00838   0.00223  -0.0825   0.3845   1.0000
2.500   0.7461   0.00872   0.00248  -0.0822   0.3638   1.0000
3.000   0.7998   0.00906   0.00275  -0.0819   0.3464   1.0000
3.500   0.8534   0.00941   0.00307  -0.0817   0.3302   1.0000
4.000   0.9067   0.00977   0.00341  -0.0814   0.3128   1.0000
4.500   0.9598   0.01014   0.00380  -0.0811   0.2929   1.0000
5.000   1.0120   0.01058   0.00419  -0.0806   0.2572   1.0000
5.500   1.0607   0.01146   0.00474  -0.0798   0.1903   1.0000
6.000   1.1087   0.01241   0.00554  -0.0789   0.1508   1.0000
6.500   1.1470   0.01465   0.00705  -0.0766   0.0319   1.0000
7.000   1.1885   0.01656   0.00917  -0.0741   0.0145   1.0000
7.500   1.2307   0.01812   0.01095  -0.0719   0.0125   1.0000
8.000   1.2670   0.02013   0.01319  -0.0691   0.0104   1.0000
8.500   1.2841   0.02395   0.01732  -0.0632   0.0094   1.0000
9.000   1.3058   0.02728   0.02090  -0.0582   0.0090   1.0000
9.500   1.3292   0.03034   0.02421  -0.0537   0.0086   1.0000
10.000   1.3465   0.03305   0.02718  -0.0485   0.0079   1.0000
10.250   1.3519   0.03490   0.02918  -0.0457   0.0077   1.0000
10.500   1.3553   0.03715   0.03161  -0.0428   0.0077   1.0000
10.750   1.3565   0.03965   0.03430  -0.0400   0.0077   1.0000
11.000   1.3546   0.04249   0.03739  -0.0372   0.0077   1.0000
11.250   1.3493   0.04568   0.04080  -0.0345   0.0079   1.0000
11.500   1.3398   0.04940   0.04478  -0.0321   0.0081   1.0000
11.750   1.3271   0.05359   0.04920  -0.0303   0.0083   1.0000
12.000   1.3104   0.05854   0.05439  -0.0293   0.0085   1.0000
