
 ===================================================
  XFOIL Version 6.99
  Copyright (C) 2000   Mark Drela, Harold Youngren

  This software comes with ABSOLUTELY NO WARRANTY,
    subject to the GNU General Public License.

  Caveat computor
 ===================================================

 File  xfoil.def  not found

   QUIT    Exit program

  .OPER    Direct operating point(s)
  .MDES    Complex mapping design routine
  .QDES    Surface speed design routine
  .GDES    Geometry design routine

   SAVE f  Write airfoil to labeled coordinate file
   PSAV f  Write airfoil to plain coordinate file
   ISAV f  Write airfoil to ISES coordinate file
   MSAV f  Write airfoil to MSES coordinate file
   REVE    Reverse written-airfoil node ordering

   LOAD f  Read buffer airfoil from coordinate file
   NACA i  Set NACA 4,5-digit airfoil and buffer airfoil
   INTE    Set buffer airfoil by interpolating two airfoils
   NORM    Buffer airfoil normalization toggle
   XYCM rr Change CM reference location, currently  0.25000 0.00000

   BEND    Display structural properties of current airfoil

   PCOP    Set current-airfoil panel nodes directly from buffer airfoil points
   PANE    Set current-airfoil panel nodes ( 160 ) based on curvature
  .PPAR    Show/change paneling

  .PLOP    Plotting options

   WDEF f  Write  current-settings file
   RDEF f  Reread current-settings file
   NAME s  Specify new airfoil name
   NINC    Increment name version number

   Z       Zoom    | (available in all menus)
   U       Unzoom  | 

 XFOIL   c>  
 Labeled airfoil file.  Name:  I.S.A. 571                                      

 Number of input coordinate points:  33
 Counterclockwise ordering
 Max thickness =     0.073706  at x =   0.299
 Max camber    =     0.034821  at x =   0.301

  LE  x,y  =  -0.00025   0.01154  |   Chord =   1.00030
  TE  x,y  =   1.00000   0.00150  |

 Current airfoil nodes set from buffer airfoil nodes (  33 )

 WARNING: Poor input coordinate distribution
          Excessive panel angle   84.5  at i =  17
          Repaneling with PANE and/or PPAR suggested
           (doing GDES,CADD before repaneling _may_
            improve excessively coarse LE spacing

 XFOIL   c>  
 XFOIL   c>  
 Blunt trailing edge.  Gap =  0.00300

 Paneling parameters used...
   Number of panel nodes       160
   Panel bunching parameter    1.000
   TE/LE panel density ratio   0.150
   Refined-area/LE panel density ratio    0.200
   Top    side refined area x/c limits  1.000 1.000
   Bottom side refined area x/c limits  1.000 1.000

 XFOIL   c>  
.OPERi   c>  
 Xtr/c     =  1.0000    top    side
 Xtr/c     =  1.0000    bottom side
 Ncrit     =    9.00   ( 0.070 % turb. level )
 Vacc      =  0.0100

 Klag  =  5.6000     Uxwt  =    1.00
 A     =  6.7000     B     =  0.7500       KCt = 0.01485
 CtiniK=  1.8000     CtiniX=  3.3000

..VPAR   c>  
..VPAR   c>  
.OPERi   c>  
 M  =    0.0000
 Re =    400000

.OPERv   c>  
.OPERv   c>  
.OPERv   c>  
 Polar  1 newly created for accumulation
 Airfoil archived with polar: I.S.A. 571                                      

Enter  polar save filename  OR  <return> for no file   s>  
 New polar save file available

Enter  polar dump filename  OR  <return> for no file   s>  
 Polar dump file will NOT be written

 Polar accumulation enabled

.OPERva   c>   Calculating unit vorticity distributions ...
 Calculating wake trajectory ...
 Calculating source influence matrix ...

 Solving BL system ...

 Initializing BL ...
    side            1  ...
 MRCHUE: Inverse mode at  67     Hk =   3.803
 MRCHUE: Inverse mode at  68     Hk =   4.217
 MRCHUE: Inverse mode at  69     Hk =   4.626
 MRCHUE: Inverse mode at  70     Hk =   5.028
 MRCHUE: Inverse mode at  71     Hk =   5.421
 MRCHUE: Inverse mode at  72     Hk =   5.771
 MRCHUE: Convergence failed at  73  side 1    Res =  0.2454E+01
 MRCHUE: Inverse mode at  74     Hk =   6.033
 MRCHUE: Inverse mode at  75     Hk =   6.262
 MRCHUE: Inverse mode at  76     Hk =   6.399
    side            2  ...
 MRCHUE: Inverse mode at  13     Hk =   4.311
 MRCHUE: Inverse mode at  14     Hk =   5.429
 MRCHUE: Inverse mode at  15     Hk =   6.848
 MRCHUE: Inverse mode at  16     Hk =   8.770
 MRCHUE: Inverse mode at  17     Hk =  10.472
 MRCHUE: Inverse mode at  18     Hk =   3.556
 MRCHUE: Inverse mode at  19     Hk =   2.500

 Side 1 forced transition at x/c =  1.0000   76
 Side 2  free  transition at x/c =  0.0309   18

   1   rms: 0.5006E+00   max: 0.2616E+01   T at   18  2   RLX: 0.573
       a = -4.000      CL = -0.0846
      Cm = -0.0651     CD =  0.01317   =>   CDf =  0.00593    CDp =  0.00724

 MRCHDU: Convergence failed at  18  side 2    Res =  0.1912E+02
 MRCHDU: Convergence failed at  19  side 2    Res =  0.2110E+02
 MRCHDU: Convergence failed at  20  side 2    Res =  0.2477E+02
 MRCHDU: Convergence failed at  21  side 2    Res =  0.3054E+02
 MRCHDU: Convergence failed at  22  side 2    Res =  0.3349E+02
 MRCHDU: Convergence failed at  23  side 2    Res =  0.8021E+02
 MRCHDU: Convergence failed at  24  side 2    Res =  0.6294E+02
 MRCHDU: Convergence failed at  25  side 2    Res =  0.1207E+03
 MRCHDU: Convergence failed at  26  side 2    Res =  0.6156E+02
 MRCHDU: Convergence failed at  27  side 2    Res =  0.5126E+02
 MRCHDU: Convergence failed at  28  side 2    Res =  0.5224E+02
 MRCHDU: Convergence failed at  29  side 2    Res =  0.5432E+02
 MRCHDU: Convergence failed at  30  side 2    Res =  0.5449E+02
 MRCHDU: Convergence failed at  31  side 2    Res =  0.5570E+02
 MRCHDU: Convergence failed at  32  side 2    Res =  0.5618E+02
 MRCHDU: Convergence failed at  33  side 2    Res =  0.5720E+02
 MRCHDU: Convergence failed at  34  side 2    Res =  0.5340E+02
 MRCHDU: Convergence failed at  35  side 2    Res =  0.5093E+02
 MRCHDU: Convergence failed at  36  side 2    Res =  0.4914E+02
 MRCHDU: Convergence failed at  37  side 2    Res =  0.5395E+02
 MRCHDU: Convergence failed at  38  side 2    Res =  0.4389E+02
 MRCHDU: Convergence failed at  39  side 2    Res =  0.4506E+02
 MRCHDU: Convergence failed at  40  side 2    Res =  0.4636E+02
 MRCHDU: Convergence failed at  41  side 2    Res =  0.3404E+02
 MRCHDU: Convergence failed at  42  side 2    Res =  0.3481E+02
 MRCHDU: Convergence failed at  43  side 2    Res =  0.3558E+02
 MRCHDU: Convergence failed at  44  side 2    Res =  0.3637E+02
 MRCHDU: Convergence failed at  45  side 2    Res =  0.3713E+02
 MRCHDU: Convergence failed at  46  side 2    Res =  0.3784E+02
 MRCHDU: Convergence failed at  47  side 2    Res =  0.3857E+02
 MRCHDU: Convergence failed at  48  side 2    Res =  0.3922E+02
 MRCHDU: Convergence failed at  49  side 2    Res =  0.3986E+02
 MRCHDU: Convergence failed at  50  side 2    Res =  0.4043E+02
 MRCHDU: Convergence failed at  51  side 2    Res =  0.4098E+02
 MRCHDU: Convergence failed at  52  side 2    Res =  0.4146E+02
 MRCHDU: Convergence failed at  53  side 2    Res =  0.4191E+02
 MRCHDU: Convergence failed at  54  side 2    Res =  0.4234E+02
 MRCHDU: Convergence failed at  55  side 2    Res =  0.4275E+02
 MRCHDU: Convergence failed at  56  side 2    Res =  0.4315E+02
 MRCHDU: Convergence failed at  57  side 2    Res =  0.4362E+02
 MRCHDU: Convergence failed at  58  side 2    Res =  0.3573E+02
 MRCHDU: Convergence failed at  59  side 2    Res =  0.3619E+02
 MRCHDU: Convergence failed at  60  side 2    Res =  0.3668E+02
 MRCHDU: Convergence failed at  61  side 2    Res =  0.3717E+02
 MRCHDU: Convergence failed at  62  side 2    Res =  0.3770E+02
 MRCHDU: Convergence failed at  63  side 2    Res =  0.3817E+02
 MRCHDU: Convergence failed at  64  side 2    Res =  0.3869E+02
 MRCHDU: Convergence failed at  65  side 2    Res =  0.3923E+02
 MRCHDU: Convergence failed at  66  side 2    Res =  0.3980E+02
 MRCHDU: Convergence failed at  67  side 2    Res =  0.4040E+02
 MRCHDU: Convergence failed at  68  side 2    Res =  0.4094E+02
 MRCHDU: Convergence failed at  69  side 2    Res =  0.4139E+02
 MRCHDU: Convergence failed at  70  side 2    Res =  0.4172E+02
 MRCHDU: Convergence failed at  71  side 2    Res =  0.4218E+02
 MRCHDU: Convergence failed at  72  side 2    Res =  0.4257E+02
 MRCHDU: Convergence failed at  73  side 2    Res =  0.4303E+02
 MRCHDU: Convergence failed at  74  side 2    Res =  0.4333E+02
 MRCHDU: Convergence failed at  75  side 2    Res =  0.4362E+02
 MRCHDU: Convergence failed at  76  side 2    Res =  0.4373E+02
 MRCHDU: Convergence failed at  77  side 2    Res =  0.4366E+02
 MRCHDU: Convergence failed at  78  side 2    Res =  0.4361E+02
 MRCHDU: Convergence failed at  79  side 2    Res =  0.4447E+02
 MRCHDU: Convergence failed at  80  side 2    Res =  0.4501E+02
 MRCHDU: Convergence failed at  81  side 2    Res =  0.4114E+02
 MRCHDU: Convergence failed at  82  side 2    Res =  0.4179E+02
 MRCHDU: Convergence failed at  83  side 2    Res =  0.4304E+02
 MRCHDU: Convergence failed at  84  side 2    Res =  0.7593E+02
 MRCHDU: Convergence failed at  85  side 2    Res =  0.7875E+02
 MRCHDU: Convergence failed at  86  side 2    Res =  0.1145E+03
 Side 1  free  transition at x/c =  0.9951   76
 Side 2  free  transition at x/c =  0.0245   17

   2   rms: 0.1043E+01   max: 0.5714E+01   D at   89  2   RLX: 0.183
       a = -4.000      CL = -1.5531
      Cm =  0.3651     CD =  0.00743   =>   CDf =  0.00199    CDp =  0.00544

 MRCHDU: Convergence failed at  89  side 2    Res =  0.3189E+01
 MRCHDU: Convergence failed at  90  side 2    Res =  0.1547E+01
 MRCHDU: Convergence failed at  91  side 2    Res =  0.1020E+03
 MRCHDU: Convergence failed at  92  side 2    Res =  0.2088E+01
 Side 1 forced transition at x/c =  1.0000   76
 Side 2  free  transition at x/c =  0.0232   17

   3   rms: 0.5760E+00   max: -.1996E+01   D at   70  1   RLX: 0.250
       a = -4.000      CL = -0.7061
      Cm =  0.1086     CD =  0.05236   =>   CDf =  0.00217    CDp =  0.05020

 Side 1 forced transition at x/c =  1.0000   76
 Side 2  free  transition at x/c =  0.0241   17

   4   rms: 0.4115E+00   max: -.8213E+00   T at  108  2   RLX: 0.609
       a = -4.000      CL = -0.3404
      Cm =  0.0127     CD =  0.03909   =>   CDf =  0.00239    CDp =  0.03670

 Side 1 forced transition at x/c =  1.0000   76
 Side 2  free  transition at x/c =  0.0250   17

   5   rms: 0.3540E+00   max: -.1065E+01   D at  102  2   RLX: 0.469
       a = -4.000      CL = -0.2681
      Cm = -0.0234     CD =  0.05363   =>   CDf =  0.00241    CDp =  0.05122

 Side 1 forced transition at x/c =  1.0000   76
 Side 2  free  transition at x/c =  0.0226   17

   6   rms: 0.4401E+00   max: -.2721E+01   T at   17  2   RLX: 0.184
       a = -4.000      CL = -0.2659
      Cm = -0.0242     CD =  0.07594   =>   CDf =  0.00229    CDp =  0.07365

 Side 1 forced transition at x/c =  1.0000   76
 Side 2  free  transition at x/c =  0.0263   17

   7   rms: 0.3466E+00   max: 0.1229E+01   D at   70  1   RLX: 0.515
       a = -4.000      CL = -0.3221
      Cm = -0.0222     CD =  0.05528   =>   CDf =  0.00223    CDp =  0.05305

 TRCHEK2: N2 convergence failed.
 x:  0.31755  0.33091  0.33241  N:  8.898  9.000  9.018  Nx:  12.574   dN: 0.110E+01
 TRCHEK2: N2 convergence failed.
 x:  0.31755  0.32772  0.33241  N:  8.898  9.000  9.036  Nx:  16.648   dN:-0.161E+00
 TRCHEK2: N2 convergence failed.
 x:  0.31755  0.33125  0.33241  N:  8.898  9.000  9.015  Nx:  11.657   dN: 0.756E-01
 TRCHEK2: N2 convergence failed.
 x:  0.31755  0.33123  0.33241  N:  8.898  9.000  9.003  Nx:  11.995   dN:-0.610E+00
 TRCHEK2: N2 convergence failed.
 x:  0.31755  0.33127  0.33241  N:  8.898  9.000  9.014  Nx:  11.725   dN: 0.127E+00
 TRCHEK2: N2 convergence failed.
 x:  0.31755  0.32774  0.33241  N:  8.898  9.000  9.036  Nx:  17.860   dN:-0.121E+00
 TRCHEK2: N2 convergence failed.
 x:  0.31755  0.33122  0.33241  N:  8.898  9.000  9.015  Nx:  11.674   dN: 0.714E-01
 TRCHEK2: N2 convergence failed.
 x:  0.31755  0.33123  0.33241  N:  8.898  9.000  9.003  Nx:  11.865   dN:-0.601E+01
 TRCHEK2: N2 convergence failed.
 x:  0.31755  0.33124  0.33241  N:  8.898  9.000  9.015  Nx:  11.805   dN: 0.647E+00
 TRCHEK2: N2 convergence failed.
 x:  0.31755  0.32774  0.33241  N:  8.898  9.000  9.036  Nx:  18.374   dN:-0.113E+00
 TRCHEK2: N2 convergence failed.
 x:  0.31755  0.33121  0.33241  N:  8.898  9.000  9.015  Nx:  11.684   dN: 0.714E-01
 TRCHEK2: N2 convergence failed.
 x:  0.31755  0.33122  0.33241  N:  8.898  9.000  9.003  Nx:  11.856   dN:-0.179E+01
 TRCHEK2: N2 convergence failed.
 x:  0.31755  0.33126  0.33241  N:  8.898  9.000  9.014  Nx:  11.726   dN: 0.114E+00
 TRCHEK2: N2 convergence failed.
 x:  0.31755  0.33013  0.33241  N:  8.898  9.000  9.011  Nx:  13.798   dN:-0.494E-01
 TRCHEK2: N2 convergence failed.
 x:  0.31755  0.33127  0.33241  N:  8.898  9.000  9.014  Nx:  11.674   dN: 0.651E-01
 TRCHEK2: N2 convergence failed.
 x:  0.31755  0.33124  0.33241  N:  8.898  9.000  9.015  Nx:  11.771   dN: 0.236E+00
 TRCHEK2: N2 convergence failed.
 x:  0.31755  0.32766  0.33241  N:  8.898  9.000  9.037  Nx:  18.357   dN:-0.137E+00
 TRCHEK2: N2 convergence failed.
 x:  0.31755  0.33122  0.33241  N:  8.898  9.000  9.015  Nx:  11.678   dN: 0.780E-01
 TRCHEK2: N2 convergence failed.
 x:  0.31755  0.33122  0.33241  N:  8.898  9.000  9.003  Nx:  11.981   dN:-0.270E+00
 TRCHEK2: N2 convergence failed.
 x:  0.31755  0.33128  0.33241  N:  8.898  9.000  9.014  Nx:  11.679   dN: 0.712E-01
 TRCHEK2: N2 convergence failed.
 x:  0.31755  0.33122  0.33241  N:  8.898  9.000  9.003  Nx:  11.897   dN:-0.482E+00
 MRCHDU: Convergence failed at  38  side 2    Res =  0.7380E+00
 MRCHDU: Convergence failed at  39  side 2    Res =  0.5490E+02
 MRCHDU: Convergence failed at  40  side 2    Res =  0.4699E+02
 MRCHDU: Convergence failed at  41  side 2    Res =  0.4856E+02
 MRCHDU: Convergence failed at  42  side 2    Res =  0.3777E+02
 MRCHDU: Convergence failed at  43  side 2    Res =  0.3493E+02
 MRCHDU: Convergence failed at  44  side 2    Res =  0.3456E+02
 MRCHDU: Convergence failed at  45  side 2    Res =  0.3297E+02
 MRCHDU: Convergence failed at  46  side 2    Res =  0.4320E+02
 MRCHDU: Convergence failed at  47  side 2    Res =  0.5082E+02
 MRCHDU: Convergence failed at  48  side 2    Res =  0.3469E+02
 MRCHDU: Convergence failed at  49  side 2    Res =  0.5526E+02
 MRCHDU: Convergence failed at  50  side 2    Res =  0.7384E+02
 MRCHDU: Convergence failed at  51  side 2    Res =  0.9062E+02
 MRCHDU: Convergence failed at  52  side 2    Res =  0.1148E+03
 MRCHDU: Convergence failed at  53  side 2    Res =  0.8171E+02
 MRCHDU: Convergence failed at  54  side 2    Res =  0.6372E+02
 MRCHDU: Convergence failed at  55  side 2    Res =  0.7328E+02
 MRCHDU: Convergence failed at  56  side 2    Res =  0.1078E+03
 MRCHDU: Convergence failed at  57  side 2    Res =  0.1637E+03
 MRCHDU: Convergence failed at  58  side 2    Res =  0.2707E+03
 MRCHDU: Convergence failed at  59  side 2    Res =  0.9611E+02
 MRCHDU: Convergence failed at  60  side 2    Res =  0.1041E+03
 MRCHDU: Convergence failed at  61  side 2    Res =  0.1136E+03
 MRCHDU: Convergence failed at  62  side 2    Res =  0.1241E+03
 MRCHDU: Convergence failed at  63  side 2    Res =  0.2528E+03
 MRCHDU: Convergence failed at  64  side 2    Res =  0.2904E+03
 MRCHDU: Convergence failed at  65  side 2    Res =  0.3398E+03
 MRCHDU: Convergence failed at  66  side 2    Res =  0.3940E+03
 MRCHDU: Convergence failed at  67  side 2    Res =  0.4420E+03
 MRCHDU: Convergence failed at  68  side 2    Res =  0.1159E+04
 MRCHDU: Convergence failed at  69  side 2    Res =  0.2004E+04
 MRCHDU: Convergence failed at  70  side 2    Res =  0.1245E+03
 MRCHDU: Convergence failed at  71  side 2    Res =  0.1251E+03
 MRCHDU: Convergence failed at  72  side 2    Res =  0.1291E+03
 MRCHDU: Convergence failed at  73  side 2    Res =  0.1317E+03
 MRCHDU: Convergence failed at  74  side 2    Res =  0.1331E+03
 MRCHDU: Convergence failed at  75  side 2    Res =  0.1357E+03
 MRCHDU: Convergence failed at  76  side 2    Res =  0.1378E+03
 MRCHDU: Convergence failed at  77  side 2    Res =  0.1401E+03
 MRCHDU: Convergence failed at  78  side 2    Res =  0.1434E+03
 MRCHDU: Convergence failed at  79  side 2    Res =  0.1476E+03
 MRCHDU: Convergence failed at  80  side 2    Res =  0.1572E+03
 MRCHDU: Convergence failed at  81  side 2    Res =  0.1644E+03
 MRCHDU: Convergence failed at  82  side 2    Res =  0.1746E+03
 MRCHDU: Convergence failed at  83  side 2    Res =  0.3369E+03
 MRCHDU: Convergence failed at  84  side 2    Res =  0.4622E+03
 MRCHDU: Convergence failed at  85  side 2    Res =  0.3250E+03
 MRCHDU: Convergence failed at  86  side 2    Res =  0.4805E+03
 Side 1  free  transition at x/c =  0.9922   75
 Side 2  free  transition at x/c =  0.3077   38

   8   rms: 0.2222E+01   max: -.2330E+02   T at   38  2   RLX: 0.021
       a = -4.000      CL = -1.3635
      Cm =  0.3217     CD =  0.00565   =>   CDf =  0.00154    CDp =  0.00411

 Side 1  free  transition at x/c =  0.9941   75
 Side 2  free  transition at x/c =  0.0824   22

   9   rms: 0.3962E+01   max: 0.8044E+02   T at   22  2   RLX: 0.012
       a = -4.000      CL = -1.1229
      Cm =  0.2382     CD =  0.09346   =>   CDf =  0.00197    CDp =  0.09148

 Side 1  free  transition at x/c =  0.9966   76
 Side 2  free  transition at x/c =  0.0588   20

  10   rms: 0.2120E+01   max: 0.3702E+02   T at   20  2   RLX: 0.022
       a = -4.000      CL = -1.1439
      Cm =  0.2465     CD =  0.10026   =>   CDf =  0.00201    CDp =  0.09826

 Side 1 forced transition at x/c =  1.0000   76
 Side 2  free  transition at x/c =  0.0446   19

  11   rms: 0.1342E+01   max: -.7224E+01   D at   67  1   RLX: 0.069
       a = -4.000      CL = -1.0745
      Cm =  0.2288     CD =  0.08845   =>   CDf =  0.00203    CDp =  0.08643

 Side 1 forced transition at x/c =  1.0000   76
 Side 2  free  transition at x/c =  0.0445   19

  12   rms: 0.9183E+00   max: -.5118E+01   D at   75  1   RLX: 0.098
       a = -4.000      CL = -0.9782
      Cm =  0.1981     CD =  0.09561   =>   CDf =  0.00225    CDp =  0.09337

 Side 1 forced transition at x/c =  1.0000   76
 Side 2  free  transition at x/c =  0.0412   19

  13   rms: 0.7076E+00   max: 0.4266E+01   T at   19  2   RLX: 0.229
       a = -4.000      CL = -0.7993
      Cm =  0.1440     CD =  0.07714   =>   CDf =  0.00246    CDp =  0.07468

 MRCHDU: Convergence failed at 101  side 2    Res =  0.3209E+01
 MRCHDU: Convergence failed at 102  side 2    Res =  0.1388E+01
 MRCHDU: Convergence failed at 103  side 2    Res =  0.2002E+02
 MRCHDU: Convergence failed at 104  side 2    Res =  0.1621E+01
 Side 1 forced transition at x/c =  1.0000   76
 Side 2  free  transition at x/c =  0.0376   18

  14   rms: 0.6062E+00   max: -.1832E+01   C at  101  2   RLX: 0.273
       a = -4.000      CL = -0.6531
      Cm =  0.1060     CD =  0.08198   =>   CDf =  0.00271    CDp =  0.07927

 Side 1 forced transition at x/c =  1.0000   76
 Side 2  free  transition at x/c =  0.0351   18

  15   rms: 0.5293E+00   max: -.1778E+01   T at  108  2   RLX: 0.281
       a = -4.000      CL = -0.5029
      Cm =  0.0642     CD =  0.09523   =>   CDf =  0.00283    CDp =  0.09240

 Side 1 forced transition at x/c =  1.0000   76
 Side 2  free  transition at x/c =  0.0326   18

  16   rms: 0.4763E+00   max: -.1728E+01   T at  108  2   RLX: 0.289
       a = -4.000      CL = -0.3794
      Cm =  0.0322     CD =  0.10149   =>   CDf =  0.00290    CDp =  0.09859

 Side 1 forced transition at x/c =  1.0000   76
 Side 2  free  transition at x/c =  0.0318   18

  17   rms: 0.4514E+00   max: -.1664E+01   T at   18  2   RLX: 0.300
       a = -4.000      CL = -0.2856
      Cm =  0.0095     CD =  0.10222   =>   CDf =  0.00293    CDp =  0.09929

 Side 1 forced transition at x/c =  1.0000   77
 Side 2  free  transition at x/c =  0.0408   18
 idif Ue xi dudx           1  0.18853192      2.62212753E-03   71.900360    
 Uenew xinew           2  2.01765839E-02  2.80618668E-04

  18   rms: 0.4480E+00   max: 0.1575E+01   T at    2  1   RLX: 0.325
       a = -4.000      CL = -0.2042
      Cm = -0.0179     CD =  0.08458   =>   CDf =  0.00283    CDp =  0.08174

 Side 1 forced transition at x/c =  1.0000   76
 Side 2  free  transition at x/c =  0.0299   17

  19   rms: 0.3898E+00   max: -.1392E+01   D at  104  2   RLX: 0.359
       a = -4.000      CL = -0.3121
      Cm =  0.0074     CD =  0.09223   =>   CDf =  0.00281    CDp =  0.08942

 MRCHDU: Convergence failed at 106  side 2    Res =  0.3733E+01
 MRCHDU: Convergence failed at 107  side 2    Res =  0.2635E+01
 MRCHDU: Convergence failed at 108  side 2    Res =  0.3288E+01
 Side 1 forced transition at x/c =  1.0000   76
 Side 2  free  transition at x/c =  0.0293   17

  20   rms: 0.5677E+00   max: -.2942E+01   D at  104  2   RLX: 0.170
       a = -4.000      CL = -0.2971
      Cm = -0.0161     CD =  0.11036   =>   CDf =  0.00279    CDp =  0.10757

 MRCHDU: Convergence failed at 105  side 2    Res =  0.1756E+01
 MRCHDU: Convergence failed at 106  side 2    Res =  0.8557E+00
 Side 1 forced transition at x/c =  1.0000   76
 Side 2  free  transition at x/c =  0.0330   18

  21   rms: 0.4776E+00   max: 0.2406E+01   T at   18  2   RLX: 0.243
       a = -4.000      CL = -0.2414
      Cm = -0.0414     CD =  0.08611   =>   CDf =  0.00282    CDp =  0.08329

 Side 1 forced transition at x/c =  1.0000   76
 Side 2  free  transition at x/c =  0.0312   18

  22   rms: 0.2295E+01   max: -.1419E+02   T at   18  2   RLX: 0.035
       a = -4.000      CL = -0.2029
      Cm = -0.0407     CD =  0.10712   =>   CDf =  0.00273    CDp =  0.10439

 Side 1 forced transition at x/c =  1.0000   76
 Side 2  free  transition at x/c =  0.0352   18

  23   rms: 0.3978E+00   max: -.4674E+00   U at  108  2   RLX: 0.277
       a = -4.000      CL = -0.2133
      Cm = -0.0403     CD =  0.06074   =>   CDf =  0.00267    CDp =  0.05807

 MRCHDU: Convergence failed at 108  side 2    Res =  0.3752E+01
 Side 1 forced transition at x/c =  1.0000   76
 Side 2  free  transition at x/c =  0.0342   18

  24   rms: 0.4241E+00   max: -.5735E+00   U at  108  2   RLX: 0.224
       a = -4.000      CL = -0.2111
      Cm = -0.0459     CD =  0.05155   =>   CDf =  0.00254    CDp =  0.04900

 MRCHDU: Convergence failed at 107  side 2    Res =  0.4538E+00
 MRCHDU: Convergence failed at 108  side 2    Res =  0.5611E+00
 Side 1 forced transition at x/c =  1.0000   76
 Side 2  free  transition at x/c =  0.0331   18

  25   rms: 0.1358E+01   max: 0.1090E+02   T at   18  2   RLX: 0.070
       a = -4.000      CL = -0.2621
      Cm = -0.0445     CD =  0.06212   =>   CDf =  0.00246    CDp =  0.05966

 Side 1 forced transition at x/c =  1.0000   76
 Side 2  free  transition at x/c =  0.0312   18
 idif Ue xi dudx           1  0.17803657      3.21280956E-03   55.414604    
 Uenew xinew           2  1.29146045E-02  2.33054161E-04

  26   rms: 0.1072E+01   max: -.4698E+01   D at  107  2   RLX: 0.106
       a = -4.000      CL = -0.2761
      Cm = -0.0513     CD =  0.04882   =>   CDf =  0.00245    CDp =  0.04637

 Side 1 forced transition at x/c =  1.0000   75
 Side 2  free  transition at x/c =  0.0303   19

  27   rms: 0.4671E+01   max: 0.2562E+02   D at    2  2   RLX: 0.030
       a = -4.000      CL = -0.3181
      Cm = -0.0549     CD =  0.04473   =>   CDf =  0.00245    CDp =  0.04228

 MRCHDU: Convergence failed at  89  side 2    Res =  0.1826E+00
 MRCHDU: Convergence failed at 105  side 2    Res =  0.1590E+01
 Side 1 forced transition at x/c =  1.0000   75
 Side 2  free  transition at x/c =  0.0305   19

  28   rms: 0.1634E+01   max: -.7676E+01   T at   19  2   RLX: 0.065
       a = -4.000      CL = -0.2829
      Cm = -0.0655     CD =  0.05652   =>   CDf =  0.00320    CDp =  0.05331

 MRCHDU: Convergence failed at  36  side 2    Res =  0.2357E+01
 MRCHDU: Convergence failed at  37  side 2    Res =  0.3588E+01
 MRCHDU: Convergence failed at  38  side 2    Res =  0.7106E+01
 MRCHDU: Convergence failed at  39  side 2    Res =  0.1846E+02
 MRCHDU: Convergence failed at  40  side 2    Res =  0.1067E+03
 MRCHDU: Convergence failed at  41  side 2    Res =  0.2245E+02
 MRCHDU: Convergence failed at  42  side 2    Res =  0.1939E+02
 MRCHDU: Convergence failed at  43  side 2    Res =  0.2042E+02
 MRCHDU: Convergence failed at  44  side 2    Res =  0.2284E+02
 MRCHDU: Convergence failed at  45  side 2    Res =  0.2541E+02
 MRCHDU: Convergence failed at  46  side 2    Res =  0.2753E+02
 MRCHDU: Convergence failed at  47  side 2    Res =  0.2896E+02
 MRCHDU: Convergence failed at  48  side 2    Res =  0.1950E+02
 MRCHDU: Convergence failed at  49  side 2    Res =  0.2012E+02
 MRCHDU: Convergence failed at  50  side 2    Res =  0.2064E+02
 MRCHDU: Convergence failed at  51  side 2    Res =  0.2091E+02
 MRCHDU: Convergence failed at  52  side 2    Res =  0.2086E+02
 MRCHDU: Convergence failed at  53  side 2    Res =  0.2044E+02
 MRCHDU: Convergence failed at  54  side 2    Res =  0.1961E+02
 MRCHDU: Convergence failed at  55  side 2    Res =  0.1861E+02
 MRCHDU: Convergence failed at  56  side 2    Res =  0.1740E+02
 MRCHDU: Convergence failed at  57  side 2    Res =  0.1475E+02
 MRCHDU: Convergence failed at  58  side 2    Res =  0.1389E+02
 MRCHDU: Convergence failed at  59  side 2    Res =  0.1211E+02
 MRCHDU: Convergence failed at  60  side 2    Res =  0.1109E+02
 MRCHDU: Convergence failed at  61  side 2    Res =  0.1070E+02
 MRCHDU: Convergence failed at  62  side 2    Res =  0.1038E+02
 MRCHDU: Convergence failed at  63  side 2    Res =  0.1013E+02
 MRCHDU: Convergence failed at  64  side 2    Res =  0.9897E+01
 MRCHDU: Convergence failed at  65  side 2    Res =  0.9686E+01
 MRCHDU: Convergence failed at  66  side 2    Res =  0.8669E+01
 MRCHDU: Convergence failed at  67  side 2    Res =  0.8554E+01
 MRCHDU: Convergence failed at  68  side 2    Res =  0.8457E+01
 MRCHDU: Convergence failed at  69  side 2    Res =  0.8356E+01
 MRCHDU: Convergence failed at  70  side 2    Res =  0.8268E+01
 MRCHDU: Convergence failed at  71  side 2    Res =  0.7135E+01
 MRCHDU: Convergence failed at  72  side 2    Res =  0.7372E+01
 MRCHDU: Convergence failed at  73  side 2    Res =  0.8980E+01
 MRCHDU: Convergence failed at  74  side 2    Res =  0.1530E+02
 MRCHDU: Convergence failed at  75  side 2    Res =  0.3186E+02
 MRCHDU: Convergence failed at  76  side 2    Res =  0.1805E+03
 MRCHDU: Convergence failed at  77  side 2    Res =  0.2575E+02
 MRCHDU: Convergence failed at  78  side 2    Res =  0.1157E+02
 MRCHDU: Convergence failed at  79  side 2    Res =  0.7931E+01
 MRCHDU: Convergence failed at  80  side 2    Res =  0.6802E+01
 MRCHDU: Convergence failed at  81  side 2    Res =  0.6501E+01
 MRCHDU: Convergence failed at  82  side 2    Res =  0.9150E+01
 MRCHDU: Convergence failed at  83  side 2    Res =  0.2387E+02
 MRCHDU: Convergence failed at  84  side 2    Res =  0.1022E+03
 MRCHDU: Convergence failed at  85  side 2    Res =  0.2179E+03
 MRCHDU: Convergence failed at  86  side 2    Res =  0.1157E+02
 MRCHDU: Convergence failed at  87  side 2    Res =  0.1063E+02
 Side 1 forced transition at x/c =  1.0000   75
 Side 2  free  transition at x/c =  0.0297   18

  29   rms: 0.5959E+00   max: -.1232E+01   T at  106  2   RLX: 0.406
       a = -4.000      CL = -0.4246
      Cm =  0.0490     CD =  0.04929   =>   CDf =  0.00242    CDp =  0.04687

 Side 1 forced transition at x/c =  1.0000   76
 Side 2  free  transition at x/c =  0.0249   17

  30   rms: 0.4061E+00   max: 0.3861E+01   T at   17  2   RLX: 0.388
       a = -4.000      CL = -0.2964
      Cm =  0.0075     CD =  0.01814   =>   CDf =  0.00649    CDp =  0.01165

 Side 1 forced transition at x/c =  1.0000   76
 Side 2  free  transition at x/c =  0.0222   17
 idif Ue xi dudx           1  0.18228917      3.15272808E-03   57.819504    
 Uenew xinew           2  1.00011947E-02  1.72972679E-04

  31   rms: 0.2317E+00   max: 0.9949E+00   D at   69  1   RLX: 0.571
       a = -4.000      CL = -0.1964
      Cm = -0.0269     CD =  0.01664   =>   CDf =  0.00664    CDp =  0.01000

 Side 1  free  transition at x/c =  0.9878   74
 Side 2  free  transition at x/c =  0.0229   18

  32   rms: 0.1412E+00   max: -.1141E+01   D at    2  2   RLX: 0.438
       a = -4.000      CL = -0.1248
      Cm = -0.0485     CD =  0.01390   =>   CDf =  0.00648    CDp =  0.00742

 Side 1  free  transition at x/c =  0.9848   74
 Side 2  free  transition at x/c =  0.0250   17

  33   rms: 0.7412E-01   max: -.4235E+00   D at    2  1
       a = -4.000      CL = -0.0444
      Cm = -0.0709     CD =  0.01370   =>   CDf =  0.00603    CDp =  0.00767

 Side 1  free  transition at x/c =  0.9764   73
 Side 2  free  transition at x/c =  0.0287   17

  34   rms: 0.7669E-01   max: -.5482E+00   T at   73  1   RLX: 0.912
       a = -4.000      CL = -0.0145
      Cm = -0.0771     CD =  0.01387   =>   CDf =  0.00579    CDp =  0.00808

 Side 1  free  transition at x/c =  0.9923   75
 Side 2  free  transition at x/c =  0.0339   18

  35   rms: 0.1429E+00   max: 0.9143E+00   D at   18  2
       a = -4.000      CL = -0.0301
      Cm = -0.0739     CD =  0.01295   =>   CDf =  0.00606    CDp =  0.00688

 Side 1  free  transition at x/c =  0.9843   74
 Side 2  free  transition at x/c =  0.0310   18

  36   rms: 0.3032E-01   max: 0.2401E+00   T at   18  2
       a = -4.000      CL = -0.0420
      Cm = -0.0713     CD =  0.01353   =>   CDf =  0.00591    CDp =  0.00762

 Side 1  free  transition at x/c =  0.9778   74
 Side 2  free  transition at x/c =  0.0299   17

  37   rms: 0.1773E-01   max: -.9818E-01   D at   76  1
       a = -4.000      CL = -0.0378
      Cm = -0.0722     CD =  0.01387   =>   CDf =  0.00588    CDp =  0.00798

 Side 1  free  transition at x/c =  0.9796   74
 Side 2  free  transition at x/c =  0.0296   17

  38   rms: 0.1492E-02   max: -.1074E-01   D at   74  1
       a = -4.000      CL = -0.0374
      Cm = -0.0723     CD =  0.01390   =>   CDf =  0.00591    CDp =  0.00799

 Side 1  free  transition at x/c =  0.9798   74
 Side 2  free  transition at x/c =  0.0296   17

  39   rms: 0.2453E-04   max: 0.1832E-03   D at   18  2
       a = -4.000      CL = -0.0374
      Cm = -0.0723     CD =  0.01390   =>   CDf =  0.00591    CDp =  0.00800
 plradd ia,ip,cpol            1           0  9.48153087E-04

 Point added to stored polar  1
 Point written to save file  isa571_Re400k.base.pol                          
 Dump file unspecified or not available
 Calculating wake trajectory ...
 Calculating source influence matrix ...

 Solving BL system ...

 Side 1  free  transition at x/c =  0.9798   74
 Side 2  free  transition at x/c =  0.0296   17

   1   rms: 0.1576E+00   max: -.1819E+01   T at   17  2   RLX: 0.275
       a = -3.500      CL = -0.0146
      Cm = -0.0736     CD =  0.01415   =>   CDf =  0.00591    CDp =  0.00824

 Side 1  free  transition at x/c =  0.9783   74
 Side 2  free  transition at x/c =  0.0346   18

   2   rms: 0.2163E+00   max: 0.2124E+01   D at   18  2   RLX: 0.706
       a = -3.500      CL =  0.0254
      Cm = -0.0761     CD =  0.01298   =>   CDf =  0.00609    CDp =  0.00689

 Side 1  free  transition at x/c =  0.9763   73
 Side 2  free  transition at x/c =  0.0430   19

   3   rms: 0.1167E+00   max: 0.8033E+00   D at   19  2
       a = -3.500      CL =  0.0303
      Cm = -0.0747     CD =  0.01320   =>   CDf =  0.00607    CDp =  0.00713

 Side 1  free  transition at x/c =  0.9701   73
 Side 2  free  transition at x/c =  0.0436   19

   4   rms: 0.3215E-01   max: 0.1884E+00   D at   19  2
       a = -3.500      CL =  0.0349
      Cm = -0.0758     CD =  0.01326   =>   CDf =  0.00599    CDp =  0.00727

 Side 1  free  transition at x/c =  0.9722   73
 Side 2  free  transition at x/c =  0.0435   19

   5   rms: 0.2458E-02   max: 0.1437E-01   D at   20  2
       a = -3.500      CL =  0.0357
      Cm = -0.0760     CD =  0.01326   =>   CDf =  0.00595    CDp =  0.00731

 Side 1  free  transition at x/c =  0.9727   73
 Side 2  free  transition at x/c =  0.0435   19

   6   rms: 0.5424E-04   max: -.4207E-03   T at   73  1
       a = -3.500      CL =  0.0358
      Cm = -0.0760     CD =  0.01326   =>   CDf =  0.00595    CDp =  0.00732
 plradd ia,ip,cpol            2           0  9.48153087E-04

 Point added to stored polar  1
 Point written to save file  isa571_Re400k.base.pol                          
 Dump file unspecified or not available
 Calculating wake trajectory ...
 Calculating source influence matrix ...

 Solving BL system ...

 Side 1  free  transition at x/c =  0.9727   73
 Side 2  free  transition at x/c =  0.0436   19

   1   rms: 0.1392E+00   max: -.1513E+01   T at   19  2   RLX: 0.330
       a = -3.000      CL =  0.0591
      Cm = -0.0771     CD =  0.01331   =>   CDf =  0.00598    CDp =  0.00732

 Side 1  free  transition at x/c =  0.9692   74
 Side 2  free  transition at x/c =  0.0484   18

   2   rms: 0.1264E+00   max: -.1542E+01   T at   18  2   RLX: 0.324
       a = -3.000      CL =  0.0779
      Cm = -0.0781     CD =  0.01507   =>   CDf =  0.00587    CDp =  0.00920

 Side 1  free  transition at x/c =  0.9677   74
 Side 2  free  transition at x/c =  0.0501   19

   3   rms: 0.2154E+00   max: -.8124E+00   T at   19  2   RLX: 0.615
       a = -3.000      CL =  0.0980
      Cm = -0.0792     CD =  0.01042   =>   CDf =  0.00616    CDp =  0.00425

 MRCHDU: Convergence failed at  19  side 2    Res =  0.6569E+00
 MRCHDU: Convergence failed at  20  side 2    Res =  0.1260E+02
 MRCHDU: Convergence failed at  21  side 2    Res =  0.5829E+02
 MRCHDU: Convergence failed at  22  side 2    Res =  0.5936E+02
 MRCHDU: Convergence failed at  23  side 2    Res =  0.6868E+02
 MRCHDU: Convergence failed at  24  side 2    Res =  0.8858E+02
 MRCHDU: Convergence failed at  25  side 2    Res =  0.9317E+02
 MRCHDU: Convergence failed at  26  side 2    Res =  0.5627E+02
 MRCHDU: Convergence failed at  27  side 2    Res =  0.3662E+02
 MRCHDU: Convergence failed at  28  side 2    Res =  0.3142E+02
 MRCHDU: Convergence failed at  29  side 2    Res =  0.2848E+02
 MRCHDU: Convergence failed at  30  side 2    Res =  0.2715E+02
 MRCHDU: Convergence failed at  31  side 2    Res =  0.2673E+02
 MRCHDU: Convergence failed at  32  side 2    Res =  0.2649E+02
 MRCHDU: Convergence failed at  33  side 2    Res =  0.3521E+02
 MRCHDU: Convergence failed at  34  side 2    Res =  0.3514E+02
 MRCHDU: Convergence failed at  35  side 2    Res =  0.3483E+02
 MRCHDU: Convergence failed at  36  side 2    Res =  0.3411E+02
 MRCHDU: Convergence failed at  37  side 2    Res =  0.3284E+02
 MRCHDU: Convergence failed at  38  side 2    Res =  0.2416E+02
 MRCHDU: Convergence failed at  39  side 2    Res =  0.2474E+02
 MRCHDU: Convergence failed at  40  side 2    Res =  0.2541E+02
 MRCHDU: Convergence failed at  41  side 2    Res =  0.2593E+02
 MRCHDU: Convergence failed at  42  side 2    Res =  0.2661E+02
 MRCHDU: Convergence failed at  43  side 2    Res =  0.2755E+02
 MRCHDU: Convergence failed at  44  side 2    Res =  0.2821E+02
 MRCHDU: Convergence failed at  45  side 2    Res =  0.2624E+02
 MRCHDU: Convergence failed at  46  side 2    Res =  0.5060E+02
 MRCHDU: Convergence failed at  47  side 2    Res =  0.4674E+02
 MRCHDU: Convergence failed at  48  side 2    Res =  0.4379E+02
 MRCHDU: Convergence failed at  49  side 2    Res =  0.4220E+02
 MRCHDU: Convergence failed at  50  side 2    Res =  0.4177E+02
 MRCHDU: Convergence failed at  51  side 2    Res =  0.4224E+02
 MRCHDU: Convergence failed at  52  side 2    Res =  0.4352E+02
 MRCHDU: Convergence failed at  53  side 2    Res =  0.4478E+02
 MRCHDU: Convergence failed at  54  side 2    Res =  0.4609E+02
 MRCHDU: Convergence failed at  55  side 2    Res =  0.4719E+02
 MRCHDU: Convergence failed at  56  side 2    Res =  0.4680E+02
 MRCHDU: Convergence failed at  57  side 2    Res =  0.4570E+02
 MRCHDU: Convergence failed at  58  side 2    Res =  0.4318E+02
 MRCHDU: Convergence failed at  59  side 2    Res =  0.4108E+02
 MRCHDU: Convergence failed at  60  side 2    Res =  0.3904E+02
 MRCHDU: Convergence failed at  61  side 2    Res =  0.3695E+02
 MRCHDU: Convergence failed at  62  side 2    Res =  0.3542E+02
 MRCHDU: Convergence failed at  63  side 2    Res =  0.3408E+02
 MRCHDU: Convergence failed at  64  side 2    Res =  0.3305E+02
 MRCHDU: Convergence failed at  65  side 2    Res =  0.3228E+02
 MRCHDU: Convergence failed at  66  side 2    Res =  0.3172E+02
 MRCHDU: Convergence failed at  67  side 2    Res =  0.3152E+02
 MRCHDU: Convergence failed at  68  side 2    Res =  0.3176E+02
 MRCHDU: Convergence failed at  69  side 2    Res =  0.3235E+02
 MRCHDU: Convergence failed at  70  side 2    Res =  0.3345E+02
 MRCHDU: Convergence failed at  71  side 2    Res =  0.3545E+02
 MRCHDU: Convergence failed at  72  side 2    Res =  0.3745E+02
 MRCHDU: Convergence failed at  73  side 2    Res =  0.4008E+02
 MRCHDU: Convergence failed at  74  side 2    Res =  0.4208E+02
 MRCHDU: Convergence failed at  75  side 2    Res =  0.4355E+02
 MRCHDU: Convergence failed at  76  side 2    Res =  0.4424E+02
 MRCHDU: Convergence failed at  77  side 2    Res =  0.4304E+02
 MRCHDU: Convergence failed at  78  side 2    Res =  0.4045E+02
 MRCHDU: Convergence failed at  79  side 2    Res =  0.2954E+02
 MRCHDU: Convergence failed at  80  side 2    Res =  0.3007E+02
 MRCHDU: Convergence failed at  81  side 2    Res =  0.4033E+02
 MRCHDU: Convergence failed at  82  side 2    Res =  0.4156E+02
 MRCHDU: Convergence failed at  83  side 2    Res =  0.3419E+02
 MRCHDU: Convergence failed at  84  side 2    Res =  0.2936E+02
 MRCHDU: Convergence failed at  85  side 2    Res =  0.3696E+02
 Side 1  free  transition at x/c =  0.9681   74
 Side 2  free  transition at x/c =  0.0590   19

   4   rms: 0.9632E+00   max: 0.2261E+01   D at   89  2   RLX: 0.608
       a = -3.000      CL = -0.3283
      Cm =  0.0569     CD =  0.00843   =>   CDf =  0.00211    CDp =  0.00632

 MRCHDU: Convergence failed at  68  side 2    Res =  0.1331E+00
 MRCHDU: Convergence failed at  69  side 2    Res =  0.1985E+00
 MRCHDU: Convergence failed at  70  side 2    Res =  0.2544E+00
 MRCHDU: Convergence failed at  71  side 2    Res =  0.3034E+00
 MRCHDU: Convergence failed at  72  side 2    Res =  0.3457E+00
 MRCHDU: Convergence failed at  73  side 2    Res =  0.3832E+00
 MRCHDU: Convergence failed at  74  side 2    Res =  0.4178E+00
 MRCHDU: Convergence failed at  75  side 2    Res =  0.4514E+00
 MRCHDU: Convergence failed at  76  side 2    Res =  0.4846E+00
 MRCHDU: Convergence failed at  77  side 2    Res =  0.5162E+00
 MRCHDU: Convergence failed at  78  side 2    Res =  0.5450E+00
 MRCHDU: Convergence failed at  79  side 2    Res =  0.5743E+00
 MRCHDU: Convergence failed at  80  side 2    Res =  0.6060E+00
 MRCHDU: Convergence failed at  81  side 2    Res =  0.6380E+00
 MRCHDU: Convergence failed at  82  side 2    Res =  0.6700E+00
 MRCHDU: Convergence failed at  83  side 2    Res =  0.7008E+00
 MRCHDU: Convergence failed at  84  side 2    Res =  0.7302E+00
 MRCHDU: Convergence failed at  85  side 2    Res =  0.7583E+00
 MRCHDU: Convergence failed at  89  side 2    Res =  0.6186E+01
 MRCHDU: Convergence failed at  90  side 2    Res =  0.3826E+01
 MRCHDU: Convergence failed at  91  side 2    Res =  0.1106E+02
 MRCHDU: Convergence failed at  92  side 2    Res =  0.1871E+01
 MRCHDU: Convergence failed at  93  side 2    Res =  0.1513E+01
 MRCHDU: Convergence failed at  94  side 2    Res =  0.1898E+03
 Side 1  free  transition at x/c =  0.9845   75
 Side 2  free  transition at x/c =  0.0558   19

   5   rms: 0.5724E+00   max: 0.2264E+01   T at   19  2   RLX: 0.237
       a = -3.000      CL = -0.0197
      Cm = -0.0620     CD =  0.04833   =>   CDf =  0.00236    CDp =  0.04597

 Side 1  free  transition at x/c =  0.9703   74
 Side 2  free  transition at x/c =  0.0512   19
 idif Ue xi dudx           1  0.24561352      3.34131718E-03   73.507988    
 Uenew xinew           2  7.34938979E-02  9.99808311E-04

   6   rms: 0.9123E+00   max: -.2573E+01   D at   20  2   RLX: 0.194
       a = -3.000      CL = -0.0050
      Cm = -0.0883     CD =  0.04297   =>   CDf =  0.00224    CDp =  0.04073

 MRCHDU: Convergence failed at  20  side 2    Res =  0.6034E+01
 MRCHDU: Convergence failed at  21  side 2    Res =  0.1025E+02
 MRCHDU: Convergence failed at  22  side 2    Res =  0.4779E+02
 MRCHDU: Convergence failed at  23  side 2    Res =  0.7178E+01
 MRCHDU: Convergence failed at  24  side 2    Res =  0.1497E+02
 MRCHDU: Convergence failed at  25  side 2    Res =  0.2304E+02
 MRCHDU: Convergence failed at  26  side 2    Res =  0.4475E+02
 MRCHDU: Convergence failed at  27  side 2    Res =  0.1456E+03
 MRCHDU: Convergence failed at  28  side 2    Res =  0.2353E+02
 MRCHDU: Convergence failed at  29  side 2    Res =  0.1429E+02
 MRCHDU: Convergence failed at  30  side 2    Res =  0.1338E+02
 MRCHDU: Convergence failed at  31  side 2    Res =  0.1633E+02
 MRCHDU: Convergence failed at  32  side 2    Res =  0.2054E+02
 MRCHDU: Convergence failed at  33  side 2    Res =  0.2561E+02
 MRCHDU: Convergence failed at  34  side 2    Res =  0.3579E+02
 MRCHDU: Convergence failed at  35  side 2    Res =  0.5962E+02
 MRCHDU: Convergence failed at  36  side 2    Res =  0.1281E+03
 MRCHDU: Convergence failed at  37  side 2    Res =  0.2632E+03
 MRCHDU: Convergence failed at  38  side 2    Res =  0.9569E+02
 MRCHDU: Convergence failed at  39  side 2    Res =  0.3834E+02
 MRCHDU: Convergence failed at  40  side 2    Res =  0.3129E+02
 MRCHDU: Convergence failed at  41  side 2    Res =  0.1799E+03
 MRCHDU: Convergence failed at  42  side 2    Res =  0.2863E+02
 MRCHDU: Convergence failed at  43  side 2    Res =  0.2896E+02
 MRCHDU: Convergence failed at  44  side 2    Res =  0.3002E+02
 MRCHDU: Convergence failed at  45  side 2    Res =  0.3097E+02
 MRCHDU: Convergence failed at  46  side 2    Res =  0.3180E+02
 MRCHDU: Convergence failed at  47  side 2    Res =  0.3462E+02
 MRCHDU: Convergence failed at  48  side 2    Res =  0.3550E+02
 MRCHDU: Convergence failed at  49  side 2    Res =  0.3606E+02
 MRCHDU: Convergence failed at  50  side 2    Res =  0.3654E+02
 MRCHDU: Convergence failed at  51  side 2    Res =  0.3373E+02
 MRCHDU: Convergence failed at  52  side 2    Res =  0.3444E+02
 MRCHDU: Convergence failed at  53  side 2    Res =  0.3738E+02
 MRCHDU: Convergence failed at  54  side 2    Res =  0.6041E+02
 MRCHDU: Convergence failed at  55  side 2    Res =  0.3475E+03
 MRCHDU: Convergence failed at  56  side 2    Res =  0.2267E+03
 MRCHDU: Convergence failed at  57  side 2    Res =  0.4270E+02
 MRCHDU: Convergence failed at  58  side 2    Res =  0.6034E+03
 MRCHDU: Convergence failed at  59  side 2    Res =  0.4045E+02
 MRCHDU: Convergence failed at  60  side 2    Res =  0.4019E+02
 MRCHDU: Convergence failed at  61  side 2    Res =  0.3810E+02
 MRCHDU: Convergence failed at  62  side 2    Res =  0.4936E+02
 MRCHDU: Convergence failed at  63  side 2    Res =  0.1366E+03
 MRCHDU: Convergence failed at  64  side 2    Res =  0.3786E+03
 MRCHDU: Convergence failed at  65  side 2    Res =  0.1614E+03
 MRCHDU: Convergence failed at  66  side 2    Res =  0.4363E+02
 MRCHDU: Convergence failed at  67  side 2    Res =  0.6166E+02
 MRCHDU: Convergence failed at  68  side 2    Res =  0.5679E+03
 MRCHDU: Convergence failed at  69  side 2    Res =  0.5817E+02
 MRCHDU: Convergence failed at  70  side 2    Res =  0.5418E+02
 MRCHDU: Convergence failed at  71  side 2    Res =  0.5059E+02
 MRCHDU: Convergence failed at  72  side 2    Res =  0.4841E+02
 MRCHDU: Convergence failed at  73  side 2    Res =  0.4659E+02
 MRCHDU: Convergence failed at  74  side 2    Res =  0.4457E+02
 MRCHDU: Convergence failed at  75  side 2    Res =  0.4282E+02
 MRCHDU: Convergence failed at  76  side 2    Res =  0.4088E+02
 MRCHDU: Convergence failed at  77  side 2    Res =  0.3328E+02
 MRCHDU: Convergence failed at  78  side 2    Res =  0.3394E+02
 MRCHDU: Convergence failed at  79  side 2    Res =  0.3512E+02
 MRCHDU: Convergence failed at  80  side 2    Res =  0.3633E+02
 MRCHDU: Convergence failed at  81  side 2    Res =  0.3715E+02
 MRCHDU: Convergence failed at  82  side 2    Res =  0.3762E+02
 MRCHDU: Convergence failed at  83  side 2    Res =  0.3750E+02
 MRCHDU: Convergence failed at  84  side 2    Res =  0.3767E+02
 MRCHDU: Convergence failed at  85  side 2    Res =  0.3830E+02
 MRCHDU: Convergence failed at  86  side 2    Res =  0.4263E+02
 Side 1  free  transition at x/c =  0.9595   72
 Side 2  free  transition at x/c =  0.0491   19

   7   rms: 0.9925E+00   max: 0.2585E+01   D at   32  2   RLX: 0.241
       a = -3.000      CL = -0.9682
      Cm =  0.2265     CD =  0.00717   =>   CDf =  0.00191    CDp =  0.00527

 MRCHDU: Convergence failed at  61  side 2    Res =  0.1680E+00
 MRCHDU: Convergence failed at  62  side 2    Res =  0.1948E+00
 MRCHDU: Convergence failed at  63  side 2    Res =  0.2261E+00
 MRCHDU: Convergence failed at  64  side 2    Res =  0.2580E+00
 MRCHDU: Convergence failed at  65  side 2    Res =  0.2840E+00
 MRCHDU: Convergence failed at  66  side 2    Res =  0.3102E+00
 MRCHDU: Convergence failed at  67  side 2    Res =  0.3378E+00
 MRCHDU: Convergence failed at  68  side 2    Res =  0.3638E+00
 MRCHDU: Convergence failed at  69  side 2    Res =  0.3887E+00
 MRCHDU: Convergence failed at  70  side 2    Res =  0.4143E+00
 MRCHDU: Convergence failed at  71  side 2    Res =  0.4405E+00
 MRCHDU: Convergence failed at  72  side 2    Res =  0.4690E+00
 MRCHDU: Convergence failed at  73  side 2    Res =  0.4924E+00
 MRCHDU: Convergence failed at  74  side 2    Res =  0.5151E+00
 MRCHDU: Convergence failed at  75  side 2    Res =  0.5371E+00
 MRCHDU: Convergence failed at  76  side 2    Res =  0.5573E+00
 MRCHDU: Convergence failed at  77  side 2    Res =  0.5757E+00
 MRCHDU: Convergence failed at  78  side 2    Res =  0.5956E+00
 MRCHDU: Convergence failed at  79  side 2    Res =  0.6190E+00
 MRCHDU: Convergence failed at  80  side 2    Res =  0.6416E+00
 MRCHDU: Convergence failed at  81  side 2    Res =  0.6635E+00
 MRCHDU: Convergence failed at  82  side 2    Res =  0.6879E+00
 MRCHDU: Convergence failed at  83  side 2    Res =  0.7135E+00
 MRCHDU: Convergence failed at  84  side 2    Res =  0.7387E+00
 MRCHDU: Convergence failed at  85  side 2    Res =  0.7639E+00
 MRCHDU: Convergence failed at  86  side 2    Res =  0.7948E+00
 MRCHDU: Convergence failed at  90  side 2    Res =  0.2202E+01
 Side 1  free  transition at x/c =  0.9828   74
 Side 2  free  transition at x/c =  0.0509   20

   8   rms: 0.4122E+00   max: -.8616E+00   C at  103  2   RLX: 0.475
       a = -3.000      CL = -0.1240
      Cm = -0.0297     CD =  0.03526   =>   CDf =  0.00240    CDp =  0.03286

 Side 1  free  transition at x/c =  0.9768   74
 Side 2  free  transition at x/c =  0.0511   19
 idif Ue xi dudx           1  0.24757037      3.45969200E-03   71.558502    
 Uenew xinew           2  8.00155103E-02  1.11818314E-03

   9   rms: 0.2172E+01   max: 0.5637E+01   T at   19  2   RLX: 0.063
       a = -3.000      CL = -0.0914
      Cm = -0.0643     CD =  0.05102   =>   CDf =  0.00227    CDp =  0.04875

 Side 1  free  transition at x/c =  0.9559   72
 Side 2  free  transition at x/c =  0.0487   19

  10   rms: 0.7509E+00   max: 0.2198E+01   T at   19  2   RLX: 0.234
       a = -3.000      CL = -0.0766
      Cm = -0.0869     CD =  0.03591   =>   CDf =  0.00225    CDp =  0.03366

 Side 1  free  transition at x/c =  0.9432   71
 Side 2  free  transition at x/c =  0.0457   19
 idif Ue xi dudx           1  0.22093703      3.29458714E-03   67.060608    
 Uenew xinew           2  2.11128071E-02  3.14831734E-04

  11   rms: 0.1815E+02   max: -.5614E+02   D at   20  2   RLX: 0.009
       a = -3.000      CL = -0.0842
      Cm = -0.1095     CD =  0.03373   =>   CDf =  0.00208    CDp =  0.03165

 Side 1  free  transition at x/c =  0.9267   69
 Side 2  free  transition at x/c =  0.0414   20

  12   rms: 0.1810E+01   max: 0.9763E+01   D at   21  2   RLX: 0.053
       a = -3.000      CL = -0.0328
      Cm = -0.1096     CD =  0.03905   =>   CDf =  0.00265    CDp =  0.03640

 Side 1  free  transition at x/c =  0.9307   70
 Side 2  free  transition at x/c =  0.0445   19

  13   rms: 0.1653E+01   max: 0.1023E+02   D at   19  2   RLX: 0.049
       a = -3.000      CL = -0.0072
      Cm = -0.1093     CD =  0.04053   =>   CDf =  0.00246    CDp =  0.03807

 Side 1  free  transition at x/c =  0.9405   71
 Side 2  free  transition at x/c =  0.0464   19

  14   rms: 0.8778E+01   max: -.2545E+02   D at   60  2   RLX: 0.020
       a = -3.000      CL = -0.0145
      Cm = -0.1190     CD =  0.02854   =>   CDf =  0.00247    CDp =  0.02606

 Side 1  free  transition at x/c =  0.9350   70
 Side 2  free  transition at x/c =  0.0465   19

  15   rms: 0.2267E+01   max: 0.8296E+01   D at   20  2   RLX: 0.158
       a = -3.000      CL =  0.0545
      Cm = -0.1080     CD =  0.04232   =>   CDf =  0.00281    CDp =  0.03951

 MRCHDU: Convergence failed at  73  side 1    Res =  0.1341E+01
 MRCHDU: Convergence failed at  74  side 1    Res =  0.2349E+01
 MRCHDU: Convergence failed at  75  side 1    Res =  0.8639E+01
 MRCHDU: Convergence failed at  76  side 1    Res =  0.1571E+02
 Side 1  free  transition at x/c =  0.9590   72
 Side 2  free  transition at x/c =  0.0513   20

  16   rms: 0.2438E+01   max: -.8437E+01   D at   52  2   RLX: 0.059
       a = -3.000      CL =  0.0950
      Cm = -0.1165     CD =  0.02047   =>   CDf =  0.00326    CDp =  0.01720

 Side 1  free  transition at x/c =  0.9552   72
 Side 2  free  transition at x/c =  0.0519   20

  17   rms: 0.4597E+01   max: 0.1733E+02   D at   52  2   RLX: 0.087
       a = -3.000      CL =  0.1290
      Cm = -0.1128     CD =  0.03287   =>   CDf =  0.00392    CDp =  0.02895

 Side 1  free  transition at x/c =  0.9646   73
 Side 2  free  transition at x/c =  0.0520   19

  18   rms: 0.6244E+00   max: -.2757E+01   D at   42  2   RLX: 0.181
       a = -3.000      CL =  0.1899
      Cm = -0.1139     CD =  0.02109   =>   CDf =  0.00318    CDp =  0.01791

 Side 1  free  transition at x/c =  0.9739   74
 Side 2  free  transition at x/c =  0.0566   19

  19   rms: 0.1367E+01   max: -.6548E+01   D at   42  2   RLX: 0.076
       a = -3.000      CL =  0.1892
      Cm = -0.1137     CD =  0.01861   =>   CDf =  0.00338    CDp =  0.01523

 Side 1  free  transition at x/c =  0.9775   75
 Side 2  free  transition at x/c =  0.0590   19

  20   rms: 0.2170E+01   max: 0.8727E+01   T at   45  2   RLX: 0.172
       a = -3.000      CL =  0.1884
      Cm = -0.1121     CD =  0.02791   =>   CDf =  0.00355    CDp =  0.02437

 MRCHDU: Convergence failed at  25  side 2    Res =  0.3146E-01
 MRCHDU: Convergence failed at  27  side 2    Res =  0.4064E+01
 Side 1  free  transition at x/c =  0.9790   76
 Side 2  free  transition at x/c =  0.0595   18
 idif Ue xi dudx           1  0.20313558      2.08604336E-03   97.378410    
 Uenew xinew           2  1.60544328E-02  1.64866447E-04

  21   rms: 0.3162E+00   max: 0.2711E+01   T at    2  1   RLX: 0.357
       a = -3.000      CL =  0.1899
      Cm = -0.1024     CD =  0.01368   =>   CDf =  0.00582    CDp =  0.00786

 Side 1  free  transition at x/c =  0.9794   75
 Side 2  free  transition at x/c =  0.0600   19

  22   rms: 0.2838E+00   max: -.1258E+01   D at   47  2   RLX: 0.398
       a = -3.000      CL =  0.1684
      Cm = -0.0960     CD =  0.01254   =>   CDf =  0.00607    CDp =  0.00648

 MRCHDU: Convergence failed at  29  side 2    Res =  0.1518E+01
 Side 1  free  transition at x/c =  0.9774   75
 Side 2  free  transition at x/c =  0.0602   19

  23   rms: 0.2433E+00   max: -.1248E+01   D at   23  2   RLX: 0.401
       a = -3.000      CL =  0.1454
      Cm = -0.0913     CD =  0.01159   =>   CDf =  0.00640    CDp =  0.00519

 Side 1  free  transition at x/c =  0.9759   74
 Side 2  free  transition at x/c =  0.0607   19

  24   rms: 0.1395E+00   max: -.8053E+00   D at   25  2   RLX: 0.621
       a = -3.000      CL =  0.0985
      Cm = -0.0791     CD =  0.01170   =>   CDf =  0.00614    CDp =  0.00557

 Side 1  free  transition at x/c =  0.9592   73
 Side 2  free  transition at x/c =  0.0576   19

  25   rms: 0.5964E-01   max: -.5571E+00   D at   25  2   RLX: 0.897
       a = -3.000      CL =  0.1135
      Cm = -0.0808     CD =  0.01215   =>   CDf =  0.00602    CDp =  0.00613

 Side 1  free  transition at x/c =  0.9677   74
 Side 2  free  transition at x/c =  0.0582   19

  26   rms: 0.1576E-01   max: -.1753E+00   D at   25  2
       a = -3.000      CL =  0.1134
      Cm = -0.0806     CD =  0.01217   =>   CDf =  0.00608    CDp =  0.00609

 Side 1  free  transition at x/c =  0.9669   74
 Side 2  free  transition at x/c =  0.0580   19

  27   rms: 0.6858E-03   max: -.1066E-01   D at   25  2
       a = -3.000      CL =  0.1134
      Cm = -0.0807     CD =  0.01218   =>   CDf =  0.00609    CDp =  0.00609

 Side 1  free  transition at x/c =  0.9669   74
 Side 2  free  transition at x/c =  0.0580   19

  28   rms: 0.5180E-05   max: 0.3670E-04   D at   20  2
       a = -3.000      CL =  0.1134
      Cm = -0.0807     CD =  0.01218   =>   CDf =  0.00609    CDp =  0.00609
 plradd ia,ip,cpol            3           0  9.48153087E-04

 Point added to stored polar  1
 Point written to save file  isa571_Re400k.base.pol                          
 Dump file unspecified or not available
 Calculating wake trajectory ...
 Calculating source influence matrix ...

 Solving BL system ...

 Side 1  free  transition at x/c =  0.9669   74
 Side 2  free  transition at x/c =  0.0580   19

   1   rms: 0.1235E+00   max: -.1026E+01   T at   19  2   RLX: 0.488
       a = -2.500      CL =  0.1533
      Cm = -0.0833     CD =  0.01180   =>   CDf =  0.00614    CDp =  0.00567

 Side 1  free  transition at x/c =  0.9652   74
 Side 2  free  transition at x/c =  0.0623   19
 idif Ue xi dudx           1  0.20053126      2.05051899E-03   97.795364    
 Uenew xinew           2  1.26490556E-02  1.29342079E-04

   2   rms: 0.3254E+00   max: 0.4773E+01   D at    2  1   RLX: 0.226
       a = -2.500      CL =  0.1329
      Cm = -0.0775     CD =  0.01271   =>   CDf =  0.00615    CDp =  0.00656

 Side 1  free  transition at x/c =  0.9504   72
 Side 2  free  transition at x/c =  0.0617   19

   3   rms: 0.1674E+00   max: -.2108E+01   D at    2  2   RLX: 0.237
       a = -2.500      CL =  0.1516
      Cm = -0.0798     CD =  0.01317   =>   CDf =  0.00617    CDp =  0.00699

 Side 1  free  transition at x/c =  0.9560   74
 Side 2  free  transition at x/c =  0.0622   19

   4   rms: 0.8680E-01   max: -.7225E+00   D at    2  1   RLX: 0.692
       a = -2.500      CL =  0.1736
      Cm = -0.0823     CD =  0.01112   =>   CDf =  0.00620    CDp =  0.00492

 Side 1  free  transition at x/c =  0.9569   74
 Side 2  free  transition at x/c =  0.0630   19

   5   rms: 0.2100E-01   max: -.7071E-01   D at   21  2
       a = -2.500      CL =  0.1833
      Cm = -0.0834     CD =  0.01102   =>   CDf =  0.00623    CDp =  0.00479

 Side 1  free  transition at x/c =  0.9573   74
 Side 2  free  transition at x/c =  0.0632   19

   6   rms: 0.1959E-03   max: -.1367E-02   D at   21  2
       a = -2.500      CL =  0.1834
      Cm = -0.0834     CD =  0.01103   =>   CDf =  0.00624    CDp =  0.00479

 Side 1  free  transition at x/c =  0.9573   74
 Side 2  free  transition at x/c =  0.0632   19

   7   rms: 0.7189E-06   max: 0.3243E-05   D at   22  2
       a = -2.500      CL =  0.1834
      Cm = -0.0834     CD =  0.01103   =>   CDf =  0.00624    CDp =  0.00479
 plradd ia,ip,cpol            4           0  2.04600277E-03

 Point added to stored polar  1
 Point written to save file  isa571_Re400k.base.pol                          
 Dump file unspecified or not available
 Calculating wake trajectory ...
 Calculating source influence matrix ...

 Solving BL system ...

 Side 1  free  transition at x/c =  0.9573   74
 Side 2  free  transition at x/c =  0.0632   19

   1   rms: 0.1556E+00   max: -.4471E+00   D at   21  2
       a = -2.000      CL =  0.2615
      Cm = -0.0880     CD =  0.00945   =>   CDf =  0.00628    CDp =  0.00317

 Side 1  free  transition at x/c =  0.9485   74
 Side 2  free  transition at x/c =  0.0689   18

   2   rms: 0.3408E-01   max: 0.4309E+00   D at   18  2
       a = -2.000      CL =  0.2534
      Cm = -0.0861     CD =  0.00992   =>   CDf =  0.00624    CDp =  0.00367

 Side 1  free  transition at x/c =  0.9452   74
 Side 2  free  transition at x/c =  0.0678   18

   3   rms: 0.5613E-02   max: 0.4672E-01   D at   18  2
       a = -2.000      CL =  0.2548
      Cm = -0.0864     CD =  0.00991   =>   CDf =  0.00624    CDp =  0.00366

 Side 1  free  transition at x/c =  0.9462   74
 Side 2  free  transition at x/c =  0.0678   18

   4   rms: 0.1277E-03   max: -.8661E-03   D at   75  1
       a = -2.000      CL =  0.2548
      Cm = -0.0864     CD =  0.00991   =>   CDf =  0.00624    CDp =  0.00366

 Side 1  free  transition at x/c =  0.9462   74
 Side 2  free  transition at x/c =  0.0678   18

   5   rms: 0.1362E-05   max: 0.5782E-05   D at   21  2
       a = -2.000      CL =  0.2548
      Cm = -0.0864     CD =  0.00991   =>   CDf =  0.00624    CDp =  0.00366
 plradd ia,ip,cpol            5           0  3.57725308E-03

 Point added to stored polar  1
 Point written to save file  isa571_Re400k.base.pol                          
 Dump file unspecified or not available
 Calculating wake trajectory ...
 Calculating source influence matrix ...

 Solving BL system ...

 Side 1  free  transition at x/c =  0.9462   74
 Side 2  free  transition at x/c =  0.0678   18

   1   rms: 0.1251E+00   max: -.2989E+00   T at   18  2
       a = -1.500      CL =  0.3235
      Cm = -0.0885     CD =  0.00892   =>   CDf =  0.00625    CDp =  0.00268

 Side 1  free  transition at x/c =  0.9223   72
 Side 2  free  transition at x/c =  0.0736   18

   2   rms: 0.1723E-01   max: -.2436E+00   D at   73  1
       a = -1.500      CL =  0.3273
      Cm = -0.0892     CD =  0.00898   =>   CDf =  0.00627    CDp =  0.00271

 Side 1  free  transition at x/c =  0.9295   73
 Side 2  free  transition at x/c =  0.0734   18

   3   rms: 0.1613E-01   max: 0.1392E+00   C at   73  1
       a = -1.500      CL =  0.3239
      Cm = -0.0885     CD =  0.00901   =>   CDf =  0.00627    CDp =  0.00273

 Side 1  free  transition at x/c =  0.9258   73
 Side 2  free  transition at x/c =  0.0732   18

   4   rms: 0.8372E-03   max: -.8401E-02   D at   73  1
       a = -1.500      CL =  0.3233
      Cm = -0.0884     CD =  0.00903   =>   CDf =  0.00627    CDp =  0.00275

 Side 1  free  transition at x/c =  0.9258   73
 Side 2  free  transition at x/c =  0.0732   18

   5   rms: 0.4593E-05   max: -.3374E-04   C at   73  1
       a = -1.500      CL =  0.3233
      Cm = -0.0884     CD =  0.00903   =>   CDf =  0.00627    CDp =  0.00275
 plradd ia,ip,cpol            6           0  1.34296399E-02

 Point added to stored polar  1
 Point written to save file  isa571_Re400k.base.pol                          
 Dump file unspecified or not available
 Calculating wake trajectory ...
 Calculating source influence matrix ...

 Solving BL system ...

 Side 1  free  transition at x/c =  0.9258   73
 Side 2  free  transition at x/c =  0.0732   18

   1   rms: 0.1352E+00   max: -.4080E+00   T at   18  2
       a = -1.000      CL =  0.4021
      Cm = -0.0926     CD =  0.00818   =>   CDf =  0.00630    CDp =  0.00188

 Side 1  free  transition at x/c =  0.9043   72
 Side 2  free  transition at x/c =  0.0851   18

   2   rms: 0.4734E-01   max: -.3685E+00   D at   18  2
       a = -1.000      CL =  0.3894
      Cm = -0.0899     CD =  0.00841   =>   CDf =  0.00625    CDp =  0.00216

 Side 1  free  transition at x/c =  0.8895   71
 Side 2  free  transition at x/c =  0.0895   19

   3   rms: 0.1511E-01   max: 0.2014E+00   C at   19  2
       a = -1.000      CL =  0.3855
      Cm = -0.0891     CD =  0.00848   =>   CDf =  0.00624    CDp =  0.00224

 Side 1  free  transition at x/c =  0.8886   71
 Side 2  free  transition at x/c =  0.0859   19

   4   rms: 0.1609E-02   max: -.3271E-01   D at   20  2
       a = -1.000      CL =  0.3856
      Cm = -0.0891     CD =  0.00849   =>   CDf =  0.00626    CDp =  0.00223

 Side 1  free  transition at x/c =  0.8886   71
 Side 2  free  transition at x/c =  0.0858   19

   5   rms: 0.3357E-04   max: -.5952E-03   D at   20  2
       a = -1.000      CL =  0.3856
      Cm = -0.0891     CD =  0.00849   =>   CDf =  0.00627    CDp =  0.00223
 plradd ia,ip,cpol            7           0  0.11465332    

 Point added to stored polar  1
 Point written to save file  isa571_Re400k.base.pol                          
 Dump file unspecified or not available
 Calculating wake trajectory ...
 Calculating source influence matrix ...

 Solving BL system ...

 Side 1  free  transition at x/c =  0.8886   71
 Side 2  free  transition at x/c =  0.0858   19

   1   rms: 0.1369E+00   max: -.8050E+00   T at   19  2   RLX: 0.621
       a = -0.500      CL =  0.4247
      Cm = -0.0897     CD =  0.00813   =>   CDf =  0.00627    CDp =  0.00186

 Side 1  free  transition at x/c =  0.8472   68
 Side 2  free  transition at x/c =  0.1003   20

   2   rms: 0.1284E+00   max: -.9679E+00   T at   20  2   RLX: 0.517
       a = -0.500      CL =  0.4353
      Cm = -0.0892     CD =  0.00811   =>   CDf =  0.00638    CDp =  0.00173

 Side 1  free  transition at x/c =  0.8325   68
 Side 2  free  transition at x/c =  0.1105   19

   3   rms: 0.3868E-01   max: -.3001E+00   T at   19  2
       a = -0.500      CL =  0.4459
      Cm = -0.0892     CD =  0.00828   =>   CDf =  0.00641    CDp =  0.00187

 Side 1  free  transition at x/c =  0.8166   67
 Side 2  free  transition at x/c =  0.1240   20

   4   rms: 0.1835E-01   max: 0.3686E+00   C at   20  2
       a = -0.500      CL =  0.4459
      Cm = -0.0893     CD =  0.00820   =>   CDf =  0.00641    CDp =  0.00179

 Side 1  free  transition at x/c =  0.8183   67
 Side 2  free  transition at x/c =  0.1236   20

   5   rms: 0.1987E-02   max: 0.3731E-01   C at   20  2
       a = -0.500      CL =  0.4459
      Cm = -0.0893     CD =  0.00820   =>   CDf =  0.00640    CDp =  0.00179

 Side 1  free  transition at x/c =  0.8183   67
 Side 2  free  transition at x/c =  0.1231   20

   6   rms: 0.2737E-04   max: -.5152E-03   D at   21  2
       a = -0.500      CL =  0.4459
      Cm = -0.0893     CD =  0.00820   =>   CDf =  0.00640    CDp =  0.00179
 plradd ia,ip,cpol            8           0  0.11465332    

 Point added to stored polar  1
 Point written to save file  isa571_Re400k.base.pol                          
 Dump file unspecified or not available
 Calculating wake trajectory ...
 Calculating source influence matrix ...

 Solving BL system ...

 Side 1  free  transition at x/c =  0.8183   67
 Side 2  free  transition at x/c =  0.1231   20

   1   rms: 0.1490E+00   max: 0.1717E+01   C at   67  1   RLX: 0.743
       a =  0.000      CL =  0.4866
      Cm = -0.0886     CD =  0.00822   =>   CDf =  0.00641    CDp =  0.00181

 Side 1  free  transition at x/c =  0.7254   61
 Side 2  free  transition at x/c =  0.1539   22

   2   rms: 0.4874E-01   max: -.4760E+00   D at   22  2
       a =  0.000      CL =  0.4963
      Cm = -0.0876     CD =  0.00846   =>   CDf =  0.00685    CDp =  0.00161

 Side 1  free  transition at x/c =  0.7041   59
 Side 2  free  transition at x/c =  0.4556   43

   3   rms: 0.5980E+00   max: -.1105E+02   C at   43  2   RLX: 0.045
       a =  0.000      CL =  0.4947
      Cm = -0.0872     CD =  0.00772   =>   CDf =  0.00606    CDp =  0.00166

 Side 1  free  transition at x/c =  0.7043   59
 Side 2  free  transition at x/c =  0.4628   43

   4   rms: 0.7436E+00   max: -.1275E+02   C at   43  2   RLX: 0.039
       a =  0.000      CL =  0.4947
      Cm = -0.0873     CD =  0.00769   =>   CDf =  0.00602    CDp =  0.00167

 Side 1  free  transition at x/c =  0.7045   59
 Side 2  free  transition at x/c =  0.4842   45

   5   rms: 0.9150E+00   max: -.1643E+02   C at   45  2   RLX: 0.030
       a =  0.000      CL =  0.4946
      Cm = -0.0873     CD =  0.00763   =>   CDf =  0.00596    CDp =  0.00167

 Side 1  free  transition at x/c =  0.7047   59
 Side 2  free  transition at x/c =  0.5062   46

   6   rms: 0.1219E+01   max: -.2107E+02   C at   46  2   RLX: 0.024
       a =  0.000      CL =  0.4945
      Cm = -0.0874     CD =  0.00758   =>   CDf =  0.00591    CDp =  0.00167

 Side 1  free  transition at x/c =  0.7049   59
 Side 2  free  transition at x/c =  0.5268   48

   7   rms: 0.1224E+01   max: -.2223E+02   C at   48  2   RLX: 0.022
       a =  0.000      CL =  0.4943
      Cm = -0.0874     CD =  0.00752   =>   CDf =  0.00585    CDp =  0.00167

 Side 1  free  transition at x/c =  0.7050   59
 Side 2  free  transition at x/c =  0.5475   49

   8   rms: 0.1431E+01   max: -.2514E+02   C at   49  2   RLX: 0.020
       a =  0.000      CL =  0.4942
      Cm = -0.0874     CD =  0.00747   =>   CDf =  0.00579    CDp =  0.00168

 Side 1  free  transition at x/c =  0.7052   59
 Side 2  free  transition at x/c =  0.5679   50

   9   rms: 0.1637E+01   max: -.2777E+02   C at   50  2   RLX: 0.018
       a =  0.000      CL =  0.4940
      Cm = -0.0874     CD =  0.00741   =>   CDf =  0.00573    CDp =  0.00169

 Side 1  free  transition at x/c =  0.7054   59
 Side 2  free  transition at x/c =  0.5867   52

  10   rms: 0.1403E+01   max: -.2511E+02   C at   52  2   RLX: 0.020
       a =  0.000      CL =  0.4938
      Cm = -0.0873     CD =  0.00735   =>   CDf =  0.00567    CDp =  0.00169

 Side 1  free  transition at x/c =  0.7056   59
 Side 2  free  transition at x/c =  0.6072   53

  11   rms: 0.1432E+01   max: -.2479E+02   C at   53  2   RLX: 0.020
       a =  0.000      CL =  0.4936
      Cm = -0.0873     CD =  0.00730   =>   CDf =  0.00560    CDp =  0.00169

 Side 1  free  transition at x/c =  0.7057   59
 Side 2  free  transition at x/c =  0.6284   55

  12   rms: 0.1222E+01   max: -.2205E+02   C at   55  2   RLX: 0.023
       a =  0.000      CL =  0.4933
      Cm = -0.0873     CD =  0.00723   =>   CDf =  0.00554    CDp =  0.00169

 Side 1  free  transition at x/c =  0.7060   59
 Side 2  free  transition at x/c =  0.6493   56

  13   rms: 0.1198E+01   max: -.2105E+02   C at   56  2   RLX: 0.024
       a =  0.000      CL =  0.4930
      Cm = -0.0873     CD =  0.00718   =>   CDf =  0.00547    CDp =  0.00171

 Side 1  free  transition at x/c =  0.7062   59
 Side 2  free  transition at x/c =  0.6690   57

  14   rms: 0.1071E+01   max: -.1841E+02   C at   57  2   RLX: 0.027
       a =  0.000      CL =  0.4928
      Cm = -0.0873     CD =  0.00712   =>   CDf =  0.00541    CDp =  0.00171

 Side 1  free  transition at x/c =  0.7065   59
 Side 2  free  transition at x/c =  0.6861   58

  15   rms: 0.8229E+00   max: -.1401E+02   C at   58  2   RLX: 0.036
       a =  0.000      CL =  0.4925
      Cm = -0.0872     CD =  0.00707   =>   CDf =  0.00535    CDp =  0.00172

 Side 1  free  transition at x/c =  0.7068   59
 Side 2  free  transition at x/c =  0.6790   58

  16   rms: 0.3654E+00   max: -.6462E+01   C at   58  2   RLX: 0.077
       a =  0.000      CL =  0.4925
      Cm = -0.0874     CD =  0.00708   =>   CDf =  0.00537    CDp =  0.00171

 Side 1  free  transition at x/c =  0.7072   59
 Side 2  free  transition at x/c =  0.6818   58

  17   rms: 0.2249E+00   max: -.3929E+01   C at   58  2   RLX: 0.127
       a =  0.000      CL =  0.4925
      Cm = -0.0875     CD =  0.00707   =>   CDf =  0.00536    CDp =  0.00171

 Side 1  free  transition at x/c =  0.7077   59
 Side 2  free  transition at x/c =  0.7041   60

  18   rms: 0.1748E+00   max: -.3134E+01   C at   60  2   RLX: 0.160
       a =  0.000      CL =  0.4920
      Cm = -0.0875     CD =  0.00700   =>   CDf =  0.00528    CDp =  0.00171

 Side 1  free  transition at x/c =  0.7082   59
 Side 2  free  transition at x/c =  0.7199   61

  19   rms: 0.2126E+00   max: -.3762E+01   C at   61  2   RLX: 0.133
       a =  0.000      CL =  0.4915
      Cm = -0.0874     CD =  0.00694   =>   CDf =  0.00522    CDp =  0.00172

 Side 1  free  transition at x/c =  0.7080   59
 Side 2  free  transition at x/c =  0.7236   61

  20   rms: 0.1212E+00   max: -.2107E+01   C at   61  2   RLX: 0.237
       a =  0.000      CL =  0.4911
      Cm = -0.0874     CD =  0.00694   =>   CDf =  0.00522    CDp =  0.00172

 Side 1  free  transition at x/c =  0.7087   59
 Side 2  free  transition at x/c =  0.7564   63

  21   rms: 0.1076E+00   max: -.1823E+01   C at   63  2   RLX: 0.274
       a =  0.000      CL =  0.4901
      Cm = -0.0871     CD =  0.00684   =>   CDf =  0.00510    CDp =  0.00173

 Side 1  free  transition at x/c =  0.7090   60
 Side 2  free  transition at x/c =  0.7471   63

  22   rms: 0.4729E-01   max: -.8369E+00   C at   63  2   RLX: 0.597
       a =  0.000      CL =  0.4902
      Cm = -0.0872     CD =  0.00685   =>   CDf =  0.00514    CDp =  0.00171

 Side 1  free  transition at x/c =  0.7098   60
 Side 2  free  transition at x/c =  0.7885   65

  23   rms: 0.1045E-01   max: 0.1640E+00   C at   65  2
       a =  0.000      CL =  0.4899
      Cm = -0.0871     CD =  0.00680   =>   CDf =  0.00498    CDp =  0.00182

 Side 1  free  transition at x/c =  0.7105   60
 Side 2  free  transition at x/c =  0.7717   64

  24   rms: 0.8565E-02   max: -.1455E+00   C at   64  2
       a =  0.000      CL =  0.4901
      Cm = -0.0872     CD =  0.00682   =>   CDf =  0.00503    CDp =  0.00179

 Side 1  free  transition at x/c =  0.7104   60
 Side 2  free  transition at x/c =  0.7773   65

  25   rms: 0.5981E-03   max: -.1062E-01   C at   65  2
       a =  0.000      CL =  0.4901
      Cm = -0.0872     CD =  0.00682   =>   CDf =  0.00501    CDp =  0.00181

 Side 1  free  transition at x/c =  0.7104   60
 Side 2  free  transition at x/c =  0.7776   65

  26   rms: 0.6343E-04   max: 0.1120E-02   C at   65  2
       a =  0.000      CL =  0.4901
      Cm = -0.0872     CD =  0.00682   =>   CDf =  0.00501    CDp =  0.00181
 plradd ia,ip,cpol            9           0  0.11465332    

 Point added to stored polar  1
 Point written to save file  isa571_Re400k.base.pol                          
 Dump file unspecified or not available
 Calculating wake trajectory ...
 Calculating source influence matrix ...

 Solving BL system ...

 Side 1  free  transition at x/c =  0.7104   60
 Side 2  free  transition at x/c =  0.7776   65

   1   rms: 0.1084E+01   max: -.1913E+02   C at   65  2   RLX: 0.026
       a =  0.500      CL =  0.4903
      Cm = -0.0869     CD =  0.00677   =>   CDf =  0.00501    CDp =  0.00176

 Side 1  free  transition at x/c =  0.7082   59
 Side 2  free  transition at x/c =  0.8057   66

   2   rms: 0.1259E+01   max: -.2063E+02   C at   66  2   RLX: 0.024
       a =  0.500      CL =  0.4904
      Cm = -0.0865     CD =  0.00670   =>   CDf =  0.00493    CDp =  0.00177

 Side 1  free  transition at x/c =  0.7060   59
 Side 2  free  transition at x/c =  0.8332   68

   3   rms: 0.1258E+01   max: -.2049E+02   C at   68  2   RLX: 0.024
       a =  0.500      CL =  0.4900
      Cm = -0.0860     CD =  0.00664   =>   CDf =  0.00485    CDp =  0.00178

 Side 1  free  transition at x/c =  0.7041   59
 Side 2  free  transition at x/c =  0.8437   69

   4   rms: 0.1094E+01   max: -.1814E+02   C at   69  2   RLX: 0.028
       a =  0.500      CL =  0.4900
      Cm = -0.0857     CD =  0.00662   =>   CDf =  0.00483    CDp =  0.00179

 Side 1  free  transition at x/c =  0.7019   59
 Side 2  free  transition at x/c =  0.8647   71

   5   rms: 0.1103E+01   max: -.1904E+02   C at   71  2   RLX: 0.026
       a =  0.500      CL =  0.4895
      Cm = -0.0852     CD =  0.00658   =>   CDf =  0.00479    CDp =  0.00179

 Side 1  free  transition at x/c =  0.7001   59
 Side 2  free  transition at x/c =  0.8674   71

   6   rms: 0.8776E+00   max: -.1499E+02   C at   71  2   RLX: 0.033
       a =  0.500      CL =  0.4899
      Cm = -0.0850     CD =  0.00659   =>   CDf =  0.00479    CDp =  0.00180

 Side 1  free  transition at x/c =  0.6975   59
 Side 2  free  transition at x/c =  0.9049   73

   7   rms: 0.2648E+01   max: -.4215E+02   C at   73  2   RLX: 0.012
       a =  0.500      CL =  0.4901
      Cm = -0.0847     CD =  0.00653   =>   CDf =  0.00473    CDp =  0.00180

 Side 1  free  transition at x/c =  0.6965   59
 Side 2  free  transition at x/c =  0.9060   73

   8   rms: 0.1463E+01   max: -.2325E+02   C at   73  2   RLX: 0.022
       a =  0.500      CL =  0.4914
      Cm = -0.0848     CD =  0.00655   =>   CDf =  0.00474    CDp =  0.00181

 Side 1  free  transition at x/c =  0.6946   59
 Side 2  free  transition at x/c =  0.9356   75

   9   rms: 0.1809E+01   max: -.2786E+02   C at   75  2   RLX: 0.018
       a =  0.500      CL =  0.4941
      Cm = -0.0852     CD =  0.00653   =>   CDf =  0.00472    CDp =  0.00181

 Side 1  free  transition at x/c =  0.6923   58
 Side 2  free  transition at x/c =  0.9666   78

  10   rms: 0.1335E+02   max: -.2062E+03   C at   78  2   RLX: 0.002
       a =  0.500      CL =  0.4975
      Cm = -0.0859     CD =  0.00649   =>   CDf =  0.00472    CDp =  0.00177

 Side 1  free  transition at x/c =  0.6904   58
 Side 2  free  transition at x/c =  0.9916   80

  11   rms: 0.9837E+00   max: -.1782E+02   C at   80  2   RLX: 0.028
       a =  0.500      CL =  0.5018
      Cm = -0.0866     CD =  0.00651   =>   CDf =  0.00475    CDp =  0.00176

 Side 1  free  transition at x/c =  0.6860   59
 Side 2 forced transition at x/c =  1.0000   80

  12   rms: 0.1959E+00   max: -.2392E+01   D at    2  1   RLX: 0.209
       a =  0.500      CL =  0.5093
      Cm = -0.0862     CD =  0.00667   =>   CDf =  0.00475    CDp =  0.00192

 Side 1  free  transition at x/c =  0.6676   58
 Side 2 forced transition at x/c =  1.0000   80

  13   rms: 0.1033E+00   max: 0.1375E+01   C at   58  1
       a =  0.500      CL =  0.5374
      Cm = -0.0845     CD =  0.00715   =>   CDf =  0.00488    CDp =  0.00228

 Side 1  free  transition at x/c =  0.6068   54
 Side 2 forced transition at x/c =  1.0000   80

  14   rms: 0.1830E-01   max: 0.2027E+00   D at   57  1
       a =  0.500      CL =  0.5386
      Cm = -0.0848     CD =  0.00705   =>   CDf =  0.00528    CDp =  0.00177

 Side 1  free  transition at x/c =  0.6113   54
 Side 2 forced transition at x/c =  1.0000   80

  15   rms: 0.2828E-02   max: 0.4375E-01   C at   54  1
       a =  0.500      CL =  0.5386
      Cm = -0.0848     CD =  0.00707   =>   CDf =  0.00523    CDp =  0.00185

 Side 1  free  transition at x/c =  0.6100   54
 Side 2 forced transition at x/c =  1.0000   80

  16   rms: 0.4102E-04   max: -.7583E-03   D at   57  1
       a =  0.500      CL =  0.5386
      Cm = -0.0848     CD =  0.00707   =>   CDf =  0.00524    CDp =  0.00184
 plradd ia,ip,cpol           10           0  0.11465332    

 Point added to stored polar  1
 Point written to save file  isa571_Re400k.base.pol                          
 Dump file unspecified or not available
 Calculating wake trajectory ...
 Calculating source influence matrix ...

 Solving BL system ...

 Side 1  free  transition at x/c =  0.6100   54
 Side 2 forced transition at x/c =  1.0000   80

   1   rms: 0.1573E+00   max: 0.1974E+01   C at   54  1   RLX: 0.749
       a =  1.000      CL =  0.5747
      Cm = -0.0836     CD =  0.00760   =>   CDf =  0.00524    CDp =  0.00236

 Side 1  free  transition at x/c =  0.5448   50
 Side 2 forced transition at x/c =  1.0000   79

   2   rms: 0.3134E-01   max: -.3195E-01   n at   78  2
       a =  1.000      CL =  0.5891
      Cm = -0.0837     CD =  0.00759   =>   CDf =  0.00562    CDp =  0.00197

 Side 1  free  transition at x/c =  0.5202   49
 Side 2 forced transition at x/c =  1.0000   79

   3   rms: 0.6926E-02   max: -.1186E+00   C at   49  1
       a =  1.000      CL =  0.5883
      Cm = -0.0836     CD =  0.00766   =>   CDf =  0.00574    CDp =  0.00192

 Side 1  free  transition at x/c =  0.5235   49
 Side 2 forced transition at x/c =  1.0000   79

   4   rms: 0.1337E-03   max: -.2561E-02   D at   52  1
       a =  1.000      CL =  0.5883
      Cm = -0.0836     CD =  0.00766   =>   CDf =  0.00571    CDp =  0.00195

 Side 1  free  transition at x/c =  0.5235   49
 Side 2 forced transition at x/c =  1.0000   79

   5   rms: 0.1351E-05   max: 0.1002E-04   C at   49  1
       a =  1.000      CL =  0.5883
      Cm = -0.0836     CD =  0.00766   =>   CDf =  0.00571    CDp =  0.00195
 plradd ia,ip,cpol           11           0  0.11465332    

 Point added to stored polar  1
 Point written to save file  isa571_Re400k.base.pol                          
 Dump file unspecified or not available
 Calculating wake trajectory ...
 Calculating source influence matrix ...

 Solving BL system ...

 Side 1  free  transition at x/c =  0.5235   49
 Side 2 forced transition at x/c =  1.0000   79

   1   rms: 0.1439E+00   max: 0.2050E+01   C at   49  1   RLX: 0.732
       a =  1.500      CL =  0.6247
      Cm = -0.0827     CD =  0.00813   =>   CDf =  0.00571    CDp =  0.00242

 Side 1  free  transition at x/c =  0.4626   45
 Side 2 forced transition at x/c =  1.0000   79

   2   rms: 0.3072E-01   max: -.4261E-01   n at   78  2
       a =  1.500      CL =  0.6385
      Cm = -0.0826     CD =  0.00829   =>   CDf =  0.00610    CDp =  0.00219

 Side 1  free  transition at x/c =  0.4500   44
 Side 2 forced transition at x/c =  1.0000   79

   3   rms: 0.1699E-02   max: -.2828E-01   C at   44  1
       a =  1.500      CL =  0.6385
      Cm = -0.0825     CD =  0.00829   =>   CDf =  0.00616    CDp =  0.00213

 Side 1  free  transition at x/c =  0.4506   44
 Side 2 forced transition at x/c =  1.0000   79

   4   rms: 0.1101E-04   max: -.1572E-03   D at   46  1
       a =  1.500      CL =  0.6385
      Cm = -0.0825     CD =  0.00829   =>   CDf =  0.00616    CDp =  0.00214
 plradd ia,ip,cpol           12           0  0.10226236    

 Point added to stored polar  1
 Point written to save file  isa571_Re400k.base.pol                          
 Dump file unspecified or not available
 Calculating wake trajectory ...
 Calculating source influence matrix ...

 Solving BL system ...

 Side 1  free  transition at x/c =  0.4506   44
 Side 2 forced transition at x/c =  1.0000   79

   1   rms: 0.1232E+00   max: 0.1486E+01   C at   44  1
       a =  2.000      CL =  0.6898
      Cm = -0.0818     CD =  0.00890   =>   CDf =  0.00611    CDp =  0.00279

 Side 1  free  transition at x/c =  0.4085   42
 Side 2 forced transition at x/c =  1.0000   78

   2   rms: 0.1839E-01   max: 0.2383E+00   D at   44  1
       a =  2.000      CL =  0.6905
      Cm = -0.0819     CD =  0.00880   =>   CDf =  0.00646    CDp =  0.00234

 Side 1  free  transition at x/c =  0.4119   42
 Side 2 forced transition at x/c =  1.0000   78

   3   rms: 0.2883E-02   max: 0.4524E-01   C at   42  1
       a =  2.000      CL =  0.6905
      Cm = -0.0819     CD =  0.00881   =>   CDf =  0.00641    CDp =  0.00240

 Side 1  free  transition at x/c =  0.4107   42
 Side 2 forced transition at x/c =  1.0000   78

   4   rms: 0.5901E-04   max: -.1186E-02   D at   44  1
       a =  2.000      CL =  0.6905
      Cm = -0.0819     CD =  0.00881   =>   CDf =  0.00642    CDp =  0.00239
 plradd ia,ip,cpol           13           0  5.11920601E-02

 Point added to stored polar  1
 Point written to save file  isa571_Re400k.base.pol                          
 Dump file unspecified or not available
 Calculating wake trajectory ...
 Calculating source influence matrix ...

 Solving BL system ...

 Side 1  free  transition at x/c =  0.4107   42
 Side 2 forced transition at x/c =  1.0000   78

   1   rms: 0.9740E-01   max: 0.6606E+00   C at   42  1
       a =  2.500      CL =  0.7439
      Cm = -0.0816     CD =  0.00921   =>   CDf =  0.00634    CDp =  0.00287

 Side 1  free  transition at x/c =  0.3816   41
 Side 2 forced transition at x/c =  1.0000   77

   2   rms: 0.1120E-01   max: 0.1666E+00   D at   42  1
       a =  2.500      CL =  0.7432
      Cm = -0.0815     CD =  0.00927   =>   CDf =  0.00662    CDp =  0.00265

 Side 1  free  transition at x/c =  0.3847   41
 Side 2 forced transition at x/c =  1.0000   77

   3   rms: 0.2105E-02   max: -.1924E-01   D at    4  1
       a =  2.500      CL =  0.7432
[...]
       a = 12.500      CL =  2.7482
      Cm = -0.6042     CD = 45.13469   =>   CDf =  0.00274    CDp = 45.13195

 MRCHDU: Convergence failed at  27  side 1    Res =  0.6457E-02
 MRCHDU: Convergence failed at  28  side 1    Res =  0.1061E-01
 MRCHDU: Convergence failed at  29  side 1    Res =  0.1008E-01
 MRCHDU: Convergence failed at  30  side 1    Res =  0.8949E-02
 MRCHDU: Convergence failed at  31  side 1    Res =  0.7748E-02
 MRCHDU: Convergence failed at  32  side 1    Res =  0.6700E-02
 MRCHDU: Convergence failed at  33  side 1    Res =  0.5609E-02
 MRCHDU: Convergence failed at  34  side 1    Res =  0.4931E-02
 MRCHDU: Convergence failed at  35  side 1    Res =  0.4392E-02
 MRCHDU: Convergence failed at  36  side 1    Res =  0.7458E-01
 Side 1  free  transition at x/c =  0.0145   17
 Side 2 forced transition at x/c =  1.0000   73

 135   rms: 0.5352E+05   max: -.2277E+06   C at   82  1   RLX: 0.000
       a = 12.500      CL =  2.7482
      Cm = -0.6042     CD = 45.21217   =>   CDf =  0.00274    CDp = 45.20943

 MRCHDU: Convergence failed at  27  side 1    Res =  0.6495E-02
 MRCHDU: Convergence failed at  28  side 1    Res =  0.1061E-01
 MRCHDU: Convergence failed at  29  side 1    Res =  0.1008E-01
 MRCHDU: Convergence failed at  30  side 1    Res =  0.8948E-02
 MRCHDU: Convergence failed at  31  side 1    Res =  0.7747E-02
 MRCHDU: Convergence failed at  32  side 1    Res =  0.6699E-02
 MRCHDU: Convergence failed at  33  side 1    Res =  0.5609E-02
 MRCHDU: Convergence failed at  34  side 1    Res =  0.4931E-02
 MRCHDU: Convergence failed at  35  side 1    Res =  0.4391E-02
 MRCHDU: Convergence failed at  36  side 1    Res =  0.7458E-01
 MRCHDU: Convergence failed at  66  side 1    Res =  0.1485E-04
 Side 1  free  transition at x/c =  0.0145   17
 Side 2 forced transition at x/c =  1.0000   73

 136   rms: 0.2328E+06   max: 0.9978E+06   C at   82  1   RLX: 0.000
       a = 12.500      CL =  2.7482
      Cm = -0.6042     CD = 45.14557   =>   CDf =  0.00274    CDp = 45.14283

 MRCHDU: Convergence failed at  27  side 1    Res =  0.6488E-02
 MRCHDU: Convergence failed at  28  side 1    Res =  0.1061E-01
 MRCHDU: Convergence failed at  29  side 1    Res =  0.1008E-01
 MRCHDU: Convergence failed at  30  side 1    Res =  0.8948E-02
 MRCHDU: Convergence failed at  31  side 1    Res =  0.7747E-02
 MRCHDU: Convergence failed at  32  side 1    Res =  0.6699E-02
 MRCHDU: Convergence failed at  33  side 1    Res =  0.5609E-02
 MRCHDU: Convergence failed at  34  side 1    Res =  0.4931E-02
 MRCHDU: Convergence failed at  35  side 1    Res =  0.4391E-02
 MRCHDU: Convergence failed at  36  side 1    Res =  0.7456E-01
 Side 1  free  transition at x/c =  0.0145   17
 Side 2 forced transition at x/c =  1.0000   73

 137   rms: 0.4885E+04   max: -.2106E+05   C at   82  1   RLX: 0.000
       a = 12.500      CL =  2.7481
      Cm = -0.6042     CD = 45.54210   =>   CDf =  0.00274    CDp = 45.53936

 MRCHDU: Convergence failed at  27  side 1    Res =  0.6445E-02
 MRCHDU: Convergence failed at  28  side 1    Res =  0.1061E-01
 MRCHDU: Convergence failed at  29  side 1    Res =  0.1008E-01
 MRCHDU: Convergence failed at  30  side 1    Res =  0.8949E-02
 MRCHDU: Convergence failed at  31  side 1    Res =  0.7748E-02
 MRCHDU: Convergence failed at  32  side 1    Res =  0.6700E-02
 MRCHDU: Convergence failed at  33  side 1    Res =  0.5610E-02
 MRCHDU: Convergence failed at  34  side 1    Res =  0.4932E-02
 MRCHDU: Convergence failed at  35  side 1    Res =  0.4392E-02
 MRCHDU: Convergence failed at  36  side 1    Res =  0.7467E-01
 Side 1  free  transition at x/c =  0.0145   17
 Side 2 forced transition at x/c =  1.0000   73

 138   rms: 0.2178E+05   max: -.9574E+05   C at   82  1   RLX: 0.000
       a = 12.500      CL =  2.7481
      Cm = -0.6042     CD = 45.69487   =>   CDf =  0.00274    CDp = 45.69213

 MRCHDU: Convergence failed at  27  side 1    Res =  0.6457E-02
 MRCHDU: Convergence failed at  28  side 1    Res =  0.1061E-01
 MRCHDU: Convergence failed at  29  side 1    Res =  0.1008E-01
 MRCHDU: Convergence failed at  30  side 1    Res =  0.8949E-02
 MRCHDU: Convergence failed at  31  side 1    Res =  0.7748E-02
 MRCHDU: Convergence failed at  32  side 1    Res =  0.6700E-02
 MRCHDU: Convergence failed at  33  side 1    Res =  0.5610E-02
 MRCHDU: Convergence failed at  34  side 1    Res =  0.4932E-02
 MRCHDU: Convergence failed at  35  side 1    Res =  0.4392E-02
 MRCHDU: Convergence failed at  36  side 1    Res =  0.7467E-01
 Side 1  free  transition at x/c =  0.0145   17
 Side 2 forced transition at x/c =  1.0000   73

 139   rms: 0.1411E+06   max: -.6028E+06   C at   82  1   RLX: 0.000
       a = 12.500      CL =  2.7482
      Cm = -0.6042     CD = 45.74800   =>   CDf =  0.00274    CDp = 45.74526

 MRCHDU: Convergence failed at  27  side 1    Res =  0.6515E-02
 MRCHDU: Convergence failed at  28  side 1    Res =  0.1061E-01
 MRCHDU: Convergence failed at  29  side 1    Res =  0.1008E-01
 MRCHDU: Convergence failed at  30  side 1    Res =  0.8947E-02
 MRCHDU: Convergence failed at  31  side 1    Res =  0.7747E-02
 MRCHDU: Convergence failed at  32  side 1    Res =  0.6699E-02
 MRCHDU: Convergence failed at  33  side 1    Res =  0.5609E-02
 MRCHDU: Convergence failed at  34  side 1    Res =  0.4931E-02
 MRCHDU: Convergence failed at  35  side 1    Res =  0.4391E-02
 MRCHDU: Convergence failed at  36  side 1    Res =  0.7466E-01
 Side 1  free  transition at x/c =  0.0145   17
 Side 2 forced transition at x/c =  1.0000   73

 140   rms: 0.1173E+06   max: 0.5043E+06   C at   82  1   RLX: 0.000
       a = 12.500      CL =  2.7481
      Cm = -0.6042     CD = 45.70485   =>   CDf =  0.00274    CDp = 45.70211

 MRCHDU: Convergence failed at  27  side 1    Res =  0.6433E-02
 MRCHDU: Convergence failed at  28  side 1    Res =  0.1062E-01
 MRCHDU: Convergence failed at  29  side 1    Res =  0.1008E-01
 MRCHDU: Convergence failed at  30  side 1    Res =  0.8950E-02
 MRCHDU: Convergence failed at  31  side 1    Res =  0.7749E-02
 MRCHDU: Convergence failed at  32  side 1    Res =  0.6701E-02
 MRCHDU: Convergence failed at  33  side 1    Res =  0.5610E-02
 MRCHDU: Convergence failed at  34  side 1    Res =  0.4932E-02
 MRCHDU: Convergence failed at  35  side 1    Res =  0.4392E-02
 MRCHDU: Convergence failed at  36  side 1    Res =  0.7466E-01
 Side 1  free  transition at x/c =  0.0145   17
 Side 2 forced transition at x/c =  1.0000   73

 141   rms: 0.8480E+04   max: -.3989E+05   C at   82  1   RLX: 0.000
       a = 12.500      CL =  2.7481
      Cm = -0.6042     CD = 45.96251   =>   CDf =  0.00274    CDp = 45.95977

 MRCHDU: Convergence failed at  27  side 1    Res =  0.6377E-02
 MRCHDU: Convergence failed at  28  side 1    Res =  0.1062E-01
 MRCHDU: Convergence failed at  29  side 1    Res =  0.1008E-01
 MRCHDU: Convergence failed at  30  side 1    Res =  0.8952E-02
 MRCHDU: Convergence failed at  31  side 1    Res =  0.7750E-02
 MRCHDU: Convergence failed at  32  side 1    Res =  0.6701E-02
 MRCHDU: Convergence failed at  33  side 1    Res =  0.5611E-02
 MRCHDU: Convergence failed at  34  side 1    Res =  0.4932E-02
 MRCHDU: Convergence failed at  35  side 1    Res =  0.4392E-02
 MRCHDU: Convergence failed at  36  side 1    Res =  0.7469E-01
 MRCHDU: Convergence failed at  66  side 1    Res =  0.1053E-04
 Side 1  free  transition at x/c =  0.0145   17
 Side 2 forced transition at x/c =  1.0000   73

 142   rms: 0.3308E+05   max: -.1414E+06   C at   82  1   RLX: 0.000
       a = 12.500      CL =  2.7481
      Cm = -0.6042     CD = 46.06683   =>   CDf =  0.00274    CDp = 46.06409

 MRCHDU: Convergence failed at  27  side 1    Res =  0.6391E-02
 MRCHDU: Convergence failed at  28  side 1    Res =  0.1062E-01
 MRCHDU: Convergence failed at  29  side 1    Res =  0.1008E-01
 MRCHDU: Convergence failed at  30  side 1    Res =  0.8951E-02
 MRCHDU: Convergence failed at  31  side 1    Res =  0.7750E-02
 MRCHDU: Convergence failed at  32  side 1    Res =  0.6701E-02
 MRCHDU: Convergence failed at  33  side 1    Res =  0.5611E-02
 MRCHDU: Convergence failed at  34  side 1    Res =  0.4932E-02
 MRCHDU: Convergence failed at  35  side 1    Res =  0.4392E-02
 MRCHDU: Convergence failed at  36  side 1    Res =  0.7469E-01
 Side 1  free  transition at x/c =  0.0145   17
 Side 2 forced transition at x/c =  1.0000   73

 143   rms: 0.2980E+07   max: 0.1276E+08   C at   82  1   RLX: 0.000
       a = 12.500      CL =  2.7481
      Cm = -0.6042     CD = 45.97111   =>   CDf =  0.00274    CDp = 45.96837

 MRCHDU: Convergence failed at  27  side 1    Res =  0.6376E-02
 MRCHDU: Convergence failed at  28  side 1    Res =  0.1062E-01
 MRCHDU: Convergence failed at  29  side 1    Res =  0.1008E-01
 MRCHDU: Convergence failed at  30  side 1    Res =  0.8952E-02
 MRCHDU: Convergence failed at  31  side 1    Res =  0.7750E-02
 MRCHDU: Convergence failed at  32  side 1    Res =  0.6701E-02
 MRCHDU: Convergence failed at  33  side 1    Res =  0.5611E-02
 MRCHDU: Convergence failed at  34  side 1    Res =  0.4932E-02
 MRCHDU: Convergence failed at  35  side 1    Res =  0.4392E-02
 MRCHDU: Convergence failed at  36  side 1    Res =  0.7467E-01
 MRCHDU: Convergence failed at  66  side 1    Res =  0.1166E-04
 Side 1  free  transition at x/c =  0.0145   17
 Side 2 forced transition at x/c =  1.0000   73

 144   rms: 0.5553E+04   max: -.3088E+05   C at   69  1   RLX: 0.000
       a = 12.500      CL =  2.7481
      Cm = -0.6042     CD = 46.27311   =>   CDf =  0.00274    CDp = 46.27037

 MRCHDU: Convergence failed at  27  side 1    Res =  0.6421E-02
 MRCHDU: Convergence failed at  28  side 1    Res =  0.1062E-01
 MRCHDU: Convergence failed at  29  side 1    Res =  0.1008E-01
 MRCHDU: Convergence failed at  30  side 1    Res =  0.8951E-02
 MRCHDU: Convergence failed at  31  side 1    Res =  0.7749E-02
 MRCHDU: Convergence failed at  32  side 1    Res =  0.6701E-02
 MRCHDU: Convergence failed at  33  side 1    Res =  0.5611E-02
 MRCHDU: Convergence failed at  34  side 1    Res =  0.4932E-02
 MRCHDU: Convergence failed at  35  side 1    Res =  0.4392E-02
 MRCHDU: Convergence failed at  36  side 1    Res =  0.7464E-01
 Side 1  free  transition at x/c =  0.0145   17
 Side 2 forced transition at x/c =  1.0000   73

 145   rms: 0.7217E+04   max: -.3065E+05   C at   82  1   RLX: 0.000
       a = 12.500      CL =  2.7481
      Cm = -0.6042     CD = 46.57797   =>   CDf =  0.00274    CDp = 46.57523

 MRCHDU: Convergence failed at  27  side 1    Res =  0.6451E-02
 MRCHDU: Convergence failed at  28  side 1    Res =  0.1062E-01
 MRCHDU: Convergence failed at  29  side 1    Res =  0.1008E-01
 MRCHDU: Convergence failed at  30  side 1    Res =  0.8951E-02
 MRCHDU: Convergence failed at  31  side 1    Res =  0.7749E-02
 MRCHDU: Convergence failed at  32  side 1    Res =  0.6701E-02
 MRCHDU: Convergence failed at  33  side 1    Res =  0.5611E-02
 MRCHDU: Convergence failed at  34  side 1    Res =  0.4932E-02
 MRCHDU: Convergence failed at  35  side 1    Res =  0.4392E-02
 MRCHDU: Convergence failed at  36  side 1    Res =  0.7463E-01
 Side 1  free  transition at x/c =  0.0145   17
 Side 2 forced transition at x/c =  1.0000   73

 146   rms: 0.2708E+05   max: -.1140E+06   C at   82  1   RLX: 0.000
       a = 12.500      CL =  2.7481
      Cm = -0.6042     CD = 46.69968   =>   CDf =  0.00274    CDp = 46.69694

 MRCHDU: Convergence failed at  27  side 1    Res =  0.6419E-02
 MRCHDU: Convergence failed at  28  side 1    Res =  0.1062E-01
 MRCHDU: Convergence failed at  29  side 1    Res =  0.1008E-01
 MRCHDU: Convergence failed at  30  side 1    Res =  0.8952E-02
 MRCHDU: Convergence failed at  31  side 1    Res =  0.7750E-02
 MRCHDU: Convergence failed at  32  side 1    Res =  0.6702E-02
 MRCHDU: Convergence failed at  33  side 1    Res =  0.5611E-02
 MRCHDU: Convergence failed at  34  side 1    Res =  0.4933E-02
 MRCHDU: Convergence failed at  35  side 1    Res =  0.4392E-02
 MRCHDU: Convergence failed at  36  side 1    Res =  0.7465E-01
 Side 1  free  transition at x/c =  0.0145   17
 Side 2 forced transition at x/c =  1.0000   73

 147   rms: 0.4823E+06   max: -.2068E+07   C at   82  1   RLX: 0.000
       a = 12.500      CL =  2.7481
      Cm = -0.6042     CD = 46.73863   =>   CDf =  0.00274    CDp = 46.73589

 MRCHDU: Convergence failed at  27  side 1    Res =  0.6437E-02
 MRCHDU: Convergence failed at  28  side 1    Res =  0.1062E-01
 MRCHDU: Convergence failed at  29  side 1    Res =  0.1008E-01
 MRCHDU: Convergence failed at  30  side 1    Res =  0.8951E-02
 MRCHDU: Convergence failed at  31  side 1    Res =  0.7750E-02
 MRCHDU: Convergence failed at  32  side 1    Res =  0.6701E-02
 MRCHDU: Convergence failed at  33  side 1    Res =  0.5611E-02
 MRCHDU: Convergence failed at  34  side 1    Res =  0.4933E-02
 MRCHDU: Convergence failed at  35  side 1    Res =  0.4392E-02
 MRCHDU: Convergence failed at  36  side 1    Res =  0.7465E-01
 Side 1  free  transition at x/c =  0.0145   17
 Side 2 forced transition at x/c =  1.0000   73

 148   rms: 0.1047E+06   max: 0.4503E+06   C at   82  1   RLX: 0.000
       a = 12.500      CL =  2.7481
      Cm = -0.6042     CD = 46.70504   =>   CDf =  0.00274    CDp = 46.70230

 MRCHDU: Convergence failed at  27  side 1    Res =  0.6466E-02
 MRCHDU: Convergence failed at  28  side 1    Res =  0.1061E-01
 MRCHDU: Convergence failed at  29  side 1    Res =  0.1008E-01
 MRCHDU: Convergence failed at  30  side 1    Res =  0.8951E-02
 MRCHDU: Convergence failed at  31  side 1    Res =  0.7749E-02
 MRCHDU: Convergence failed at  32  side 1    Res =  0.6701E-02
 MRCHDU: Convergence failed at  33  side 1    Res =  0.5611E-02
 MRCHDU: Convergence failed at  34  side 1    Res =  0.4932E-02
 MRCHDU: Convergence failed at  35  side 1    Res =  0.4392E-02
 MRCHDU: Convergence failed at  36  side 1    Res =  0.7462E-01
 MRCHDU: Convergence failed at  82  side 1    Res =  0.1928E-04
 Side 1  free  transition at x/c =  0.0145   17
 Side 2 forced transition at x/c =  1.0000   73

 149   rms: 0.1120E+05   max: -.5036E+05   C at   82  1   RLX: 0.000
       a = 12.500      CL =  2.7481
      Cm = -0.6042     CD = 46.92626   =>   CDf =  0.00274    CDp = 46.92352

 MRCHDU: Convergence failed at  27  side 1    Res =  0.6411E-02
 MRCHDU: Convergence failed at  28  side 1    Res =  0.1062E-01
 MRCHDU: Convergence failed at  29  side 1    Res =  0.1008E-01
 MRCHDU: Convergence failed at  30  side 1    Res =  0.8953E-02
 MRCHDU: Convergence failed at  31  side 1    Res =  0.7751E-02
 MRCHDU: Convergence failed at  32  side 1    Res =  0.6702E-02
 MRCHDU: Convergence failed at  33  side 1    Res =  0.5612E-02
 MRCHDU: Convergence failed at  34  side 1    Res =  0.4933E-02
 MRCHDU: Convergence failed at  35  side 1    Res =  0.4393E-02
 MRCHDU: Convergence failed at  36  side 1    Res =  0.7466E-01
 Side 1  free  transition at x/c =  0.0145   17
 Side 2 forced transition at x/c =  1.0000   73

 150   rms: 0.4983E+05   max: -.2135E+06   C at   82  1   RLX: 0.000
       a = 12.500      CL =  2.7481
      Cm = -0.6042     CD = 47.00739   =>   CDf =  0.00274    CDp = 47.00465

 MRCHDU: Convergence failed at  27  side 1    Res =  0.6403E-02
 MRCHDU: Convergence failed at  28  side 1    Res =  0.1062E-01
 MRCHDU: Convergence failed at  29  side 1    Res =  0.1008E-01
 MRCHDU: Convergence failed at  30  side 1    Res =  0.8953E-02
 MRCHDU: Convergence failed at  31  side 1    Res =  0.7751E-02
 MRCHDU: Convergence failed at  32  side 1    Res =  0.6703E-02
 MRCHDU: Convergence failed at  33  side 1    Res =  0.5612E-02
 MRCHDU: Convergence failed at  34  side 1    Res =  0.4934E-02
 MRCHDU: Convergence failed at  35  side 1    Res =  0.4393E-02
 MRCHDU: Convergence failed at  36  side 1    Res =  0.7467E-01
 Side 1  free  transition at x/c =  0.0145   17
 Side 2 forced transition at x/c =  1.0000   73

 151   rms: 0.3413E+06   max: 0.1462E+07   C at   82  1   RLX: 0.000
       a = 12.500      CL =  2.7481
      Cm = -0.6042     CD = 46.93228   =>   CDf =  0.00274    CDp = 46.92954

 MRCHDU: Convergence failed at  27  side 1    Res =  0.6407E-02
 MRCHDU: Convergence failed at  28  side 1    Res =  0.1062E-01
 MRCHDU: Convergence failed at  29  side 1    Res =  0.1008E-01
 MRCHDU: Convergence failed at  30  side 1    Res =  0.8953E-02
 MRCHDU: Convergence failed at  31  side 1    Res =  0.7751E-02
 MRCHDU: Convergence failed at  32  side 1    Res =  0.6703E-02
 MRCHDU: Convergence failed at  33  side 1    Res =  0.5612E-02
 MRCHDU: Convergence failed at  34  side 1    Res =  0.4934E-02
 MRCHDU: Convergence failed at  35  side 1    Res =  0.4393E-02
 MRCHDU: Convergence failed at  36  side 1    Res =  0.7465E-01
 Side 1  free  transition at x/c =  0.0145   17
 Side 2 forced transition at x/c =  1.0000   73

 152   rms: 0.5908E+04   max: -.2524E+05   C at   70  1   RLX: 0.000
       a = 12.500      CL =  2.7481
      Cm = -0.6042     CD = 47.32586   =>   CDf =  0.00274    CDp = 47.32312

 MRCHDU: Convergence failed at  27  side 1    Res =  0.6388E-02
 MRCHDU: Convergence failed at  28  side 1    Res =  0.1062E-01
 MRCHDU: Convergence failed at  29  side 1    Res =  0.1008E-01
 MRCHDU: Convergence failed at  30  side 1    Res =  0.8954E-02
 MRCHDU: Convergence failed at  31  side 1    Res =  0.7752E-02
 MRCHDU: Convergence failed at  32  side 1    Res =  0.6703E-02
 MRCHDU: Convergence failed at  33  side 1    Res =  0.5613E-02
 MRCHDU: Convergence failed at  34  side 1    Res =  0.4934E-02
 MRCHDU: Convergence failed at  35  side 1    Res =  0.4393E-02
 MRCHDU: Convergence failed at  36  side 1    Res =  0.7465E-01
 Side 1  free  transition at x/c =  0.0145   17
 Side 2 forced transition at x/c =  1.0000   73

 153   rms: 0.1655E+05   max: -.7046E+05   C at   82  1   RLX: 0.000
       a = 12.500      CL =  2.7481
      Cm = -0.6042     CD = 47.49777   =>   CDf =  0.00274    CDp = 47.49503

 MRCHDU: Convergence failed at  27  side 1    Res =  0.6406E-02
 MRCHDU: Convergence failed at  28  side 1    Res =  0.1062E-01
 MRCHDU: Convergence failed at  29  side 1    Res =  0.1008E-01
 MRCHDU: Convergence failed at  30  side 1    Res =  0.8954E-02
 MRCHDU: Convergence failed at  31  side 1    Res =  0.7751E-02
 MRCHDU: Convergence failed at  32  side 1    Res =  0.6703E-02
 MRCHDU: Convergence failed at  33  side 1    Res =  0.5613E-02
 MRCHDU: Convergence failed at  34  side 1    Res =  0.4934E-02
 MRCHDU: Convergence failed at  35  side 1    Res =  0.4393E-02
 MRCHDU: Convergence failed at  36  side 1    Res =  0.7464E-01
 Side 1  free  transition at x/c =  0.0145   17
 Side 2 forced transition at x/c =  1.0000   73

 154   rms: 0.9557E+05   max: -.4122E+06   C at   82  1   RLX: 0.000
       a = 12.500      CL =  2.7481
      Cm = -0.6042     CD = 47.55922   =>   CDf =  0.00274    CDp = 47.55648

 MRCHDU: Convergence failed at  27  side 1    Res =  0.6389E-02
 MRCHDU: Convergence failed at  28  side 1    Res =  0.1062E-01
 MRCHDU: Convergence failed at  29  side 1    Res =  0.1008E-01
 MRCHDU: Convergence failed at  30  side 1    Res =  0.8954E-02
 MRCHDU: Convergence failed at  31  side 1    Res =  0.7752E-02
 MRCHDU: Convergence failed at  32  side 1    Res =  0.6703E-02
 MRCHDU: Convergence failed at  33  side 1    Res =  0.5613E-02
 MRCHDU: Convergence failed at  34  side 1    Res =  0.4934E-02
 MRCHDU: Convergence failed at  35  side 1    Res =  0.4393E-02
 MRCHDU: Convergence failed at  36  side 1    Res =  0.7465E-01
 MRCHDU: Convergence failed at  66  side 1    Res =  0.3293E-04
 Side 1  free  transition at x/c =  0.0145   17
 Side 2 forced transition at x/c =  1.0000   73

 155   rms: 0.1636E+06   max: 0.7022E+06   C at   82  1   RLX: 0.000
       a = 12.500      CL =  2.7481
      Cm = -0.6042     CD = 47.50502   =>   CDf =  0.00274    CDp = 47.50228
 VISCAL:  Convergence failed

 Sequence halted since previous  4 points did not converge
 Last-converged  alpha =  11.500    CL =   1.32368

.OPERva   c>  
 Polar accumulation disabled

.OPERv   c>  
 XFOIL   c>  
 XFOIL   c>  