
 ===================================================
  XFOIL Version 6.99
  Copyright (C) 2000   Mark Drela, Harold Youngren

  This software comes with ABSOLUTELY NO WARRANTY,
    subject to the GNU General Public License.

  Caveat computor
 ===================================================

 File  xfoil.def  not found

   QUIT    Exit program

  .OPER    Direct operating point(s)
  .MDES    Complex mapping design routine
  .QDES    Surface speed design routine
  .GDES    Geometry design routine

   SAVE f  Write airfoil to labeled coordinate file
   PSAV f  Write airfoil to plain coordinate file
   ISAV f  Write airfoil to ISES coordinate file
   MSAV f  Write airfoil to MSES coordinate file
   REVE    Reverse written-airfoil node ordering

   LOAD f  Read buffer airfoil from coordinate file
   NACA i  Set NACA 4,5-digit airfoil and buffer airfoil
   INTE    Set buffer airfoil by interpolating two airfoils
   NORM    Buffer airfoil normalization toggle
   XYCM rr Change CM reference location, currently  0.25000 0.00000

   BEND    Display structural properties of current airfoil

   PCOP    Set current-airfoil panel nodes directly from buffer airfoil points
   PANE    Set current-airfoil panel nodes ( 160 ) based on curvature
  .PPAR    Show/change paneling

  .PLOP    Plotting options

   WDEF f  Write  current-settings file
   RDEF f  Reread current-settings file
   NAME s  Specify new airfoil name
   NINC    Increment name version number

   Z       Zoom    | (available in all menus)
   U       Unzoom  | 

 XFOIL   c>  
 Labeled airfoil file.  Name:  I.S.A. 961                                      

 Number of input coordinate points:  33
 Counterclockwise ordering
 Max thickness =     0.092840  at x =   0.202
 Max camber    =     0.044408  at x =   0.399

  LE  x,y  =  -0.00048   0.01865  |   Chord =   1.00063
  TE  x,y  =   1.00000   0.00185  |

 Current airfoil nodes set from buffer airfoil nodes (  33 )

 WARNING: Poor input coordinate distribution
          Excessive panel angle   87.5  at i =  17
          Repaneling with PANE and/or PPAR suggested
           (doing GDES,CADD before repaneling _may_
            improve excessively coarse LE spacing

 XFOIL   c>  
 XFOIL   c>  
 Blunt trailing edge.  Gap =  0.00370

 Paneling parameters used...
   Number of panel nodes       160
   Panel bunching parameter    1.000
   TE/LE panel density ratio   0.150
   Refined-area/LE panel density ratio    0.200
   Top    side refined area x/c limits  1.000 1.000
   Bottom side refined area x/c limits  1.000 1.000

 XFOIL   c>  
.OPERi   c>  
 Xtr/c     =  1.0000    top    side
 Xtr/c     =  1.0000    bottom side
 Ncrit     =    9.00   ( 0.070 % turb. level )
 Vacc      =  0.0100

 Klag  =  5.6000     Uxwt  =    1.00
 A     =  6.7000     B     =  0.7500       KCt = 0.01485
 CtiniK=  1.8000     CtiniX=  3.3000

..VPAR   c>  
..VPAR   c>  
.OPERi   c>  
 M  =    0.0000
 Re =    150000

.OPERv   c>  
.OPERv   c>  
.OPERv   c>  
 Polar  1 newly created for accumulation
 Airfoil archived with polar: I.S.A. 961                                      

Enter  polar save filename  OR  <return> for no file   s>  
 New polar save file available

Enter  polar dump filename  OR  <return> for no file   s>  
 Polar dump file will NOT be written

 Polar accumulation enabled

.OPERva   c>   Calculating unit vorticity distributions ...
 Calculating wake trajectory ...
 Calculating source influence matrix ...

 Solving BL system ...

 Initializing BL ...
    side            1  ...
 MRCHUE: Inverse mode at  15     Hk =   4.111
 MRCHUE: Inverse mode at  55     Hk =   3.800
 MRCHUE: Inverse mode at  56     Hk =   4.113
 MRCHUE: Inverse mode at  57     Hk =   4.421
 MRCHUE: Inverse mode at  58     Hk =   4.724
 MRCHUE: Inverse mode at  59     Hk =   5.022
 MRCHUE: Inverse mode at  60     Hk =   5.317
 MRCHUE: Inverse mode at  61     Hk =   5.607
 MRCHUE: Inverse mode at  62     Hk =   5.893
 MRCHUE: Inverse mode at  63     Hk =   6.175
 MRCHUE: Inverse mode at  64     Hk =   6.453
 MRCHUE: Inverse mode at  65     Hk =   6.727
 MRCHUE: Inverse mode at  66     Hk =   6.999
 MRCHUE: Inverse mode at  67     Hk =   7.268
 MRCHUE: Inverse mode at  68     Hk =   7.538
 MRCHUE: Inverse mode at  69     Hk =   7.810
 MRCHUE: Inverse mode at  70     Hk =   8.082
 MRCHUE: Inverse mode at  71     Hk =   8.351
 MRCHUE: Inverse mode at  72     Hk =   7.986
 MRCHUE: Inverse mode at  73     Hk =   6.961
 MRCHUE: Inverse mode at  74     Hk =   6.249
 MRCHUE: Inverse mode at  75     Hk =   5.721
 MRCHUE: Inverse mode at  76     Hk =   5.310
 MRCHUE: Inverse mode at  77     Hk =   5.084
    side            2  ...
 MRCHUE: Inverse mode at  14     Hk =   3.800
 MRCHUE: Inverse mode at  15     Hk =   4.417
 MRCHUE: Inverse mode at  16     Hk =   5.139
 MRCHUE: Inverse mode at  17     Hk =   6.028
 MRCHUE: Inverse mode at  18     Hk =   6.918
 MRCHUE: Inverse mode at  19     Hk =   7.718
 MRCHUE: Inverse mode at  20     Hk =   8.522
 MRCHUE: Inverse mode at  21     Hk =   9.384
 MRCHUE: Inverse mode at  22     Hk =  10.296
 MRCHUE: Inverse mode at  23     Hk =   8.114
 MRCHUE: Inverse mode at  24     Hk =   5.218
 MRCHUE: Inverse mode at  25     Hk =   3.588
 MRCHUE: Inverse mode at  26     Hk =   2.500

 Side 1  free  transition at x/c =  0.9463   72
 Side 2  free  transition at x/c =  0.0733   23

   1   rms: 0.2861E+00   max: 0.1119E+01   T at   23  2   RLX: 0.451
       a = -4.000      CL =  0.0217
      Cm = -0.0843     CD =  0.01612   =>   CDf =  0.00745    CDp =  0.00867

 Side 1  free  transition at x/c =  0.9323   71
 Side 2  free  transition at x/c =  0.0643   22

   2   rms: 0.1467E+00   max: -.1128E+01   T at   22  2   RLX: 0.443
       a = -4.000      CL = -0.0107
      Cm = -0.0753     CD =  0.01848   =>   CDf =  0.00743    CDp =  0.01105

 Side 1  free  transition at x/c =  0.9354   71
 Side 2  free  transition at x/c =  0.0771   23

   3   rms: 0.1938E+00   max: 0.1926E+01   D at   23  2   RLX: 0.357
       a = -4.000      CL = -0.0084
      Cm = -0.0770     CD =  0.01711   =>   CDf =  0.00754    CDp =  0.00957

 Side 1  free  transition at x/c =  0.9359   71
 Side 2  free  transition at x/c =  0.0952   25

   4   rms: 0.2074E+00   max: 0.1685E+01   D at   25  2   RLX: 0.345
       a = -4.000      CL =  0.0087
      Cm = -0.0803     CD =  0.01824   =>   CDf =  0.00760    CDp =  0.01064

 Side 1  free  transition at x/c =  0.9365   71
 Side 2  free  transition at x/c =  0.1062   25

   5   rms: 0.2043E+00   max: -.2435E+01   T at   25  2   RLX: 0.205
       a = -4.000      CL =  0.0208
      Cm = -0.0821     CD =  0.02069   =>   CDf =  0.00747    CDp =  0.01323

 MRCHDU: Convergence failed at  26  side 2    Res =  0.2297E+02
 MRCHDU: Convergence failed at  27  side 2    Res =  0.8814E+01
 MRCHDU: Convergence failed at  28  side 2    Res =  0.5069E+02
 MRCHDU: Convergence failed at  29  side 2    Res =  0.1029E+02
 MRCHDU: Convergence failed at  30  side 2    Res =  0.7860E+01
 MRCHDU: Convergence failed at  31  side 2    Res =  0.1579E+02
 MRCHDU: Convergence failed at  32  side 2    Res =  0.1954E+02
 MRCHDU: Convergence failed at  33  side 2    Res =  0.2236E+02
 MRCHDU: Convergence failed at  34  side 2    Res =  0.2434E+02
 MRCHDU: Convergence failed at  35  side 2    Res =  0.2535E+02
 MRCHDU: Convergence failed at  36  side 2    Res =  0.2619E+02
 MRCHDU: Convergence failed at  37  side 2    Res =  0.2560E+02
 MRCHDU: Convergence failed at  38  side 2    Res =  0.2496E+02
 MRCHDU: Convergence failed at  39  side 2    Res =  0.2441E+02
 MRCHDU: Convergence failed at  40  side 2    Res =  0.2375E+02
 MRCHDU: Convergence failed at  41  side 2    Res =  0.2345E+02
 MRCHDU: Convergence failed at  42  side 2    Res =  0.2339E+02
 MRCHDU: Convergence failed at  43  side 2    Res =  0.2353E+02
 MRCHDU: Convergence failed at  44  side 2    Res =  0.2386E+02
 MRCHDU: Convergence failed at  45  side 2    Res =  0.2434E+02
 MRCHDU: Convergence failed at  46  side 2    Res =  0.2498E+02
 MRCHDU: Convergence failed at  47  side 2    Res =  0.2570E+02
 MRCHDU: Convergence failed at  48  side 2    Res =  0.2643E+02
 MRCHDU: Convergence failed at  49  side 2    Res =  0.2734E+02
 MRCHDU: Convergence failed at  50  side 2    Res =  0.2800E+02
 MRCHDU: Convergence failed at  51  side 2    Res =  0.2852E+02
 MRCHDU: Convergence failed at  52  side 2    Res =  0.2887E+02
 MRCHDU: Convergence failed at  53  side 2    Res =  0.2906E+02
 MRCHDU: Convergence failed at  54  side 2    Res =  0.2914E+02
 MRCHDU: Convergence failed at  55  side 2    Res =  0.2910E+02
 MRCHDU: Convergence failed at  56  side 2    Res =  0.2902E+02
 MRCHDU: Convergence failed at  57  side 2    Res =  0.2886E+02
 MRCHDU: Convergence failed at  58  side 2    Res =  0.2866E+02
 MRCHDU: Convergence failed at  59  side 2    Res =  0.2823E+02
 MRCHDU: Convergence failed at  60  side 2    Res =  0.2800E+02
 MRCHDU: Convergence failed at  61  side 2    Res =  0.4492E+02
 MRCHDU: Convergence failed at  62  side 2    Res =  0.8509E+02
 MRCHDU: Convergence failed at  63  side 2    Res =  0.8466E+02
 MRCHDU: Convergence failed at  64  side 2    Res =  0.8629E+02
 MRCHDU: Convergence failed at  65  side 2    Res =  0.9013E+02
 MRCHDU: Convergence failed at  66  side 2    Res =  0.9574E+02
 MRCHDU: Convergence failed at  67  side 2    Res =  0.4563E+03
 MRCHDU: Convergence failed at  68  side 2    Res =  0.2931E+02
 MRCHDU: Convergence failed at  69  side 2    Res =  0.2948E+02
 MRCHDU: Convergence failed at  70  side 2    Res =  0.2945E+02
 MRCHDU: Convergence failed at  71  side 2    Res =  0.2903E+02
 MRCHDU: Convergence failed at  72  side 2    Res =  0.1487E+03
 MRCHDU: Convergence failed at  73  side 2    Res =  0.1112E+03
 MRCHDU: Convergence failed at  74  side 2    Res =  0.9675E+02
 MRCHDU: Convergence failed at  75  side 2    Res =  0.9004E+02
 MRCHDU: Convergence failed at  76  side 2    Res =  0.9027E+02
 MRCHDU: Convergence failed at  77  side 2    Res =  0.1079E+03
 MRCHDU: Convergence failed at  78  side 2    Res =  0.2977E+02
 MRCHDU: Convergence failed at  79  side 2    Res =  0.3199E+02
 MRCHDU: Convergence failed at  80  side 2    Res =  0.3404E+02
 MRCHDU: Convergence failed at  81  side 2    Res =  0.3444E+02
 MRCHDU: Convergence failed at  82  side 2    Res =  0.3389E+02
 MRCHDU: Convergence failed at  83  side 2    Res =  0.3281E+02
 MRCHDU: Convergence failed at  84  side 2    Res =  0.3101E+02
 MRCHDU: Convergence failed at  85  side 2    Res =  0.2542E+02
 Side 1  free  transition at x/c =  0.9371   71
 Side 2  free  transition at x/c =  0.1156   26

   6   rms: 0.7517E+00   max: -.3082E+01   T at   26  2   RLX: 0.162
       a = -4.000      CL = -0.5613
      Cm =  0.1152     CD =  0.01091   =>   CDf =  0.00321    CDp =  0.00770

 MRCHDU: Convergence failed at  35  side 2    Res =  0.8723E-01
 MRCHDU: Convergence failed at  49  side 2    Res =  0.3874E-01
 Side 1  free  transition at x/c =  0.9556   73
 Side 2  free  transition at x/c =  0.1336   27

   7   rms: 0.1734E+01   max: 0.1390E+02   T at   28  2   RLX: 0.041
       a = -4.000      CL = -0.2987
      Cm =  0.0345     CD =  0.02998   =>   CDf =  0.00480    CDp =  0.02518

 MRCHDU: Convergence failed at  35  side 2    Res =  0.2269E+00
 MRCHDU: Convergence failed at  36  side 2    Res =  0.6114E+00
 MRCHDU: Convergence failed at  40  side 2    Res =  0.3320E+00
 MRCHDU: Convergence failed at  49  side 2    Res =  0.4126E+00
 MRCHDU: Convergence failed at  50  side 2    Res =  0.6475E+00
 MRCHDU: Convergence failed at  51  side 2    Res =  0.1180E+00
 MRCHDU: Convergence failed at  52  side 2    Res =  0.1017E+00
 MRCHDU: Convergence failed at  53  side 2    Res =  0.7091E-01
 Side 1  free  transition at x/c =  0.9557   73
 Side 2  free  transition at x/c =  0.1422   28

   8   rms: 0.3255E+00   max: -.9920E+00   D at   75  2   RLX: 0.504
       a = -4.000      CL = -0.0452
      Cm = -0.0559     CD =  0.02324   =>   CDf =  0.00514    CDp =  0.01810

 MRCHDU: Convergence failed at  53  side 2    Res =  0.1937E-01
 Side 1  free  transition at x/c =  0.9545   73
 Side 2  free  transition at x/c =  0.1316   27

   9   rms: 0.3481E+00   max: -.1419E+01   D at   48  2   RLX: 0.352
       a = -4.000      CL = -0.0094
      Cm = -0.0713     CD =  0.02243   =>   CDf =  0.00496    CDp =  0.01746

 Side 1  free  transition at x/c =  0.9501   72
 Side 2  free  transition at x/c =  0.1252   27

  10   rms: 0.6077E+00   max: -.2303E+01   D at   32  2   RLX: 0.217
       a = -4.000      CL = -0.0449
      Cm = -0.0688     CD =  0.02168   =>   CDf =  0.00517    CDp =  0.01651

 Side 1  free  transition at x/c =  0.9350   71
 Side 2  free  transition at x/c =  0.1153   26
 idif Ue xi dudx           1  0.18307643      3.94010544E-03   46.464855    
 Uenew xinew           2  4.10664603E-02  8.83817673E-04

  11   rms: 0.4745E+00   max: 0.2618E+01   T at   26  2   RLX: 0.308
       a = -4.000      CL = -0.0928
      Cm = -0.0636     CD =  0.02150   =>   CDf =  0.00527    CDp =  0.01623

 MRCHDU: Convergence failed at  42  side 2    Res =  0.5367E-01
 MRCHDU: Convergence failed at  54  side 2    Res =  0.1758E-02
 Side 1  free  transition at x/c =  0.9204   69
 Side 2  free  transition at x/c =  0.1010   26

  12   rms: 0.4303E+00   max: 0.1961E+01   T at   26  2   RLX: 0.315
       a = -4.000      CL = -0.1123
      Cm = -0.0608     CD =  0.02098   =>   CDf =  0.00576    CDp =  0.01522

 Side 1  free  transition at x/c =  0.9168   69
 Side 2  free  transition at x/c =  0.0890   25

  13   rms: 0.3367E+00   max: -.1411E+01   D at   70  2   RLX: 0.354
       a = -4.000      CL = -0.0893
      Cm = -0.0659     CD =  0.02114   =>   CDf =  0.00642    CDp =  0.01472

 MRCHDU: Convergence failed at  56  side 2    Res =  0.2937E+00
 MRCHDU: Convergence failed at  79  side 2    Res =  0.2075E+01
 Side 1  free  transition at x/c =  0.9184   69
 Side 2  free  transition at x/c =  0.0908   25

  14   rms: 0.3828E+00   max: -.5345E+01   T at   25  2   RLX: 0.094
       a = -4.000      CL = -0.0983
      Cm = -0.0562     CD =  0.02201   =>   CDf =  0.00788    CDp =  0.01413

 Side 1  free  transition at x/c =  0.9205   69
 Side 2  free  transition at x/c =  0.1006   26

  15   rms: 0.2709E+00   max: 0.1392E+01   D at   27  2   RLX: 0.454
       a = -4.000      CL = -0.0310
      Cm = -0.0721     CD =  0.02000   =>   CDf =  0.00772    CDp =  0.01228

 Side 1  free  transition at x/c =  0.9330   71
 Side 2  free  transition at x/c =  0.1095   26

  16   rms: 0.1510E+00   max: -.8771E+00   T at    2  1   RLX: 0.570
       a = -4.000      CL =  0.0206
      Cm = -0.0833     CD =  0.01998   =>   CDf =  0.00755    CDp =  0.01244

 Side 1  free  transition at x/c =  0.9352   71
 Side 2  free  transition at x/c =  0.1163   26

  17   rms: 0.7406E-01   max: -.6426E+00   T at   26  2   RLX: 0.778
       a = -4.000      CL =  0.0614
      Cm = -0.0907     CD =  0.02097   =>   CDf =  0.00735    CDp =  0.01362

 Side 1  free  transition at x/c =  0.9391   72
 Side 2  free  transition at x/c =  0.1241   27

  18   rms: 0.5195E-01   max: 0.3050E+00   D at   27  2
       a = -4.000      CL =  0.0682
      Cm = -0.0919     CD =  0.02088   =>   CDf =  0.00755    CDp =  0.01333

 Side 1  free  transition at x/c =  0.9384   72
 Side 2  free  transition at x/c =  0.1238   27

  19   rms: 0.2991E-02   max: 0.2047E-01   D at   28  2
       a = -4.000      CL =  0.0681
      Cm = -0.0919     CD =  0.02086   =>   CDf =  0.00744    CDp =  0.01342

 Side 1  free  transition at x/c =  0.9384   72
 Side 2  free  transition at x/c =  0.1238   27

  20   rms: 0.2169E-04   max: 0.2245E-03   D at   29  2
       a = -4.000      CL =  0.0682
      Cm = -0.0919     CD =  0.02086   =>   CDf =  0.00743    CDp =  0.01343
 plradd ia,ip,cpol            1           0  9.94110829E-04

 Point added to stored polar  1
 Point written to save file  isa961_Re150k.base.pol                          
 Dump file unspecified or not available
 Calculating wake trajectory ...
 Calculating source influence matrix ...

 Solving BL system ...

 Side 1  free  transition at x/c =  0.9384   72
 Side 2  free  transition at x/c =  0.1238   27

   1   rms: 0.2067E+00   max: -.1959E+01   T at   27  2   RLX: 0.255
       a = -3.500      CL =  0.0916
      Cm = -0.0939     CD =  0.02116   =>   CDf =  0.00743    CDp =  0.01373

 Side 1  free  transition at x/c =  0.9365   71
 Side 2  free  transition at x/c =  0.1318   27

   2   rms: 0.8897E+00   max: 0.8772E+01   T at   27  2   RLX: 0.096
       a = -3.500      CL =  0.0334
      Cm = -0.0826     CD =  0.02279   =>   CDf =  0.00719    CDp =  0.01560

 Side 1  free  transition at x/c =  0.9148   70
 Side 2  free  transition at x/c =  0.1176   26

   3   rms: 0.7938E+00   max: -.8564E+01   T at   26  2   RLX: 0.058
       a = -3.500      CL =  0.0397
      Cm = -0.0824     CD =  0.03030   =>   CDf =  0.00621    CDp =  0.02409

 Side 1  free  transition at x/c =  0.9157   70
 Side 2  free  transition at x/c =  0.1236   27

   4   rms: 0.1916E+00   max: -.1789E+01   T at   27  2   RLX: 0.280
       a = -3.500      CL =  0.0657
      Cm = -0.0857     CD =  0.02540   =>   CDf =  0.00694    CDp =  0.01847

 Side 1  free  transition at x/c =  0.9173   70
 Side 2  free  transition at x/c =  0.1312   27

   5   rms: 0.2892E+00   max: -.2385E+01   T at   27  2   RLX: 0.210
       a = -3.500      CL =  0.0909
      Cm = -0.0887     CD =  0.02612   =>   CDf =  0.00666    CDp =  0.01945

 Side 1  free  transition at x/c =  0.9207   70
 Side 2  free  transition at x/c =  0.1370   28

   6   rms: 0.8000E+00   max: 0.5720E+01   T at   70  1   RLX: 0.126
       a = -3.500      CL =  0.0239
      Cm = -0.0757     CD =  0.02313   =>   CDf =  0.00741    CDp =  0.01572

 Side 1  free  transition at x/c =  0.8970   69
 Side 2  free  transition at x/c =  0.1273   27

   7   rms: 0.1780E+00   max: -.1675E+01   T at   27  2   RLX: 0.298
       a = -3.500      CL =  0.0533
      Cm = -0.0805     CD =  0.02520   =>   CDf =  0.00726    CDp =  0.01794

 Side 1  free  transition at x/c =  0.9052   69
 Side 2  free  transition at x/c =  0.1343   28

   8   rms: 0.5188E+00   max: 0.4561E+01   T at   28  2   RLX: 0.167
       a = -3.500      CL =  0.0070
      Cm = -0.0706     CD =  0.02644   =>   CDf =  0.00750    CDp =  0.01894

 MRCHDU: Convergence failed at  28  side 2    Res =  0.9479E+01
 MRCHDU: Convergence failed at  29  side 2    Res =  0.2025E+02
 MRCHDU: Convergence failed at  30  side 2    Res =  0.1369E+02
 MRCHDU: Convergence failed at  31  side 2    Res =  0.2148E+02
 MRCHDU: Convergence failed at  32  side 2    Res =  0.2124E+02
 MRCHDU: Convergence failed at  33  side 2    Res =  0.2219E+02
 MRCHDU: Convergence failed at  34  side 2    Res =  0.2363E+02
 MRCHDU: Convergence failed at  35  side 2    Res =  0.2560E+02
 MRCHDU: Convergence failed at  36  side 2    Res =  0.2797E+02
 MRCHDU: Convergence failed at  37  side 2    Res =  0.3080E+02
 MRCHDU: Convergence failed at  38  side 2    Res =  0.3378E+02
 MRCHDU: Convergence failed at  39  side 2    Res =  0.3710E+02
 MRCHDU: Convergence failed at  40  side 2    Res =  0.4060E+02
 MRCHDU: Convergence failed at  41  side 2    Res =  0.4425E+02
 MRCHDU: Convergence failed at  42  side 2    Res =  0.4817E+02
 MRCHDU: Convergence failed at  43  side 2    Res =  0.5609E+02
 MRCHDU: Convergence failed at  44  side 2    Res =  0.6958E+02
 MRCHDU: Convergence failed at  45  side 2    Res =  0.8948E+02
 MRCHDU: Convergence failed at  46  side 2    Res =  0.1249E+03
 MRCHDU: Convergence failed at  47  side 2    Res =  0.1916E+03
 MRCHDU: Convergence failed at  48  side 2    Res =  0.3980E+03
 MRCHDU: Convergence failed at  49  side 2    Res =  0.3224E+04
 MRCHDU: Convergence failed at  50  side 2    Res =  0.6465E+03
 MRCHDU: Convergence failed at  51  side 2    Res =  0.3311E+03
 MRCHDU: Convergence failed at  52  side 2    Res =  0.1424E+03
 MRCHDU: Convergence failed at  53  side 2    Res =  0.1523E+03
 MRCHDU: Convergence failed at  54  side 2    Res =  0.1593E+03
 MRCHDU: Convergence failed at  55  side 2    Res =  0.1631E+03
 MRCHDU: Convergence failed at  56  side 2    Res =  0.1653E+03
 MRCHDU: Convergence failed at  57  side 2    Res =  0.1649E+03
 MRCHDU: Convergence failed at  58  side 2    Res =  0.1623E+03
 MRCHDU: Convergence failed at  59  side 2    Res =  0.1701E+03
 MRCHDU: Convergence failed at  60  side 2    Res =  0.1739E+03
 MRCHDU: Convergence failed at  61  side 2    Res =  0.1764E+03
 MRCHDU: Convergence failed at  62  side 2    Res =  0.1768E+03
 MRCHDU: Convergence failed at  63  side 2    Res =  0.1732E+03
 MRCHDU: Convergence failed at  64  side 2    Res =  0.1628E+03
 MRCHDU: Convergence failed at  65  side 2    Res =  0.1485E+03
 MRCHDU: Convergence failed at  66  side 2    Res =  0.1937E+03
 MRCHDU: Convergence failed at  67  side 2    Res =  0.2178E+03
 MRCHDU: Convergence failed at  68  side 2    Res =  0.2441E+03
 MRCHDU: Convergence failed at  69  side 2    Res =  0.2660E+03
 MRCHDU: Convergence failed at  70  side 2    Res =  0.2715E+03
 MRCHDU: Convergence failed at  71  side 2    Res =  0.2493E+03
 MRCHDU: Convergence failed at  72  side 2    Res =  0.2182E+03
 MRCHDU: Convergence failed at  73  side 2    Res =  0.1423E+03
 MRCHDU: Convergence failed at  74  side 2    Res =  0.1575E+03
 MRCHDU: Convergence failed at  75  side 2    Res =  0.1655E+03
 MRCHDU: Convergence failed at  76  side 2    Res =  0.1603E+03
 MRCHDU: Convergence failed at  77  side 2    Res =  0.2176E+03
 MRCHDU: Convergence failed at  78  side 2    Res =  0.4066E+03
 MRCHDU: Convergence failed at  79  side 2    Res =  0.2651E+04
 MRCHDU: Convergence failed at  80  side 2    Res =  0.1104E+04
 MRCHDU: Convergence failed at  81  side 2    Res =  0.1207E+04
 MRCHDU: Convergence failed at  82  side 2    Res =  0.4311E+04
 MRCHDU: Convergence failed at  83  side 2    Res =  0.5635E+03
 MRCHDU: Convergence failed at  84  side 2    Res =  0.2522E+03
 MRCHDU: Convergence failed at  85  side 2    Res =  0.2632E+03
 Side 1  free  transition at x/c =  0.8858   68
 Side 2  free  transition at x/c =  0.1262   27

   9   rms: 0.7714E+00   max: -.6375E+01   T at   27  2   RLX: 0.078
       a = -3.500      CL = -0.5189
      Cm =  0.1145     CD =  0.02217   =>   CDf =  0.00325    CDp =  0.01893

 Side 1  free  transition at x/c =  0.8948   69
 Side 2  free  transition at x/c =  0.1337   27

  10   rms: 0.3318E+00   max: 0.1749E+01   T at   27  2   RLX: 0.484
       a = -3.500      CL = -0.1369
      Cm = -0.0161     CD =  0.05280   =>   CDf =  0.00366    CDp =  0.04914

 Side 1  free  transition at x/c =  0.9045   69
 Side 2  free  transition at x/c =  0.1230   27

  11   rms: 0.4749E+00   max: -.4216E+01   T at   27  2   RLX: 0.119
       a = -3.500      CL = -0.0915
      Cm = -0.0279     CD =  0.05992   =>   CDf =  0.00352    CDp =  0.05640

 Side 1  free  transition at x/c =  0.9151   70
 Side 2  free  transition at x/c =  0.1302   27

  12   rms: 0.3169E+00   max: -.2218E+01   T at   27  2   RLX: 0.225
       a = -3.500      CL = -0.0430
      Cm = -0.0428     CD =  0.05633   =>   CDf =  0.00369    CDp =  0.05264

 Side 1  free  transition at x/c =  0.9168   71
 Side 2  free  transition at x/c =  0.1338   27
 idif Ue xi dudx           1  0.14740472      2.54142284E-03   58.000862    
 Uenew xinew           2  3.23586515E-03  5.57899475E-05

  13   rms: 0.3178E+00   max: -.9435E+00   D at   78  2   RLX: 0.530
       a = -3.500      CL =  0.0385
      Cm = -0.0737     CD =  0.04402   =>   CDf =  0.00353    CDp =  0.04048

 Side 1  free  transition at x/c =  0.9148   70
 Side 2  free  transition at x/c =  0.1342   28

  14   rms: 0.4291E+00   max: -.1543E+01   D at   60  2   RLX: 0.324
       a = -3.500      CL =  0.0967
      Cm = -0.0942     CD =  0.03724   =>   CDf =  0.00375    CDp =  0.03349

 Side 1  free  transition at x/c =  0.9144   70
 Side 2  free  transition at x/c =  0.1356   28

  15   rms: 0.5592E+00   max: -.2000E+01   D at   46  2   RLX: 0.250
       a = -3.500      CL =  0.1046
      Cm = -0.0977     CD =  0.03195   =>   CDf =  0.00410    CDp =  0.02786

 Side 1  free  transition at x/c =  0.9144   70
 Side 2  free  transition at x/c =  0.1370   28

  16   rms: 0.6856E+00   max: -.2349E+01   D at   44  2   RLX: 0.213
       a = -3.500      CL =  0.0733
      Cm = -0.0935     CD =  0.02754   =>   CDf =  0.00462    CDp =  0.02292

 Side 1  free  transition at x/c =  0.9098   70
 Side 2  free  transition at x/c =  0.1336   27

  17   rms: 0.1322E+01   max: -.6174E+01   D at   36  2   RLX: 0.081
       a = -3.500      CL =  0.0889
      Cm = -0.0947     CD =  0.02646   =>   CDf =  0.00514    CDp =  0.02132

 MRCHDU: Convergence failed at  28  side 2    Res =  0.2289E+01
 MRCHDU: Convergence failed at  29  side 2    Res =  0.4580E+02
 MRCHDU: Convergence failed at  30  side 2    Res =  0.2514E+02
 MRCHDU: Convergence failed at  31  side 2    Res =  0.1233E+02
 MRCHDU: Convergence failed at  32  side 2    Res =  0.2042E+02
 MRCHDU: Convergence failed at  33  side 2    Res =  0.2630E+02
 MRCHDU: Convergence failed at  34  side 2    Res =  0.3569E+02
 MRCHDU: Convergence failed at  35  side 2    Res =  0.9430E+02
 MRCHDU: Convergence failed at  36  side 2    Res =  0.6275E+03
 MRCHDU: Convergence failed at  37  side 2    Res =  0.1655E+03
 MRCHDU: Convergence failed at  38  side 2    Res =  0.4721E+02
 MRCHDU: Convergence failed at  39  side 2    Res =  0.2466E+02
 MRCHDU: Convergence failed at  40  side 2    Res =  0.1957E+02
 MRCHDU: Convergence failed at  41  side 2    Res =  0.2638E+02
 MRCHDU: Convergence failed at  42  side 2    Res =  0.3091E+02
 MRCHDU: Convergence failed at  43  side 2    Res =  0.3751E+02
 MRCHDU: Convergence failed at  44  side 2    Res =  0.3947E+02
 MRCHDU: Convergence failed at  45  side 2    Res =  0.3745E+02
 MRCHDU: Convergence failed at  46  side 2    Res =  0.3397E+02
 MRCHDU: Convergence failed at  47  side 2    Res =  0.3106E+02
 MRCHDU: Convergence failed at  48  side 2    Res =  0.2800E+02
 MRCHDU: Convergence failed at  49  side 2    Res =  0.2551E+02
 MRCHDU: Convergence failed at  50  side 2    Res =  0.2335E+02
 MRCHDU: Convergence failed at  51  side 2    Res =  0.2167E+02
 MRCHDU: Convergence failed at  52  side 2    Res =  0.2427E+02
 MRCHDU: Convergence failed at  53  side 2    Res =  0.2757E+02
 MRCHDU: Convergence failed at  54  side 2    Res =  0.3481E+02
 MRCHDU: Convergence failed at  55  side 2    Res =  0.4089E+02
 MRCHDU: Convergence failed at  56  side 2    Res =  0.7014E+02
 MRCHDU: Convergence failed at  57  side 2    Res =  0.7250E+02
 MRCHDU: Convergence failed at  58  side 2    Res =  0.5760E+02
 MRCHDU: Convergence failed at  59  side 2    Res =  0.6523E+02
 MRCHDU: Convergence failed at  60  side 2    Res =  0.1248E+02
 MRCHDU: Convergence failed at  61  side 2    Res =  0.1613E+03
 MRCHDU: Convergence failed at  62  side 2    Res =  0.1602E+02
 MRCHDU: Convergence failed at  63  side 2    Res =  0.1701E+02
 MRCHDU: Convergence failed at  64  side 2    Res =  0.1771E+02
 MRCHDU: Convergence failed at  65  side 2    Res =  0.1833E+02
 MRCHDU: Convergence failed at  66  side 2    Res =  0.1873E+02
 MRCHDU: Convergence failed at  67  side 2    Res =  0.1906E+02
 MRCHDU: Convergence failed at  68  side 2    Res =  0.1942E+02
 MRCHDU: Convergence failed at  69  side 2    Res =  0.1969E+02
 MRCHDU: Convergence failed at  70  side 2    Res =  0.2005E+02
 MRCHDU: Convergence failed at  71  side 2    Res =  0.2042E+02
 MRCHDU: Convergence failed at  72  side 2    Res =  0.2121E+02
 MRCHDU: Convergence failed at  73  side 2    Res =  0.2220E+02
 MRCHDU: Convergence failed at  74  side 2    Res =  0.2321E+02
 MRCHDU: Convergence failed at  75  side 2    Res =  0.2448E+02
 MRCHDU: Convergence failed at  76  side 2    Res =  0.2607E+02
 MRCHDU: Convergence failed at  77  side 2    Res =  0.2674E+02
 MRCHDU: Convergence failed at  78  side 2    Res =  0.2726E+02
 MRCHDU: Convergence failed at  79  side 2    Res =  0.2857E+02
 MRCHDU: Convergence failed at  80  side 2    Res =  0.3224E+02
 MRCHDU: Convergence failed at  81  side 2    Res =  0.7546E+02
 MRCHDU: Convergence failed at  82  side 2    Res =  0.1808E+03
 MRCHDU: Convergence failed at  83  side 2    Res =  0.8361E+02
 MRCHDU: Convergence failed at  84  side 2    Res =  0.5459E+02
 MRCHDU: Convergence failed at  85  side 2    Res =  0.4691E+02
 Side 1  free  transition at x/c =  0.9130   70
 Side 2  free  transition at x/c =  0.1443   28

  18   rms: 0.6342E+00   max: 0.1506E+01   T at   35  2   RLX: 0.628
       a = -3.500      CL = -0.1189
      Cm = -0.0085     CD =  0.01478   =>   CDf =  0.00361    CDp =  0.01117

 Side 1  free  transition at x/c =  0.9354   72
 Side 2  free  transition at x/c =  0.1449   27
 idif Ue xi dudx           1  0.16795252      3.04377079E-03   55.179096    
 Uenew xinew           2  3.07975449E-02  5.58137894E-04

  19   rms: 0.3245E+00   max: -.9491E+00   D at   51  2   RLX: 0.527
       a = -3.500      CL =  0.0190
      Cm = -0.0658     CD =  0.03236   =>   CDf =  0.00410    CDp =  0.02825

 Side 1  free  transition at x/c =  0.9155   70
 Side 2  free  transition at x/c =  0.1357   28

  20   rms: 0.3929E+00   max: -.1393E+01   D at   42  2   RLX: 0.359
       a = -3.500      CL =  0.0665
      Cm = -0.0808     CD =  0.03125   =>   CDf =  0.00414    CDp =  0.02712

 Side 1  free  transition at x/c =  0.9194   70
 Side 2  free  transition at x/c =  0.1386   28

  21   rms: 0.5333E+00   max: -.2717E+01   T at   28  2   RLX: 0.184
       a = -3.500      CL =  0.1267
      Cm = -0.0952     CD =  0.02797   =>   CDf =  0.00470    CDp =  0.02327

 Side 1  free  transition at x/c =  0.9363   72
 Side 2  free  transition at x/c =  0.1445   27

  22   rms: 0.7707E+00   max: -.3415E+01   T at   27  2   RLX: 0.146
       a = -3.500      CL =  0.1923
      Cm = -0.1083     CD =  0.02633   =>   CDf =  0.00499    CDp =  0.02134

 MRCHDU: Convergence failed at  75  side 1    Res =  0.1046E+02
 MRCHDU: Convergence failed at  76  side 1    Res =  0.4886E+01
 MRCHDU: Convergence failed at  77  side 1    Res =  0.6979E+01
 MRCHDU: Convergence failed at  78  side 1    Res =  0.7034E+01
 MRCHDU: Convergence failed at  43  side 2    Res =  0.3662E-01
 Side 1  free  transition at x/c =  0.9623   74
 Side 2  free  transition at x/c =  0.1500   28

  23   rms: 0.5842E+00   max: 0.2703E+01   T at   74  1   RLX: 0.228
       a = -3.500      CL =  0.1350
      Cm = -0.1039     CD =  0.01653   =>   CDf =  0.00602    CDp =  0.01051

 MRCHDU: Convergence failed at  60  side 2    Res =  0.1879E+00
 Side 1  free  transition at x/c =  0.9347   72
 Side 2  free  transition at x/c =  0.1471   27
 idif Ue xi dudx           1  0.20261720      3.72564793E-03   54.384418    
 Uenew xinew           2  6.74374998E-02  1.24001503E-03

  24   rms: 0.4354E+00   max: 0.2007E+01   T at   72  1   RLX: 0.271
       a = -3.500      CL =  0.0319
      Cm = -0.0812     CD =  0.01990   =>   CDf =  0.00686    CDp =  0.01304

 MRCHDU: Convergence failed at  77  side 2    Res =  0.3173E+00
 Side 1  free  transition at x/c =  0.9133   70
 Side 2  free  transition at x/c =  0.1327   27

  25   rms: 0.3841E+00   max: -.1712E+01   D at   35  2   RLX: 0.292
       a = -3.500      CL =  0.0453
      Cm = -0.0773     CD =  0.02330   =>   CDf =  0.00676    CDp =  0.01654

 Side 1  free  transition at x/c =  0.9144   70
 Side 2  free  transition at x/c =  0.1402   28

  26   rms: 0.1627E+00   max: -.5995E+00   D at   81  2   RLX: 0.834
       a = -3.500      CL =  0.0803
      Cm = -0.0849     CD =  0.01993   =>   CDf =  0.00728    CDp =  0.01265

 Side 1  free  transition at x/c =  0.9136   70
 Side 2  free  transition at x/c =  0.1390   28

  27   rms: 0.8084E-01   max: -.4017E+00   T at   28  2
       a = -3.500      CL =  0.1380
      Cm = -0.0946     CD =  0.02061   =>   CDf =  0.00765    CDp =  0.01296

 Side 1  free  transition at x/c =  0.9216   71
 Side 2  free  transition at x/c =  0.1434   27
 idif Ue xi dudx           1  0.18188496      3.25489044E-03   55.880516    
 Uenew xinew           2  4.29865085E-02  7.69257545E-04

  28   rms: 0.1530E+00   max: 0.1131E+01   T at   71  1   RLX: 0.671
       a = -3.500      CL =  0.0507
      Cm = -0.0781     CD =  0.02252   =>   CDf =  0.00732    CDp =  0.01520

 Side 1  free  transition at x/c =  0.8952   69
 Side 2  free  transition at x/c =  0.1329   27

  29   rms: 0.2985E+00   max: -.1798E+01   T at   27  2   RLX: 0.278
       a = -3.500      CL =  0.0773
      Cm = -0.0810     CD =  0.02739   =>   CDf =  0.00695    CDp =  0.02044

 Side 1  free  transition at x/c =  0.9028   69
 Side 2  free  transition at x/c =  0.1414   28

  30   rms: 0.3402E+00   max: -.2080E+01   T at   69  1   RLX: 0.240
       a = -3.500      CL =  0.1247
      Cm = -0.0910     CD =  0.02236   =>   CDf =  0.00767    CDp =  0.01469

 Side 1  free  transition at x/c =  0.9246   72
 Side 2  free  transition at x/c =  0.1452   27

  31   rms: 0.2704E-01   max: 0.2181E+00   D at   72  1
       a = -3.500      CL =  0.1478
      Cm = -0.0963     CD =  0.02010   =>   CDf =  0.00754    CDp =  0.01256

 Side 1  free  transition at x/c =  0.9248   72
 Side 2  free  transition at x/c =  0.1449   27

  32   rms: 0.1598E-02   max: 0.1195E-01   D at   29  2
       a = -3.500      CL =  0.1482
      Cm = -0.0963     CD =  0.02009   =>   CDf =  0.00765    CDp =  0.01244

 Side 1  free  transition at x/c =  0.9250   72
 Side 2  free  transition at x/c =  0.1449   27

  33   rms: 0.1633E-04   max: 0.1201E-03   D at   29  2
       a = -3.500      CL =  0.1482
      Cm = -0.0963     CD =  0.02009   =>   CDf =  0.00765    CDp =  0.01244
 plradd ia,ip,cpol            2           0  9.94110829E-04

 Point added to stored polar  1
 Point written to save file  isa961_Re150k.base.pol                          
 Dump file unspecified or not available
 Calculating wake trajectory ...
 Calculating source influence matrix ...

 Solving BL system ...

 Side 1  free  transition at x/c =  0.9250   72
 Side 2  free  transition at x/c =  0.1449   27

   1   rms: 0.1430E+00   max: -.6439E+00   T at   27  2   RLX: 0.777
       a = -3.000      CL =  0.2278
      Cm = -0.1026     CD =  0.01851   =>   CDf =  0.00765    CDp =  0.01085

 Side 1  free  transition at x/c =  0.9192   71
 Side 2  free  transition at x/c =  0.1536   28

   2   rms: 0.7217E-01   max: 0.4320E+00   D at   28  2
       a = -3.000      CL =  0.1996
      Cm = -0.0949     CD =  0.01893   =>   CDf =  0.00794    CDp =  0.01099

 Side 1  free  transition at x/c =  0.9000   70
 Side 2  free  transition at x/c =  0.1509   28

   3   rms: 0.1020E+00   max: -.5331E+00   T at   70  1   RLX: 0.938
       a = -3.000      CL =  0.2654
      Cm = -0.1071     CD =  0.01740   =>   CDf =  0.00804    CDp =  0.00936

 MRCHDU: Convergence failed at  78  side 1    Res =  0.1423E+01
 MRCHDU: Convergence failed at  79  side 1    Res =  0.1924E+01
 Side 1  free  transition at x/c =  0.9314   73
 Side 2  free  transition at x/c =  0.1557   27

   4   rms: 0.7877E-01   max: 0.4727E+00   D at   74  1
       a = -3.000      CL =  0.2569
      Cm = -0.1057     CD =  0.01686   =>   CDf =  0.00799    CDp =  0.00887

 Side 1  free  transition at x/c =  0.9225   73
 Side 2  free  transition at x/c =  0.1547   27

   5   rms: 0.2314E-01   max: 0.1306E+00   T at   73  1
       a = -3.000      CL =  0.2469
      Cm = -0.1037     CD =  0.01778   =>   CDf =  0.00798    CDp =  0.00981

 Side 1  free  transition at x/c =  0.9186   72
 Side 2  free  transition at x/c =  0.1539   27
 idif Ue xi dudx           1  0.16404516      2.25365162E-03   72.790825    
 Uenew xinew           2  1.19139915E-02  1.63674355E-04

   6   rms: 0.5454E-01   max: 0.3012E+00   T at   72  1
       a = -3.000      CL =  0.2090
      Cm = -0.0966     CD =  0.01866   =>   CDf =  0.00790    CDp =  0.01076

 Side 1  free  transition at x/c =  0.9038   70
 Side 2  free  transition at x/c =  0.1514   28

   7   rms: 0.3402E+00   max: -.3051E+01   T at    2  2   RLX: 0.164
       a = -3.000      CL =  0.2442
      Cm = -0.1024     CD =  0.01886   =>   CDf =  0.00804    CDp =  0.01082

 Side 1  free  transition at x/c =  0.9203   72
 Side 2  free  transition at x/c =  0.1539   27

   8   rms: 0.3912E-01   max: 0.2406E+00   D at   74  1
       a = -3.000      CL =  0.2337
      Cm = -0.1012     CD =  0.01800   =>   CDf =  0.00796    CDp =  0.01004

 Side 1  free  transition at x/c =  0.9131   72
 Side 2  free  transition at x/c =  0.1530   27

   9   rms: 0.7544E-02   max: 0.4021E-01   D at   75  1
       a = -3.000      CL =  0.2295
      Cm = -0.1004     CD =  0.01818   =>   CDf =  0.00795    CDp =  0.01022

 Side 1  free  transition at x/c =  0.9112   72
 Side 2  free  transition at x/c =  0.1527   27

  10   rms: 0.1152E-02   max: -.6214E-02   D at   76  1
       a = -3.000      CL =  0.2299
      Cm = -0.1005     CD =  0.01817   =>   CDf =  0.00795    CDp =  0.01022

 Side 1  free  transition at x/c =  0.9114   72
 Side 2  free  transition at x/c =  0.1527   27

  11   rms: 0.1174E-04   max: 0.8738E-04   D at   28  2
       a = -3.000      CL =  0.2299
      Cm = -0.1005     CD =  0.01817   =>   CDf =  0.00795    CDp =  0.01022
 plradd ia,ip,cpol            3           0  2.14834325E-03

 Point added to stored polar  1
 Point written to save file  isa961_Re150k.base.pol                          
 Dump file unspecified or not available
 Calculating wake trajectory ...
 Calculating source influence matrix ...

 Solving BL system ...

 Side 1  free  transition at x/c =  0.9114   72
 Side 2  free  transition at x/c =  0.1527   27

   1   rms: 0.1278E+00   max: -.5512E+00   T at   27  2   RLX: 0.907
       a = -2.500      CL =  0.3088
      Cm = -0.1050     CD =  0.01651   =>   CDf =  0.00796    CDp =  0.00855

 Side 1  free  transition at x/c =  0.9020   71
 Side 2  free  transition at x/c =  0.1657   28

   2   rms: 0.3003E-01   max: 0.2143E+00   T at   71  1
       a = -2.500      CL =  0.2908
      Cm = -0.1005     CD =  0.01711   =>   CDf =  0.00810    CDp =  0.00901

 Side 1  free  transition at x/c =  0.8898   70
 Side 2  free  transition at x/c =  0.1647   28

   3   rms: 0.7288E-01   max: -.4215E+00   T at   70  1
       a = -2.500      CL =  0.3325
      Cm = -0.1076     CD =  0.01577   =>   CDf =  0.00823    CDp =  0.00754

 MRCHDU: Convergence failed at  74  side 1    Res =  0.3978E+01
 MRCHDU: Convergence failed at  75  side 1    Res =  0.1163E+02
 MRCHDU: Convergence failed at  76  side 1    Res =  0.8972E+01
 MRCHDU: Convergence failed at  77  side 1    Res =  0.9702E+01
 MRCHDU: Convergence failed at  78  side 1    Res =  0.1136E+02
 MRCHDU: Convergence failed at  79  side 1    Res =  0.1422E+02
 MRCHDU: Convergence failed at  80  side 1    Res =  0.1788E+02
 Side 1  free  transition at x/c =  0.9192   73
 Side 2  free  transition at x/c =  0.1688   27
 idif Ue xi dudx           1  0.18687162      2.15482712E-03   86.722328    
 Uenew xinew           2  3.09522934E-02  3.56912613E-04

   4   rms: 0.4540E+00   max: 0.6418E+01   T at    2  1   RLX: 0.171
       a = -2.500      CL =  0.3217
      Cm = -0.1155     CD =  0.01171   =>   CDf =  0.00798    CDp =  0.00373

 Side 1  free  transition at x/c =  0.9034   71
 Side 2  free  transition at x/c =  0.1656   28

   5   rms: 0.7824E-01   max: 0.4773E+00   T at   71  1
       a = -2.500      CL =  0.2556
      Cm = -0.0937     CD =  0.01765   =>   CDf =  0.00807    CDp =  0.00957

 Side 1  free  transition at x/c =  0.8798   70
 Side 2  free  transition at x/c =  0.1618   27

   6   rms: 0.1078E+00   max: -.5239E+00   D at   78  1   RLX: 0.954
       a = -2.500      CL =  0.3197
      Cm = -0.1056     CD =  0.01653   =>   CDf =  0.00809    CDp =  0.00844

 Side 1  free  transition at x/c =  0.9047   71
 Side 2  free  transition at x/c =  0.1686   28

   7   rms: 0.6192E-01   max: 0.3940E+00   D at   28  2
       a = -2.500      CL =  0.2975
      Cm = -0.1017     CD =  0.01686   =>   CDf =  0.00804    CDp =  0.00882

 Side 1  free  transition at x/c =  0.8928   71
 Side 2  free  transition at x/c =  0.1654   28

   8   rms: 0.1514E-01   max: -.9511E-01   D at   73  1
       a = -2.500      CL =  0.3036
      Cm = -0.1028     CD =  0.01673   =>   CDf =  0.00809    CDp =  0.00863

 Side 1  free  transition at x/c =  0.8955   71
 Side 2  free  transition at x/c =  0.1659   28

   9   rms: 0.7656E-03   max: -.6506E-02   D at   71  1
       a = -2.500      CL =  0.3036
      Cm = -0.1028     CD =  0.01674   =>   CDf =  0.00809    CDp =  0.00865

 Side 1  free  transition at x/c =  0.8956   71
 Side 2  free  transition at x/c =  0.1659   28

  10   rms: 0.4066E-05   max: 0.2439E-04   D at   29  2
       a = -2.500      CL =  0.3036
      Cm = -0.1028     CD =  0.01674   =>   CDf =  0.00809    CDp =  0.00865
 plradd ia,ip,cpol            4           0  2.14834325E-03

 Point added to stored polar  1
 Point written to save file  isa961_Re150k.base.pol                          
 Dump file unspecified or not available
 Calculating wake trajectory ...
 Calculating source influence matrix ...

 Solving BL system ...

 Side 1  free  transition at x/c =  0.8956   71
 Side 2  free  transition at x/c =  0.1659   28

   1   rms: 0.1310E+00   max: -.7922E+00   T at   28  2   RLX: 0.631
       a = -2.000      CL =  0.3525
      Cm = -0.1048     CD =  0.01558   =>   CDf =  0.00821    CDp =  0.00737

 Side 1  free  transition at x/c =  0.8877   71
 Side 2  free  transition at x/c =  0.1753   27

   2   rms: 0.6889E-01   max: -.3559E+00   D at   27  2
       a = -2.000      CL =  0.3497
      Cm = -0.0999     CD =  0.01621   =>   CDf =  0.00819    CDp =  0.00802

 Side 1  free  transition at x/c =  0.8661   70
 Side 2  free  transition at x/c =  0.1810   28

   3   rms: 0.4002E-01   max: -.2717E+00   D at   73  1
       a = -2.000      CL =  0.3711
      Cm = -0.1037     CD =  0.01526   =>   CDf =  0.00811    CDp =  0.00715

 Side 1  free  transition at x/c =  0.8790   71
 Side 2  free  transition at x/c =  0.1843   28

   4   rms: 0.6079E-02   max: 0.4427E-01   D at   73  1
       a = -2.000      CL =  0.3702
      Cm = -0.1036     CD =  0.01539   =>   CDf =  0.00805    CDp =  0.00734

 Side 1  free  transition at x/c =  0.8774   71
 Side 2  free  transition at x/c =  0.1838   28

   5   rms: 0.1474E-03   max: -.1422E-02   D at   71  1
       a = -2.000      CL =  0.3701
      Cm = -0.1036     CD =  0.01539   =>   CDf =  0.00806    CDp =  0.00733

 Side 1  free  transition at x/c =  0.8774   71
 Side 2  free  transition at x/c =  0.1838   28

   6   rms: 0.1571E-05   max: 0.8662E-05   D at   72  1
       a = -2.000      CL =  0.3701
      Cm = -0.1036     CD =  0.01539   =>   CDf =  0.00806    CDp =  0.00733
 plradd ia,ip,cpol            5           0  0.16911934    

 Point added to stored polar  1
 Point written to save file  isa961_Re150k.base.pol                          
 Dump file unspecified or not available
 Calculating wake trajectory ...
 Calculating source influence matrix ...

 Solving BL system ...

 Side 1  free  transition at x/c =  0.8774   71
 Side 2  free  transition at x/c =  0.1838   28

   1   rms: 0.1364E+00   max: -.9667E+00   T at   28  2   RLX: 0.517
       a = -1.500      CL =  0.4080
      Cm = -0.1045     CD =  0.01456   =>   CDf =  0.00819    CDp =  0.00637

 Side 1  free  transition at x/c =  0.8696   71
 Side 2  free  transition at x/c =  0.1997   28

   2   rms: 0.7785E-01   max: -.7739E+00   T at    2  1   RLX: 0.646
       a = -1.500      CL =  0.4142
      Cm = -0.1025     CD =  0.01456   =>   CDf =  0.00804    CDp =  0.00652

 Side 1  free  transition at x/c =  0.8532   70
 Side 2  free  transition at x/c =  0.2114   29

   3   rms: 0.8054E-01   max: -.7192E+00   T at   29  2   RLX: 0.695
       a = -1.500      CL =  0.4199
      Cm = -0.1018     CD =  0.01418   =>   CDf =  0.00812    CDp =  0.00606

 Side 1  free  transition at x/c =  0.8514   70
 Side 2  free  transition at x/c =  0.2226   29

   4   rms: 0.4472E-01   max: -.3782E+00   D at   29  2
       a = -1.500      CL =  0.4252
      Cm = -0.1020     CD =  0.01445   =>   CDf =  0.00810    CDp =  0.00635

 Side 1  free  transition at x/c =  0.8510   70
 Side 2  free  transition at x/c =  0.2406   30

   5   rms: 0.2304E-01   max: -.3532E+00   C at   30  2
       a = -1.500      CL =  0.4237
      Cm = -0.1019     CD =  0.01420   =>   CDf =  0.00792    CDp =  0.00628

 Side 1  free  transition at x/c =  0.8510   70
 Side 2  free  transition at x/c =  0.2296   30

   6   rms: 0.7413E-02   max: 0.7188E-01   D at   32  2
       a = -1.500      CL =  0.4240
      Cm = -0.1019     CD =  0.01424   =>   CDf =  0.00789    CDp =  0.00635

 Side 1  free  transition at x/c =  0.8510   70
 Side 2  free  transition at x/c =  0.2318   30

   7   rms: 0.5147E-03   max: -.6561E-02   D at   32  2
       a = -1.500      CL =  0.4240
      Cm = -0.1019     CD =  0.01425   =>   CDf =  0.00786    CDp =  0.00639

 Side 1  free  transition at x/c =  0.8510   70
 Side 2  free  transition at x/c =  0.2318   30

   8   rms: 0.4845E-05   max: -.2150E-04   D at   32  2
       a = -1.500      CL =  0.4240
      Cm = -0.1019     CD =  0.01425   =>   CDf =  0.00786    CDp =  0.00639
 plradd ia,ip,cpol            6           0  0.16911934    

 Point added to stored polar  1
 Point written to save file  isa961_Re150k.base.pol                          
 Dump file unspecified or not available
 Calculating wake trajectory ...
 Calculating source influence matrix ...

 Solving BL system ...

 Side 1  free  transition at x/c =  0.8510   70
 Side 2  free  transition at x/c =  0.2318   30

   1   rms: 0.1648E+00   max: -.1603E+01   T at   30  2   RLX: 0.312
       a = -1.000      CL =  0.4423
      Cm = -0.1017     CD =  0.01385   =>   CDf =  0.00786    CDp =  0.00599

 Side 1  free  transition at x/c =  0.8454   69
 Side 2  free  transition at x/c =  0.2582   32

   2   rms: 0.1189E+00   max: -.8686E+00   T at   32  2   RLX: 0.576
       a = -1.000      CL =  0.4530
      Cm = -0.0997     CD =  0.01361   =>   CDf =  0.00788    CDp =  0.00573

 Side 1  free  transition at x/c =  0.8277   68
 Side 2  free  transition at x/c =  0.2791   33

   3   rms: 0.7503E-01   max: -.6509E+00   T at   33  2   RLX: 0.768
       a = -1.000      CL =  0.4716
      Cm = -0.1000     CD =  0.01352   =>   CDf =  0.00785    CDp =  0.00567

 Side 1  free  transition at x/c =  0.8274   68
 Side 2  free  transition at x/c =  0.3138   35

   4   rms: 0.3629E-01   max: -.3076E+00   D at   35  2
       a = -1.000      CL =  0.4767
      Cm = -0.1004     CD =  0.01333   =>   CDf =  0.00782    CDp =  0.00551

 Side 1  free  transition at x/c =  0.8264   69
 Side 2  free  transition at x/c =  0.3596   37

   5   rms: 0.2605E-01   max: -.3835E+00   C at   37  2
       a = -1.000      CL =  0.4759
      Cm = -0.1004     CD =  0.01317   =>   CDf =  0.00746    CDp =  0.00571

 Side 1  free  transition at x/c =  0.8265   69
 Side 2  free  transition at x/c =  0.3433   36

   6   rms: 0.3980E-02   max: -.5390E-01   C at   36  2
       a = -1.000      CL =  0.4762
      Cm = -0.1004     CD =  0.01324   =>   CDf =  0.00744    CDp =  0.00580

 Side 1  free  transition at x/c =  0.8264   69
 Side 2  free  transition at x/c =  0.3452   36

   7   rms: 0.9048E-04   max: -.1539E-02   D at   39  2
       a = -1.000      CL =  0.4762
      Cm = -0.1004     CD =  0.01324   =>   CDf =  0.00742    CDp =  0.00581
 plradd ia,ip,cpol            7           0  0.16911934    

 Point added to stored polar  1
 Point written to save file  isa961_Re150k.base.pol                          
 Dump file unspecified or not available
 Calculating wake trajectory ...
 Calculating source influence matrix ...

 Solving BL system ...

 Side 1  free  transition at x/c =  0.8264   69
 Side 2  free  transition at x/c =  0.3452   36

   1   rms: 0.2600E+00   max: -.4156E+01   C at   36  2   RLX: 0.120
       a = -0.500      CL =  0.4819
      Cm = -0.1001     CD =  0.01310   =>   CDf =  0.00743    CDp =  0.00567

 Side 1  free  transition at x/c =  0.8228   69
 Side 2  free  transition at x/c =  0.3704   38

   2   rms: 0.4073E+00   max: -.6798E+01   C at   38  2   RLX: 0.074
       a = -0.500      CL =  0.4856
      Cm = -0.1000     CD =  0.01299   =>   CDf =  0.00736    CDp =  0.00563

 Side 1  free  transition at x/c =  0.8213   69
 Side 2  free  transition at x/c =  0.3830   39

   3   rms: 0.4358E+00   max: -.7259E+01   C at   39  2   RLX: 0.069
       a = -0.500      CL =  0.4891
      Cm = -0.1001     CD =  0.01293   =>   CDf =  0.00734    CDp =  0.00558

 Side 1  free  transition at x/c =  0.8202   69
 Side 2  free  transition at x/c =  0.3948   40

   4   rms: 0.4376E+00   max: -.7151E+01   C at   40  2   RLX: 0.070
       a = -0.500      CL =  0.4925
      Cm = -0.1001     CD =  0.01287   =>   CDf =  0.00735    CDp =  0.00552

 Side 1  free  transition at x/c =  0.8191   69
 Side 2  free  transition at x/c =  0.4081   40

   5   rms: 0.2066E+00   max: -.3084E+01   C at   40  2   RLX: 0.162
       a = -0.500      CL =  0.4997
      Cm = -0.1002     CD =  0.01277   =>   CDf =  0.00731    CDp =  0.00546

 Side 1  free  transition at x/c =  0.8170   68
 Side 2 forced transition at x/c =  1.0000   80

   6   rms: 0.1300E+00   max: -.4295E+00   n at   79  2
       a = -0.500      CL =  0.5324
      Cm = -0.0996     CD =  0.01165   =>   CDf =  0.00583    CDp =  0.00582

 Side 1  free  transition at x/c =  0.7903   67
 Side 2 forced transition at x/c =  1.0000   80

   7   rms: 0.3627E-01   max: -.2359E+00   D at   70  1
       a = -0.500      CL =  0.5447
      Cm = -0.1014     CD =  0.01129   =>   CDf =  0.00624    CDp =  0.00506

 Side 1  free  transition at x/c =  0.8023   67
 Side 2 forced transition at x/c =  1.0000   80

   8   rms: 0.5242E-02   max: -.2317E-01   C at   67  1
       a = -0.500      CL =  0.5431
      Cm = -0.1012     CD =  0.01139   =>   CDf =  0.00615    CDp =  0.00524

 Side 1  free  transition at x/c =  0.8001   67
 Side 2 forced transition at x/c =  1.0000   80

   9   rms: 0.4936E-03   max: -.4974E-02   D at   69  1
       a = -0.500      CL =  0.5433
      Cm = -0.1013     CD =  0.01138   =>   CDf =  0.00613    CDp =  0.00525

 Side 1  free  transition at x/c =  0.8003   67
 Side 2 forced transition at x/c =  1.0000   80

  10   rms: 0.6257E-05   max: -.3564E-04   D at   69  1
       a = -0.500      CL =  0.5433
      Cm = -0.1013     CD =  0.01138   =>   CDf =  0.00613    CDp =  0.00525
 plradd ia,ip,cpol            8           0  7.92017952E-02

 Point added to stored polar  1
 Point written to save file  isa961_Re150k.base.pol                          
 Dump file unspecified or not available
 Calculating wake trajectory ...
 Calculating source influence matrix ...

 Solving BL system ...

 Side 1  free  transition at x/c =  0.8003   67
 Side 2 forced transition at x/c =  1.0000   80

   1   rms: 0.9717E-01   max: -.1974E+00   n at   79  2
       a =  0.000      CL =  0.5862
      Cm = -0.0984     CD =  0.01161   =>   CDf =  0.00627    CDp =  0.00533

 Side 1  free  transition at x/c =  0.7605   66
 Side 2 forced transition at x/c =  1.0000   79

   2   rms: 0.3275E-01   max: -.3445E+00   D at   67  1
       a =  0.000      CL =  0.5975
      Cm = -0.0999     CD =  0.01126   =>   CDf =  0.00651    CDp =  0.00475

 Side 1  free  transition at x/c =  0.7724   67
 Side 2 forced transition at x/c =  1.0000   79

   3   rms: 0.2453E-02   max: -.1910E-01   D at   72  1
       a =  0.000      CL =  0.5966
      Cm = -0.0998     CD =  0.01132   =>   CDf =  0.00644    CDp =  0.00489

 Side 1  free  transition at x/c =  0.7713   66
 Side 2 forced transition at x/c =  1.0000   79

   4   rms: 0.1847E-02   max: 0.1815E-01   D at   68  1
       a =  0.000      CL =  0.5958
      Cm = -0.0997     CD =  0.01135   =>   CDf =  0.00643    CDp =  0.00492

 Side 1  free  transition at x/c =  0.7702   66
 Side 2 forced transition at x/c =  1.0000   79

   5   rms: 0.8758E-04   max: -.8685E-03   D at   68  1
       a =  0.000      CL =  0.5958
      Cm = -0.0997     CD =  0.01134   =>   CDf =  0.00642    CDp =  0.00492
 plradd ia,ip,cpol            9           0  7.92017952E-02

 Point added to stored polar  1
 Point written to save file  isa961_Re150k.base.pol                          
 Dump file unspecified or not available
 Calculating wake trajectory ...
 Calculating source influence matrix ...

 Solving BL system ...

 Side 1  free  transition at x/c =  0.7703   66
 Side 2 forced transition at x/c =  1.0000   79

   1   rms: 0.8697E-01   max: -.1146E+00   n at   78  2
       a =  0.500      CL =  0.6414
      Cm = -0.0975     CD =  0.01157   =>   CDf =  0.00655    CDp =  0.00503

 Side 1  free  transition at x/c =  0.7274   65
 Side 2 forced transition at x/c =  1.0000   78

   2   rms: 0.3118E-01   max: -.3597E+00   D at   66  1
       a =  0.500      CL =  0.6493
      Cm = -0.0983     CD =  0.01128   =>   CDf =  0.00678    CDp =  0.00450

 Side 1  free  transition at x/c =  0.7399   65
 Side 2 forced transition at x/c =  1.0000   78

   3   rms: 0.5039E-02   max: 0.4966E-01   D at   66  1
       a =  0.500      CL =  0.6477
      Cm = -0.0982     CD =  0.01140   =>   CDf =  0.00664    CDp =  0.00476

 Side 1  free  transition at x/c =  0.7361   65
 Side 2 forced transition at x/c =  1.0000   78

   4   rms: 0.6492E-03   max: -.5880E-02   D at   66  1
       a =  0.500      CL =  0.6478
      Cm = -0.0982     CD =  0.01139   =>   CDf =  0.00666    CDp =  0.00473

 Side 1  free  transition at x/c =  0.7363   65
 Side 2 forced transition at x/c =  1.0000   78

   5   rms: 0.2412E-05   max: -.2019E-04   D at   70  1
       a =  0.500      CL =  0.6478
      Cm = -0.0982     CD =  0.01139   =>   CDf =  0.00666    CDp =  0.00473
 plradd ia,ip,cpol           10           0  7.92017952E-02

 Point added to stored polar  1
 Point written to save file  isa961_Re150k.base.pol                          
 Dump file unspecified or not available
 Calculating wake trajectory ...
 Calculating source influence matrix ...

 Solving BL system ...

 Side 1  free  transition at x/c =  0.7363   65
 Side 2 forced transition at x/c =  1.0000   78

   1   rms: 0.8739E-01   max: -.1000E+00   n at   77  2
       a =  1.000      CL =  0.6978
      Cm = -0.0965     CD =  0.01152   =>   CDf =  0.00676    CDp =  0.00477

 Side 1  free  transition at x/c =  0.6948   63
 Side 2 forced transition at x/c =  1.0000   77

   2   rms: 0.2456E-01   max: -.3493E+00   D at   65  1
       a =  1.000      CL =  0.7005
      Cm = -0.0968     CD =  0.01146   =>   CDf =  0.00696    CDp =  0.00450

 Side 1  free  transition at x/c =  0.7021   64
 Side 2 forced transition at x/c =  1.0000   77

   3   rms: 0.9038E-02   max: 0.8867E-01   C at   64  1
       a =  1.000      CL =  0.6999
      Cm = -0.0968     CD =  0.01151   =>   CDf =  0.00685    CDp =  0.00466

 Side 1  free  transition at x/c =  0.6988   64
 Side 2 forced transition at x/c =  1.0000   77

   4   rms: 0.8887E-03   max: -.8066E-02   D at   68  1
       a =  1.000      CL =  0.6997
      Cm = -0.0967     CD =  0.01152   =>   CDf =  0.00690    CDp =  0.00462

 Side 1  free  transition at x/c =  0.6985   64
 Side 2 forced transition at x/c =  1.0000   77

   5   rms: 0.7070E-05   max: -.7235E-04   D at   64  1
       a =  1.000      CL =  0.6997
      Cm = -0.0967     CD =  0.01152   =>   CDf =  0.00691    CDp =  0.00462
 plradd ia,ip,cpol           11           0  7.92017952E-02

 Point added to stored polar  1
 Point written to save file  isa961_Re150k.base.pol                          
 Dump file unspecified or not available
 Calculating wake trajectory ...
 Calculating source influence matrix ...

 Solving BL system ...

 Side 1  free  transition at x/c =  0.6985   64
 Side 2 forced transition at x/c =  1.0000   77

   1   rms: 0.9596E-01   max: -.9379E-01   n at   76  2
       a =  1.500      CL =  0.7537
      Cm = -0.0955     CD =  0.01166   =>   CDf =  0.00691    CDp =  0.00474

 Side 1  free  transition at x/c =  0.6560   61
 Side 2 forced transition at x/c =  1.0000   77

   2   rms: 0.1614E-01   max: -.2133E+00   D at   62  1
       a =  1.500      CL =  0.7501
      Cm = -0.0951     CD =  0.01176   =>   CDf =  0.00714    CDp =  0.00462

 Side 1  free  transition at x/c =  0.6535   61
 Side 2 forced transition at x/c =  1.0000   77

   3   rms: 0.5325E-03   max: 0.7574E-02   D at   64  1
       a =  1.500      CL =  0.7503
      Cm = -0.0951     CD =  0.01177   =>   CDf =  0.00716    CDp =  0.00460

 Side 1  free  transition at x/c =  0.6534   61
 Side 2 forced transition at x/c =  1.0000   77

   4   rms: 0.3448E-05   max: -.3175E-04   D at   64  1
       a =  1.500      CL =  0.7503
      Cm = -0.0951     CD =  0.01177   =>   CDf =  0.00716    CDp =  0.00460
 plradd ia,ip,cpol           12           0  7.92017952E-02

 Point added to stored polar  1
 Point written to save file  isa961_Re150k.base.pol                          
 Dump file unspecified or not available
 Calculating wake trajectory ...
 Calculating source influence matrix ...

 Solving BL system ...

 Side 1  free  transition at x/c =  0.6534   61
 Side 2 forced transition at x/c =  1.0000   77

   1   rms: 0.9814E-01   max: -.8193E-01   n at   76  2
       a =  2.000      CL =  0.8011
      Cm = -0.0934     CD =  0.01206   =>   CDf =  0.00721    CDp =  0.00485

 Side 1  free  transition at x/c =  0.5904   58
 Side 2 forced transition at x/c =  1.0000   76

   2   rms: 0.2761E-01   max: 0.3580E+00   D at   61  1
       a =  2.000      CL =  0.7981
      Cm = -0.0931     CD =  0.01211   =>   CDf =  0.00757    CDp =  0.00454

 Side 1  free  transition at x/c =  0.5962   58
 Side 2 forced transition at x/c =  1.0000   76

   3   rms: 0.6662E-02   max: 0.8253E-01   C at   58  1
       a =  2.000      CL =  0.7981
      Cm = -0.0931     CD =  0.01215   =>   CDf =  0.00745    CDp =  0.00470

 Side 1  free  transition at x/c =  0.5929   58
 Side 2 forced transition at x/c =  1.0000   76

   4   rms: 0.2601E-03   max: -.5718E-02   D at   61  1
       a =  2.000      CL =  0.7982
      Cm = -0.0931     CD =  0.01215   =>   CDf =  0.00750    CDp =  0.00465

 Side 1  free  transition at x/c =  0.5929   58
 Side 2 forced transition at x/c =  1.0000   76

   5   rms: 0.2478E-05   max: -.2690E-04   D at   61  1
       a =  2.000      CL =  0.7982
      Cm = -0.0931     CD =  0.01215   =>   CDf =  0.00750    CDp =  0.00465
 plradd ia,ip,cpol           13           0  7.92017952E-02

 Point added to stored polar  1
 Point written to save file  isa961_Re150k.base.pol                          
 Dump file unspecified or not available
 Calculating wake trajectory ...
 Calculating source influence matrix ...

 Solving BL system ...

 Side 1  free  transition at x/c =  0.5929   58
 Side 2 forced transition at x/c =  1.0000   76

   1   rms: 0.1007E+00   max: 0.7388E+00   C at   58  1
       a =  2.500      CL =  0.8450
      Cm = -0.0909     CD =  0.01269   =>   CDf =  0.00751    CDp =  0.00518

 Side 1  free  transition at x/c =  0.5283   54
 Side 2 forced transition at x/c =  1.0000   75

   2   rms: 0.2582E-01   max: 0.2954E+00   D at   58  1
       a =  2.500      CL =  0.8445
      Cm = -0.0910     CD =  0.01268   =>   CDf =  0.00790    CDp =  0.00478

 Side 1  free  transition at x/c =  0.5297   55
 Side 2 forced transition at x/c =  1.0000   75

   3   rms: 0.3078E-02   max: -.4014E-01   D at   58  1
       a =  2.500      CL =  0.8445
      Cm = -0.0911     CD =  0.01274   =>   CDf =  0.00789    CDp =  0.00485

 Side 1  free  transition at x/c =  0.5283   54
 Side 2 forced transition at x/c =  1.0000   75

   4   rms: 0.2781E-03   max: -.3007E-02   D at   58  1
       a =  2.500      CL =  0.8445
      Cm = -0.0911     CD =  0.01273   =>   CDf =  0.00787    CDp =  0.00486

 Side 1  free  transition at x/c =  0.5280   54
 Side 2 forced transition at x/c =  1.0000   75

   5   rms: 0.3875E-05   max: -.3953E-04   C at   54  1
       a =  2.500      CL =  0.8445
      Cm = -0.0911     CD =  0.01273   =>   CDf =  0.00787    CDp =  0.00486
 plradd ia,ip,cpol           14           0  7.92017952E-02

 Point added to stored polar  1
 Point written to save file  isa961_Re150k.base.pol                          
 Dump file unspecified or not available
 Calculating wake trajectory ...
 Calculating source influence matrix ...

 Solving BL system ...

 Side 1  free  transition at x/c =  0.5280   54
 Side 2 forced transition at x/c =  1.0000   75

   1   rms: 0.8551E-01   max: -.7699E-01   C at   75  2
       a =  3.000      CL =  0.8926
      Cm = -0.0897     CD =  0.01325   =>   CDf =  0.00788    CDp =  0.00537

 Side 1  free  transition at x/c =  0.4690   51
 Side 2 forced transition at x/c =  1.0000   75

   2   rms: 0.2135E-01   max: -.2601E+00   D at   52  1
       a =  3.000      CL =  0.8906
      Cm = -0.0892     CD =  0.01343   =>   CDf =  0.00830    CDp =  0.00513

 Side 1  free  transition at x/c =  0.4771   51
 Side 2 forced transition at x/c =  1.0000   75

   3   rms: 0.4708E-02   max: 0.7095E-01   C at   51  1
       a =  3.000      CL =  0.8911
      Cm = -0.0893     CD =  0.01342   =>   CDf =  0.00814    CDp =  0.00528

 Side 1  free  transition at x/c =  0.4744   51
 Side 2 forced transition at x/c =  1.0000   75

   4   rms: 0.8897E-04   max: -.1066E-02   C at   51  1
       a =  3.000      CL =  0.8911
      Cm = -0.0893     CD =  0.01342   =>   CDf =  0.00817    CDp =  0.00525
 plradd ia,ip,cpol           15           0  7.92017952E-02

 Point added to stored polar  1
 Point written to save file  isa961_Re150k.base.pol                          
 Dump file unspecified or not available
 Calculating wake trajectory ...
 Calculating source influence matrix ...

 Solving BL system ...

 Side 1  free  transition at x/c =  0.4744   51
 Side 2 forced transition at x/c =  1.0000   75

   1   rms: 0.9169E-01   max: 0.7125E+00   C at   51  1
       a =  3.500      CL =  0.9371
      Cm = -0.0876     CD =  0.01420   =>   CDf =  0.00812    CDp =  0.00609

 Side 1  free  transition at x/c =  0.4333   49
 Side 2 forced transition at x/c =  1.0000   74

   2   rms: 0.1599E-01   max: 0.2025E+00   D at   51  1
       a =  3.500      CL =  0.9377
      Cm = -0.0878     CD =  0.01419   =>   CDf =  0.00843    CDp =  0.00577

 Side 1  free  transition at x/c =  0.4332   49
 Side 2 forced transition at x/c =  1.0000   74

   3   rms: 0.2245E-02   max: 0.2110E-01   C at   49  1
       a =  3.500      CL =  0.9378
      Cm = -0.0878     CD =  0.01418   =>   CDf =  0.00838    CDp =  0.00580

 Side 1  free  transition at x/c =  0.4325   49
 Side 2 forced transition at x/c =  1.0000   74

   4   rms: 0.8617E-05   max: -.1149E-03   D at   51  1
       a =  3.500      CL =  0.9378
      Cm = -0.0878     CD =  0.01418   =>   CDf =  0.00839    CDp =  0.00579
 plradd ia,ip,cpol           16           0  7.92017952E-02

 Point added to stored polar  1
 Point written to save file  isa961_Re150k.base.pol                          
 Dump file unspecified or not available
 Calculating wake trajectory ...
 Calculating source influence matrix ...

 Solving BL system ...

 Side 1  free  transition at x/c =  0.4325   49
 Side 2 forced transition at x/c =  1.0000   74

   1   rms: 0.8484E-01   max: 0.4584E+00   C at   49  1
       a =  4.000      CL =  0.9856
      Cm = -0.0865     CD =  0.01489   =>   CDf =  0.00839    CDp =  0.00650

 Side 1  free  transition at x/c =  0.3955   47
 Side 2 forced transition at x/c =  1.0000   74

   2   rms: 0.1841E-01   max: -.2666E+00   D at   48  1
       a =  4.000      CL =  0.9842
      Cm = -0.0863     CD =  0.01491   =>   CDf =  0.00860    CDp =  0.00631

 Side 1  free  transition at x/c =  0.3986   47
 Side 2 forced transition at x/c =  1.0000   74

   3   rms: 0.2754E-02   max: 0.3901E-01   C at   47  1
       a =  4.000      CL =  0.9847
      Cm = -0.0864     CD =  0.01494   =>   CDf =  0.00851    CDp =  0.00643

 Side 1  free  transition at x/c =  0.3973   47
 Side 2 forced transition at x/c =  1.0000   74

   4   rms: 0.3671E-04   max: -.4217E-03   D at   47  1
       a =  4.000      CL =  0.9847
      Cm = -0.0864     CD =  0.01494   =>   CDf =  0.00853    CDp =  0.00641
 plradd ia,ip,cpol           17           0  7.92017952E-02

 Point added to stored polar  1
 Point written to save file  isa961_Re150k.base.pol                          
 Dump file unspecified or not available
 Calculating wake trajectory ...
 Calculating source influence matrix ...

 Solving BL system ...

 Side 1  free  transition at x/c =  0.3973   47
 Side 2 forced transition at x/c =  1.0000   74

   1   rms: 0.8576E-01   max: 0.4783E+00   C at   47  1
       a =  4.500      CL =  1.0311
      Cm = -0.0850     CD =  0.01577   =>   CDf =  0.00841    CDp =  0.00736

 Side 1  free  transition at x/c =  0.3659   46
 Side 2 forced transition at x/c =  1.0000   73

   2   rms: 0.1995E-01   max: -.2462E+00   D at   47  1
       a =  4.500      CL =  1.0309
      Cm = -0.0849     CD =  0.01567   =>   CDf =  0.00864    CDp =  0.00702

 Side 1  free  transition at x/c =  0.3671   46
 Side 2 forced transition at x/c =  1.0000   73

   3   rms: 0.2618E-02   max: 0.3027E-01   C at   46  1
       a =  4.500      CL =  1.0314
      Cm = -0.0850     CD =  0.01571   =>   CDf =  0.00858    CDp =  0.00713

 Side 1  free  transition at x/c =  0.3661   46
 Side 2 forced transition at x/c =  1.0000   73

   4   rms: 0.2423E-04   max: -.2827E-03   D at   46  1
       a =  4.500      CL =  1.0314
      Cm = -0.0850     CD =  0.01571   =>   CDf =  0.00860    CDp =  0.00711
 plradd ia,ip,cpol           18           0  2.92452667E-02

 Point added to stored polar  1
 Point written to save file  isa961_Re150k.base.pol                          
 Dump file unspecified or not available
 Calculating wake trajectory ...
 Calculating source influence matrix ...

 Solving BL system ...

 Side 1  free  transition at x/c =  0.3661   46
 Side 2 forced transition at x/c =  1.0000   73

   1   rms: 0.8451E-01   max: 0.4386E+00   C at   46  1
       a =  5.000      CL =  1.0771
      Cm = -0.0835     CD =  0.01656   =>   CDf =  0.00844    CDp =  0.00812

 Side 1  free  transition at x/c =  0.3376   45
 Side 2 forced transition at x/c =  1.0000   72

   2   rms: 0.1734E-01   max: -.2402E+00   D at   46  1
       a =  5.000      CL =  1.0772
      Cm = -0.0836     CD =  0.01643   =>   CDf =  0.00865    CDp =  0.00778

 Side 1  free  transition at x/c =  0.3385   45
 Side 2 forced transition at x/c =  1.0000   72

   3   rms: 0.2962E-02   max: -.2892E-01   D at    4  1
       a =  5.000      CL =  1.0777
      Cm = -0.0837     CD =  0.01647   =>   CDf =  0.00860    CDp =  0.00787

 Side 1  free  transition at x/c =  0.3376   45
 Side 2 forced transition at x/c =  1.0000   72

   4   rms: 0.2115E-04   max: -.2038E-03   D at   45  1
       a =  5.000      CL =  1.0776
      Cm = -0.0837     CD =  0.01647   =>   CDf =  0.00861    CDp =  0.00786
 plradd ia,ip,cpol           19           0  2.92452667E-02

 Point added to stored polar  1
 Point written to save file  isa961_Re150k.base.pol                          
 Dump file unspecified or not available
 Calculating wake trajectory ...
 Calculating source influence matrix ...

 Solving BL system ...

 Side 1  free  transition at x/c =  0.3376   45
 Side 2 forced transition at x/c =  1.0000   72

   1   rms: 0.8238E-01   max: 0.3735E+00   C at   45  1
       a =  5.500      CL =  1.1233
      Cm = -0.0822     CD =  0.01729   =>   CDf =  0.00862    CDp =  0.00868

 Side 1  free  transition at x/c =  0.3139   43
 Side 2 forced transition at x/c =  1.0000   72

   2   rms: 0.1328E-01   max: -.2088E+00   D at   44  1
       a =  5.500      CL =  1.1231
      Cm = -0.0822     CD =  0.01724   =>   CDf =  0.00864    CDp =  0.00861

 Side 1  free  transition at x/c =  0.3141   43
 Side 2 forced transition at x/c =  1.0000   72

   3   rms: 0.1187E-02   max: 0.1333E-01   C at   43  1
       a =  5.500      CL =  1.1234
      Cm = -0.0823     CD =  0.01727   =>   CDf =  0.00860    CDp =  0.00867

 Side 1  free  transition at x/c =  0.3136   43
 Side 2 forced transition at x/c =  1.0000   72

   4   rms: 0.8329E-05   max: -.5582E-04   C at   43  1
       a =  5.500      CL =  1.1234
      Cm = -0.0822     CD =  0.01727   =>   CDf =  0.00861    CDp =  0.00866
 plradd ia,ip,cpol           20           0  2.92452667E-02

 Point added to stored polar  1
 Point written to save file  isa961_Re150k.base.pol                          
 Dump file unspecified or not available
 Calculating wake trajectory ...
 Calculating source influence matrix ...

 Solving BL system ...

 Side 1  free  transition at x/c =  0.3136   43
 Side 2 forced transition at x/c =  1.0000   72

   1   rms: 0.7879E-01   max: -.6042E-01   C at   72  2
       a =  6.000      CL =  1.1712
      Cm = -0.0812     CD =  0.01797   =>   CDf =  0.00838    CDp =  0.00959

 Side 1  free  transition at x/c =  0.2864   42
 Side 2 forced transition at x/c =  1.0000   71

   2   rms: 0.2056E-01   max: -.3129E+00   D at   43  1
       a =  6.000      CL =  1.1662
      Cm = -0.0804     CD =  0.01816   =>   CDf =  0.00866    CDp =  0.00949

 Side 1  free  transition at x/c =  0.2920   43
 Side 2 forced transition at x/c =  1.0000   71

   3   rms: 0.6230E-02   max: 0.6948E-01   D at   43  1
       a =  6.000      CL =  1.1681
      Cm = -0.0807     CD =  0.01810   =>   CDf =  0.00852    CDp =  0.00958

 Side 1  free  transition at x/c =  0.2903   43
 Side 2 forced transition at x/c =  1.0000   71

   4   rms: 0.4753E-03   max: 0.5773E-02   C at   43  1
       a =  6.000      CL =  1.1682
      Cm = -0.0807     CD =  0.01810   =>   CDf =  0.00854    CDp =  0.00956

 Side 1  free  transition at x/c =  0.2901   43
 Side 2 forced transition at x/c =  1.0000   71

   5   rms: 0.3685E-05   max: -.2591E-04   D at   45  1
       a =  6.000      CL =  1.1681
      Cm = -0.0807     CD =  0.01810   =>   CDf =  0.00854    CDp =  0.00956
 plradd ia,ip,cpol           21           0  2.39539910E-02

 Point added to stored polar  1
 Point written to save file  isa961_Re150k.base.pol                          
 Dump file unspecified or not available
 Calculating wake trajectory ...
 Calculating source influence matrix ...

 Solving BL system ...

 Side 1  free  transition at x/c =  0.2901   43
 Side 2 forced transition at x/c =  1.0000   71

   1   rms: 0.8111E-01   max: 0.3592E+00   C at   43  1
       a =  6.500      CL =  1.2111
      Cm = -0.0790     CD =  0.01909   =>   CDf =  0.00855    CDp =  0.01054

 Side 1  free  transition at x/c =  0.2717   42
 Side 2 forced transition at x/c =  1.0000   71

   2   rms: 0.1355E-01   max: -.2154E+00   D at   42  1
       a =  6.500      CL =  1.2113
      Cm = -0.0790     CD =  0.01898   =>   CDf =  0.00847    CDp =  0.01051

 Side 1  free  transition at x/c =  0.2708   41
 Side 2 forced transition at x/c =  1.0000   71

   3   rms: 0.1266E-02   max: 0.2203E-01   D at   42  1
       a =  6.500      CL =  1.2119
      Cm = -0.0791     CD =  0.01901   =>   CDf =  0.00847    CDp =  0.01054

 Side 1  free  transition at x/c =  0.2702   41
 Side 2 forced transition at x/c =  1.0000   71

   4   rms: 0.1991E-04   max: -.1384E-03   C at   41  1
       a =  6.500      CL =  1.2119
      Cm = -0.0791     CD =  0.01901   =>   CDf =  0.00847    CDp =  0.01054
 plradd ia,ip,cpol           22           0 -1.00326601E-04

 Point added to stored polar  1
 Point written to save file  isa961_Re150k.base.pol                          
 Dump file unspecified or not available
 Calculating wake trajectory ...
 Calculating source influence matrix ...

 Solving BL system ...

 Side 1  free  transition at x/c =  0.2702   41
 Side 2 forced transition at x/c =  1.0000   71

   1   rms: 0.7748E-01   max: -.5897E-01   C at   71  2
       a =  7.000      CL =  1.2588
      Cm = -0.0780     CD =  0.01975   =>   CDf =  0.00847    CDp =  0.01127

 Side 1  free  transition at x/c =  0.2395   39
 Side 2 forced transition at x/c =  1.0000   71

   2   rms: 0.2155E-01   max: -.3738E+00   D at   40  1
       a =  7.000      CL =  1.2501
      Cm = -0.0767     CD =  0.02012   =>   CDf =  0.00850    CDp =  0.01162

 Side 1  free  transition at x/c =  0.2480   40
 Side 2 forced transition at x/c =  1.0000   71

   3   rms: 0.1100E-01   max: 0.1531E+00   C at   40  1
       a =  7.000      CL =  1.2533
      Cm = -0.0772     CD =  0.01996   =>   CDf =  0.00831    CDp =  0.01165

 Side 1  free  transition at x/c =  0.2448   40
 Side 2 forced transition at x/c =  1.0000   71

   4   rms: 0.7640E-03   max: -.1165E-01   D at   42  1
       a =  7.000      CL =  1.2533
      Cm = -0.0772     CD =  0.01997   =>   CDf =  0.00837    CDp =  0.01160

 Side 1  free  transition at x/c =  0.2445   40
 Side 2 forced transition at x/c =  1.0000   71

   5   rms: 0.5850E-05   max: -.7975E-04   D at   42  1
       a =  7.000      CL =  1.2532
      Cm = -0.0772     CD =  0.01997   =>   CDf =  0.00837    CDp =  0.01160
 plradd ia,ip,cpol           23           0 -1.00326601E-04

 Point added to stored polar  1
 Point written to save file  isa961_Re150k.base.pol                          
 Dump file unspecified or not available
 Calculating wake trajectory ...
 Calculating source influence matrix ...

 Solving BL system ...

 Side 1  free  transition at x/c =  0.2445   40
 Side 2 forced transition at x/c =  1.0000   71

   1   rms: 0.8870E-01   max: 0.5049E+00   C at   40  1
       a =  7.500      CL =  1.2881
      Cm = -0.0744     CD =  0.02130   =>   CDf =  0.00806    CDp =  0.01324

 Side 1  free  transition at x/c =  0.2053   38
 Side 2 forced transition at x/c =  1.0000   70

   2   rms: 0.2599E-01   max: -.3382E+00   D at   39  1
       a =  7.500      CL =  1.2891
      Cm = -0.0746     CD =  0.02116   =>   CDf =  0.00839    CDp =  0.01277

 Side 1  free  transition at x/c =  0.2067   38
 Side 2 forced transition at x/c =  1.0000   70

   3   rms: 0.3936E-02   max: 0.5381E-01   C at   38  1
       a =  7.500      CL =  1.2900
      Cm = -0.0747     CD =  0.02111   =>   CDf =  0.00836    CDp =  0.01275

 Side 1  free  transition at x/c =  0.2047   38
 Side 2 forced transition at x/c =  1.0000   70

   4   rms: 0.8154E-04   max: -.9833E-03   C at   38  1
       a =  7.500      CL =  1.2899
      Cm = -0.0747     CD =  0.02111   =>   CDf =  0.00837    CDp =  0.01274
 plradd ia,ip,cpol           24           0 -4.11800313E-04

 Point added to stored polar  1
 Point written to save file  isa961_Re150k.base.pol                          
 Dump file unspecified or not available
 Calculating wake trajectory ...
 Calculating source influence matrix ...

 Solving BL system ...

 Side 1  free  transition at x/c =  0.2047   38
 Side 2 forced transition at x/c =  1.0000   70

   1   rms: 0.8015E-01   max: 0.3221E+00   C at   38  1
       a =  8.000      CL =  1.3302
      Cm = -0.0727     CD =  0.02216   =>   CDf =  0.00838    CDp =  0.01379

 Side 1  free  transition at x/c =  0.1596   35
 Side 2 forced transition at x/c =  1.0000   70

   2   rms: 0.1586E-01   max: 0.2175E+00   D at   37  1
       a =  8.000      CL =  1.3251
      Cm = -0.0721     CD =  0.02236   =>   CDf =  0.00843    CDp =  0.01394

 Side 1  free  transition at x/c =  0.1610   35
 Side 2 forced transition at x/c =  1.0000   70

   3   rms: 0.2494E-02   max: 0.4335E-01   C at   35  1
       a =  8.000      CL =  1.3250
      Cm = -0.0720     CD =  0.02239   =>   CDf =  0.00841    CDp =  0.01398

 Side 1  free  transition at x/c =  0.1599   35
 Side 2 forced transition at x/c =  1.0000   70

   4   rms: 0.2895E-04   max: -.3538E-03   D at   37  1
       a =  8.000      CL =  1.3250
      Cm = -0.0720     CD =  0.02239   =>   CDf =  0.00842    CDp =  0.01397
 plradd ia,ip,cpol           25           0 -4.11800313E-04

 Point added to stored polar  1
 Point written to save file  isa961_Re150k.base.pol                          
 Dump file unspecified or not available
 Calculating wake trajectory ...
 Calculating source influence matrix ...

 Solving BL system ...

 Side 1  free  transition at x/c =  0.1599   35
 Side 2 forced transition at x/c =  1.0000   70

   1   rms: 0.9921E-01   max: 0.1292E+01   C at   35  1
       a =  8.500      CL =  1.3553
      Cm = -0.0689     CD =  0.02411   =>   CDf =  0.00843    CDp =  0.01569

 Side 1  free  transition at x/c =  0.1322   33
 Side 2 forced transition at x/c =  1.0000   70

   2   rms: 0.1555E-01   max: -.1140E+00   D at   36  1
       a =  8.500      CL =  1.3498
      Cm = -0.0681     CD =  0.02433   =>   CDf =  0.00860    CDp =  0.01572

 Side 1  free  transition at x/c =  0.1315   33
 Side 2 forced transition at x/c =  1.0000   70

   3   rms: 0.1012E-02   max: 0.1394E-01   C at   33  1
       a =  8.500      CL =  1.3497
      Cm = -0.0681     CD =  0.02434   =>   CDf =  0.00863    CDp =  0.01571

 Side 1  free  transition at x/c =  0.1312   33
 Side 2 forced transition at x/c =  1.0000   70

   4   rms: 0.3082E-04   max: 0.1321E-03   D at   33  1
       a =  8.500      CL =  1.3496
      Cm = -0.0681     CD =  0.02434   =>   CDf =  0.00863    CDp =  0.01570
 plradd ia,ip,cpol           26           0 -4.11800313E-04

 Point added to stored polar  1
 Point written to save file  isa961_Re150k.base.pol                          
 Dump file unspecified or not available
 Calculating wake trajectory ...
 Calculating source influence matrix ...

 Solving BL system ...

 Side 1  free  transition at x/c =  0.1312   33
 Side 2 forced transition at x/c =  1.0000   70

   1   rms: 0.8669E-01   max: 0.6522E+00   C at   33  1
       a =  9.000      CL =  1.3674
      Cm = -0.0632     CD =  0.02679   =>   CDf =  0.00864    CDp =  0.01815

 Side 1  free  transition at x/c =  0.1138   31
 Side 2 forced transition at x/c =  1.0000   70

   2   rms: 0.1934E-01   max: 0.2601E+00   D at   32  1
       a =  9.000      CL =  1.3680
      Cm = -0.0632     CD =  0.02651   =>   CDf =  0.00866    CDp =  0.01785

 Side 1  free  transition at x/c =  0.1127   31
 Side 2 forced transition at x/c =  1.0000   70

   3   rms: 0.1822E-02   max: 0.2237E-01   C at   31  1
       a =  9.000      CL =  1.3687
      Cm = -0.0633     CD =  0.02642   =>   CDf =  0.00858    CDp =  0.01784

 Side 1  free  transition at x/c =  0.1122   31
 Side 2 forced transition at x/c =  1.0000   70

   4   rms: 0.4473E-04   max: -.2086E-03   D at   33  1
       a =  9.000      CL =  1.3687
      Cm = -0.0633     CD =  0.02642   =>   CDf =  0.00859    CDp =  0.01784
 plradd ia,ip,cpol           27           0 -4.11800313E-04

 Point added to stored polar  1
 Point written to save file  isa961_Re150k.base.pol                          
 Dump file unspecified or not available
 Calculating wake trajectory ...
 Calculating source influence matrix ...

 Solving BL system ...

 Side 1  free  transition at x/c =  0.1122   31
 Side 2 forced transition at x/c =  1.0000   70

   1   rms: 0.7666E-01   max: 0.3325E+00   T at   31  1
       a =  9.500      CL =  1.4058
      Cm = -0.0610     CD =  0.02762   =>   CDf =  0.00818    CDp =  0.01944

 Side 1  free  transition at x/c =  0.0869   30
 Side 2 forced transition at x/c =  1.0000   69

   2   rms: 0.2430E-01   max: -.3518E+00   C at   30  1
       a =  9.500      CL =  1.4039
      Cm = -0.0607     CD =  0.02754   =>   CDf =  0.00820    CDp =  0.01934

 Side 1  free  transition at x/c =  0.0654   28
 Side 2 forced transition at x/c =  1.0000   69

   3   rms: 0.2713E-01   max: -.5314E+00   C at   28  1   RLX: 0.941
       a =  9.500      CL =  1.3972
      Cm = -0.0601     CD =  0.02804   =>   CDf =  0.00862    CDp =  0.01942

 Side 1  free  transition at x/c =  0.0694   28
 Side 2 forced transition at x/c =  1.0000   69

   4   rms: 0.3169E-02   max: 0.4074E-01   D at   31  1
       a =  9.500      CL =  1.3971
      Cm = -0.0600     CD =  0.02806   =>   CDf =  0.00839    CDp =  0.01967

 Side 1  free  transition at x/c =  0.0693   28
 Side 2 forced transition at x/c =  1.0000   69

[...]
       a = 13.250      CL =  1.3607
      Cm = -0.0427     CD =  0.07038   =>   CDf =  0.00683    CDp =  0.06355

 Side 1  free  transition at x/c =  0.0217   23
 Side 2 forced transition at x/c =  1.0000   68

   2   rms: 0.1630E-01   max: 0.6758E-01   D at   62  1
       a = 13.250      CL =  1.3558
      Cm = -0.0430     CD =  0.07213   =>   CDf =  0.00674    CDp =  0.06539

 Side 1  free  transition at x/c =  0.0216   23
 Side 2 forced transition at x/c =  1.0000   68

   3   rms: 0.2693E-02   max: 0.1275E-01   D at   83  2
       a = 13.250      CL =  1.3537
      Cm = -0.0429     CD =  0.07185   =>   CDf =  0.00667    CDp =  0.06517

 Side 1  free  transition at x/c =  0.0216   23
 Side 2 forced transition at x/c =  1.0000   68

   4   rms: 0.1107E-03   max: 0.8501E-03   D at   83  2
       a = 13.250      CL =  1.3536
      Cm = -0.0428     CD =  0.07180   =>   CDf =  0.00667    CDp =  0.06512

 Side 1  free  transition at x/c =  0.0216   23
 Side 2 forced transition at x/c =  1.0000   68

   5   rms: 0.9143E-05   max: -.3651E-04   D at   85  2
       a = 13.250      CL =  1.3536
      Cm = -0.0428     CD =  0.07180   =>   CDf =  0.00667    CDp =  0.06512
 plradd ia,ip,cpol           43           0 -4.79098671E-04

 Point added to stored polar  1
 Point written to save file  isa961_Re150k.base.pol                          
 Dump file unspecified or not available
 Calculating wake trajectory ...
 Calculating source influence matrix ...

 Solving BL system ...

 Side 1  free  transition at x/c =  0.0216   23
 Side 2 forced transition at x/c =  1.0000   68

   1   rms: 0.3733E-01   max: 0.1437E+00   D at   59  1   RLX: 0.594
       a = 13.500      CL =  1.3505
      Cm = -0.0436     CD =  0.07513   =>   CDf =  0.00668    CDp =  0.06845

 Side 1  free  transition at x/c =  0.0215   23
 Side 2 forced transition at x/c =  1.0000   68

   2   rms: 0.1649E-01   max: 0.6693E-01   D at   60  1
       a = 13.500      CL =  1.3458
      Cm = -0.0440     CD =  0.07704   =>   CDf =  0.00659    CDp =  0.07045

 Side 1  free  transition at x/c =  0.0214   23
 Side 2 forced transition at x/c =  1.0000   68

   3   rms: 0.2883E-02   max: 0.1406E-01   D at   84  2
       a = 13.500      CL =  1.3437
      Cm = -0.0439     CD =  0.07675   =>   CDf =  0.00653    CDp =  0.07022

 Side 1  free  transition at x/c =  0.0215   23
 Side 2 forced transition at x/c =  1.0000   68

   4   rms: 0.1549E-03   max: 0.1324E-02   D at   84  2
       a = 13.500      CL =  1.3436
      Cm = -0.0438     CD =  0.07669   =>   CDf =  0.00653    CDp =  0.07017

 Side 1  free  transition at x/c =  0.0215   23
 Side 2 forced transition at x/c =  1.0000   68

   5   rms: 0.1225E-04   max: -.3916E-04   D at   86  2
       a = 13.500      CL =  1.3436
      Cm = -0.0438     CD =  0.07669   =>   CDf =  0.00653    CDp =  0.07016
 plradd ia,ip,cpol           44           0 -4.79098671E-04

 Point added to stored polar  1
 Point written to save file  isa961_Re150k.base.pol                          
 Dump file unspecified or not available
 Calculating wake trajectory ...
 Calculating source influence matrix ...

 Solving BL system ...

 Side 1  free  transition at x/c =  0.0215   23
 Side 2 forced transition at x/c =  1.0000   68

   1   rms: 0.3479E-01   max: 0.1315E+00   D at   57  1   RLX: 0.569
       a = 13.750      CL =  1.3413
      Cm = -0.0446     CD =  0.07982   =>   CDf =  0.00653    CDp =  0.07329

 Side 1  free  transition at x/c =  0.0213   23
 Side 2 forced transition at x/c =  1.0000   68

   2   rms: 0.1615E-01   max: 0.6306E-01   D at   58  1
       a = 13.750      CL =  1.3372
      Cm = -0.0450     CD =  0.08185   =>   CDf =  0.00645    CDp =  0.07539

 Side 1  free  transition at x/c =  0.0213   23
 Side 2 forced transition at x/c =  1.0000   68

   3   rms: 0.3380E-02   max: 0.1657E-01   D at   84  2
       a = 13.750      CL =  1.3348
      Cm = -0.0449     CD =  0.08158   =>   CDf =  0.00640    CDp =  0.07519

 Side 1  free  transition at x/c =  0.0213   23
 Side 2 forced transition at x/c =  1.0000   68

   4   rms: 0.2453E-03   max: 0.2500E-02   D at   84  2
       a = 13.750      CL =  1.3346
      Cm = -0.0449     CD =  0.08150   =>   CDf =  0.00639    CDp =  0.07511

 Side 1  free  transition at x/c =  0.0213   23
 Side 2 forced transition at x/c =  1.0000   68

   5   rms: 0.1667E-04   max: -.5061E-04   D at   56  1
       a = 13.750      CL =  1.3346
      Cm = -0.0449     CD =  0.08150   =>   CDf =  0.00639    CDp =  0.07511
 plradd ia,ip,cpol           45           0 -4.79098671E-04

 Point added to stored polar  1
 Point written to save file  isa961_Re150k.base.pol                          
 Dump file unspecified or not available
 Calculating wake trajectory ...
 Calculating source influence matrix ...

 Solving BL system ...

 Side 1  free  transition at x/c =  0.0213   23
 Side 2 forced transition at x/c =  1.0000   68

   1   rms: 0.3256E-01   max: 0.1188E+00   D at   56  1   RLX: 0.547
       a = 14.000      CL =  1.3329
      Cm = -0.0455     CD =  0.08442   =>   CDf =  0.00639    CDp =  0.07803

 Side 1  free  transition at x/c =  0.0212   23
 Side 2 forced transition at x/c =  1.0000   68

   2   rms: 0.1570E-01   max: 0.6148E-01   D at   57  1
       a = 14.000      CL =  1.3295
      Cm = -0.0459     CD =  0.08650   =>   CDf =  0.00633    CDp =  0.08017

 Side 1  free  transition at x/c =  0.0211   23
 Side 2 forced transition at x/c =  1.0000   68

   3   rms: 0.3544E-02   max: 0.1497E-01   D at   84  2
       a = 14.000      CL =  1.3270
      Cm = -0.0459     CD =  0.08625   =>   CDf =  0.00627    CDp =  0.07997

 Side 1  free  transition at x/c =  0.0212   23
 Side 2 forced transition at x/c =  1.0000   68

   4   rms: 0.2618E-03   max: 0.1830E-02   D at   84  2
       a = 14.000      CL =  1.3268
      Cm = -0.0458     CD =  0.08616   =>   CDf =  0.00627    CDp =  0.07989

 Side 1  free  transition at x/c =  0.0212   23
 Side 2 forced transition at x/c =  1.0000   68

   5   rms: 0.2077E-04   max: -.6842E-04   D at   54  1
       a = 14.000      CL =  1.3268
      Cm = -0.0458     CD =  0.08615   =>   CDf =  0.00627    CDp =  0.07988
 plradd ia,ip,cpol           46           0 -4.79098671E-04

 Point added to stored polar  1
 Point written to save file  isa961_Re150k.base.pol                          
 Dump file unspecified or not available
 Calculating wake trajectory ...
 Calculating source influence matrix ...

 Solving BL system ...

 Side 1  free  transition at x/c =  0.0212   23
 Side 2 forced transition at x/c =  1.0000   68

   1   rms: 0.3018E-01   max: 0.1037E+00   D at   54  1   RLX: 0.527
       a = 14.250      CL =  1.3259
      Cm = -0.0463     CD =  0.08877   =>   CDf =  0.00627    CDp =  0.08250

 Side 1  free  transition at x/c =  0.0210   23
 Side 2 forced transition at x/c =  1.0000   68

   2   rms: 0.1464E-01   max: 0.5130E-01   D at   55  1
       a = 14.250      CL =  1.3235
      Cm = -0.0466     CD =  0.09078   =>   CDf =  0.00622    CDp =  0.08456

 Side 1  free  transition at x/c =  0.0210   23
 Side 2 forced transition at x/c =  1.0000   68

   3   rms: 0.3507E-02   max: 0.1367E-01   D at   85  2
       a = 14.250      CL =  1.3211
      Cm = -0.0466     CD =  0.09059   =>   CDf =  0.00617    CDp =  0.08442

 Side 1  free  transition at x/c =  0.0210   23
 Side 2 forced transition at x/c =  1.0000   68

   4   rms: 0.3229E-03   max: 0.2001E-02   D at   85  2
       a = 14.250      CL =  1.3208
      Cm = -0.0466     CD =  0.09050   =>   CDf =  0.00616    CDp =  0.08435

 Side 1  free  transition at x/c =  0.0210   23
 Side 2 forced transition at x/c =  1.0000   68

   5   rms: 0.2082E-04   max: -.8163E-04   D at   53  1
       a = 14.250      CL =  1.3208
      Cm = -0.0466     CD =  0.09050   =>   CDf =  0.00616    CDp =  0.08434
 plradd ia,ip,cpol           47           0 -4.79098671E-04

 Point added to stored polar  1
 Point written to save file  isa961_Re150k.base.pol                          
 Dump file unspecified or not available
 Calculating wake trajectory ...
 Calculating source influence matrix ...

 Solving BL system ...

 Side 1  free  transition at x/c =  0.0210   23
 Side 2 forced transition at x/c =  1.0000   68

   1   rms: 0.2799E-01   max: 0.8412E-01   D at   53  1   RLX: 0.510
       a = 14.500      CL =  1.3209
      Cm = -0.0469     CD =  0.09277   =>   CDf =  0.00616    CDp =  0.08660

 Side 1  free  transition at x/c =  0.0208   23
 Side 2 forced transition at x/c =  1.0000   68

   2   rms: 0.1422E-01   max: 0.4740E-01   D at   54  1
       a = 14.500      CL =  1.3193
      Cm = -0.0472     CD =  0.09479   =>   CDf =  0.00612    CDp =  0.08868

 Side 1  free  transition at x/c =  0.0207   23
 Side 2 forced transition at x/c =  1.0000   68

   3   rms: 0.3786E-02   max: 0.1414E-01   D at   85  2
       a = 14.500      CL =  1.3168
      Cm = -0.0472     CD =  0.09466   =>   CDf =  0.00607    CDp =  0.08859

 Side 1  free  transition at x/c =  0.0207   23
 Side 2 forced transition at x/c =  1.0000   68

   4   rms: 0.3394E-03   max: 0.2296E-02   D at   85  2
       a = 14.500      CL =  1.3165
      Cm = -0.0472     CD =  0.09455   =>   CDf =  0.00606    CDp =  0.08849

 Side 1  free  transition at x/c =  0.0207   23
 Side 2 forced transition at x/c =  1.0000   68

   5   rms: 0.3024E-04   max: -.1064E-03   D at   52  1
       a = 14.500      CL =  1.3165
      Cm = -0.0472     CD =  0.09454   =>   CDf =  0.00606    CDp =  0.08848
 plradd ia,ip,cpol           48           0 -4.79098671E-04

 Point added to stored polar  1
 Point written to save file  isa961_Re150k.base.pol                          
 Dump file unspecified or not available
 Calculating wake trajectory ...
 Calculating source influence matrix ...

 Solving BL system ...

 Side 1  free  transition at x/c =  0.0207   23
 Side 2 forced transition at x/c =  1.0000   68

   1   rms: 0.2702E-01   max: 0.7140E-01   D at   52  1   RLX: 0.494
       a = 14.750      CL =  1.3174
      Cm = -0.0474     CD =  0.09657   =>   CDf =  0.00606    CDp =  0.09051

 Side 1  free  transition at x/c =  0.0205   23
 Side 2 forced transition at x/c =  1.0000   68

   2   rms: 0.1402E-01   max: 0.4368E-01   D at   53  1
       a = 14.750      CL =  1.3165
      Cm = -0.0476     CD =  0.09861   =>   CDf =  0.00603    CDp =  0.09259

 Side 1  free  transition at x/c =  0.0204   23
 Side 2 forced transition at x/c =  1.0000   68

   3   rms: 0.3951E-02   max: 0.1662E-01   D at   85  2
       a = 14.750      CL =  1.3139
      Cm = -0.0477     CD =  0.09848   =>   CDf =  0.00598    CDp =  0.09250

 Side 1  free  transition at x/c =  0.0204   23
 Side 2 forced transition at x/c =  1.0000   68

   4   rms: 0.3523E-03   max: 0.2818E-02   D at   85  2
       a = 14.750      CL =  1.3136
      Cm = -0.0477     CD =  0.09834   =>   CDf =  0.00597    CDp =  0.09237

 Side 1  free  transition at x/c =  0.0204   23
 Side 2 forced transition at x/c =  1.0000   68

   5   rms: 0.4174E-04   max: -.1282E-03   D at   52  1
       a = 14.750      CL =  1.3137
      Cm = -0.0477     CD =  0.09833   =>   CDf =  0.00597    CDp =  0.09236
 plradd ia,ip,cpol           49           0 -4.79098671E-04

 Point added to stored polar  1
 Point written to save file  isa961_Re150k.base.pol                          
 Dump file unspecified or not available
 Calculating wake trajectory ...
 Calculating source influence matrix ...

 Solving BL system ...

 Side 1  free  transition at x/c =  0.0204   23
 Side 2 forced transition at x/c =  1.0000   68

   1   rms: 0.2685E-01   max: 0.8444E-01   T at   23  1   RLX: 0.480
       a = 15.000      CL =  1.3149
      Cm = -0.0478     CD =  0.10020   =>   CDf =  0.00597    CDp =  0.09423

 Side 1  free  transition at x/c =  0.0202   23
 Side 2 forced transition at x/c =  1.0000   68

   2   rms: 0.1394E-01   max: 0.4016E-01   T at   23  1
       a = 15.000      CL =  1.3146
      Cm = -0.0480     CD =  0.10216   =>   CDf =  0.00594    CDp =  0.09622

 Side 1  free  transition at x/c =  0.0200   23
 Side 2 forced transition at x/c =  1.0000   68

   3   rms: 0.4189E-02   max: 0.1321E-01   D at   85  2
       a = 15.000      CL =  1.3119
      Cm = -0.0481     CD =  0.10212   =>   CDf =  0.00590    CDp =  0.09622

 Side 1  free  transition at x/c =  0.0200   23
 Side 2 forced transition at x/c =  1.0000   68

   4   rms: 0.3502E-03   max: 0.2365E-02   D at   85  2
       a = 15.000      CL =  1.3116
      Cm = -0.0481     CD =  0.10197   =>   CDf =  0.00589    CDp =  0.09609

 Side 1  free  transition at x/c =  0.0200   23
 Side 2 forced transition at x/c =  1.0000   68

   5   rms: 0.5157E-04   max: -.1510E-03   D at   51  1
       a = 15.000      CL =  1.3117
      Cm = -0.0481     CD =  0.10196   =>   CDf =  0.00589    CDp =  0.09608
 plradd ia,ip,cpol           50           0 -4.79098671E-04

 Point added to stored polar  1
 Point written to save file  isa961_Re150k.base.pol                          
 Dump file unspecified or not available
 Calculating wake trajectory ...
 Calculating source influence matrix ...

 Solving BL system ...

 Side 1  free  transition at x/c =  0.0200   23
 Side 2 forced transition at x/c =  1.0000   68

   1   rms: 0.2699E-01   max: 0.1005E+00   T at   23  1   RLX: 0.467
       a = 15.250      CL =  1.3134
      Cm = -0.0481     CD =  0.10362   =>   CDf =  0.00589    CDp =  0.09773

 Side 1  free  transition at x/c =  0.0198   23
 Side 2 forced transition at x/c =  1.0000   68

   2   rms: 0.1447E-01   max: 0.4380E-01   T at   23  1
       a = 15.250      CL =  1.3132
      Cm = -0.0483     CD =  0.10573   =>   CDf =  0.00586    CDp =  0.09988

 Side 1  free  transition at x/c =  0.0196   23
 Side 2 forced transition at x/c =  1.0000   68

   3   rms: 0.4375E-02   max: 0.1286E-01   D at   86  2
       a = 15.250      CL =  1.3105
      Cm = -0.0485     CD =  0.10571   =>   CDf =  0.00581    CDp =  0.09990

 Side 1  free  transition at x/c =  0.0196   23
 Side 2 forced transition at x/c =  1.0000   68

   4   rms: 0.3759E-03   max: 0.2593E-02   D at   85  2
       a = 15.250      CL =  1.3102
      Cm = -0.0484     CD =  0.10554   =>   CDf =  0.00580    CDp =  0.09974

 Side 1  free  transition at x/c =  0.0196   23
 Side 2 forced transition at x/c =  1.0000   68

   5   rms: 0.5762E-04   max: -.1552E-03   D at   51  1
       a = 15.250      CL =  1.3102
      Cm = -0.0484     CD =  0.10553   =>   CDf =  0.00580    CDp =  0.09973
 plradd ia,ip,cpol           51           0 -4.79098671E-04

 Point added to stored polar  1
 Point written to save file  isa961_Re150k.base.pol                          
 Dump file unspecified or not available
 Calculating wake trajectory ...
 Calculating source influence matrix ...

 Solving BL system ...

 Side 1  free  transition at x/c =  0.0196   23
 Side 2 forced transition at x/c =  1.0000   68

   1   rms: 0.2802E-01   max: 0.1063E+00   T at   23  1   RLX: 0.455
       a = 15.500      CL =  1.3119
      Cm = -0.0483     CD =  0.10712   =>   CDf =  0.00580    CDp =  0.10132

 Side 1  free  transition at x/c =  0.0194   23
 Side 2 forced transition at x/c =  1.0000   68

   2   rms: 0.1551E-01   max: 0.4480E-01   T at   23  1
       a = 15.500      CL =  1.3120
      Cm = -0.0485     CD =  0.10929   =>   CDf =  0.00576    CDp =  0.10352

 Side 1  free  transition at x/c =  0.0192   23
 Side 2 forced transition at x/c =  1.0000   68

   3   rms: 0.4898E-02   max: 0.1484E-01   D at   53  1
       a = 15.500      CL =  1.3092
      Cm = -0.0488     CD =  0.10932   =>   CDf =  0.00570    CDp =  0.10362

 Side 1  free  transition at x/c =  0.0193   23
 Side 2 forced transition at x/c =  1.0000   68

   4   rms: 0.4863E-03   max: 0.3197E-02   D at   86  2
       a = 15.500      CL =  1.3088
      Cm = -0.0487     CD =  0.10912   =>   CDf =  0.00570    CDp =  0.10343

 Side 1  free  transition at x/c =  0.0193   23
 Side 2 forced transition at x/c =  1.0000   68

   5   rms: 0.5979E-04   max: -.1860E-03   D at   51  1
       a = 15.500      CL =  1.3088
      Cm = -0.0487     CD =  0.10911   =>   CDf =  0.00570    CDp =  0.10341
 plradd ia,ip,cpol           52           0 -4.79098671E-04

 Point added to stored polar  1
 Point written to save file  isa961_Re150k.base.pol                          
 Dump file unspecified or not available
 Calculating wake trajectory ...
 Calculating source influence matrix ...

 Solving BL system ...

 Side 1  free  transition at x/c =  0.0193   23
 Side 2 forced transition at x/c =  1.0000   68

   1   rms: 0.2945E-01   max: 0.9163E-01   T at   23  1   RLX: 0.443
       a = 15.750      CL =  1.3106
      Cm = -0.0486     CD =  0.11066   =>   CDf =  0.00570    CDp =  0.10496

 Side 1  free  transition at x/c =  0.0191   23
 Side 2 forced transition at x/c =  1.0000   68

   2   rms: 0.1665E-01   max: 0.4578E-01   D at   29  1
       a = 15.750      CL =  1.3111
      Cm = -0.0487     CD =  0.11291   =>   CDf =  0.00565    CDp =  0.10726

 Side 1  free  transition at x/c =  0.0190   23
 Side 2 forced transition at x/c =  1.0000   68

   3   rms: 0.6510E-02   max: 0.2400E-01   D at   52  1
       a = 15.750      CL =  1.3077
      Cm = -0.0492     CD =  0.11317   =>   CDf =  0.00557    CDp =  0.10760

 Side 1  free  transition at x/c =  0.0190   23
 Side 2 forced transition at x/c =  1.0000   68

   4   rms: 0.7125E-03   max: 0.4617E-02   D at   86  2
       a = 15.750      CL =  1.3072
      Cm = -0.0492     CD =  0.11287   =>   CDf =  0.00556    CDp =  0.10730

 Side 1  free  transition at x/c =  0.0190   23
 Side 2 forced transition at x/c =  1.0000   68

   5   rms: 0.6230E-04   max: 0.2119E-03   D at   86  2
       a = 15.750      CL =  1.3072
      Cm = -0.0491     CD =  0.11284   =>   CDf =  0.00557    CDp =  0.10728
 plradd ia,ip,cpol           53           0 -4.79098671E-04

 Point added to stored polar  1
 Point written to save file  isa961_Re150k.base.pol                          
 Dump file unspecified or not available
 Calculating wake trajectory ...
 Calculating source influence matrix ...

 Solving BL system ...

 Side 1  free  transition at x/c =  0.0190   23
 Side 2 forced transition at x/c =  1.0000   68

   1   rms: 0.2990E-01   max: 0.9050E-01   D at   29  1   RLX: 0.432
       a = 16.000      CL =  1.3090
      Cm = -0.0491     CD =  0.11445   =>   CDf =  0.00557    CDp =  0.10888

 Side 1  free  transition at x/c =  0.0190   23
 Side 2 forced transition at x/c =  1.0000   68

   2   rms: 0.1775E-01   max: 0.5769E-01   D at   52  1
       a = 16.000      CL =  1.3086
      Cm = -0.0497     CD =  0.11733   =>   CDf =  0.00550    CDp =  0.11183

 Side 1  free  transition at x/c =  0.0190   23
 Side 2 forced transition at x/c =  1.0000   68

   3   rms: 0.7275E-02   max: 0.2672E-01   D at   52  1
       a = 16.000      CL =  1.3046
      Cm = -0.0503     CD =  0.11750   =>   CDf =  0.00540    CDp =  0.11210

 Side 1  free  transition at x/c =  0.0190   23
 Side 2 forced transition at x/c =  1.0000   68

   4   rms: 0.8275E-03   max: 0.5520E-02   D at   86  2
       a = 16.000      CL =  1.3040
      Cm = -0.0502     CD =  0.11710   =>   CDf =  0.00540    CDp =  0.11170

 Side 1  free  transition at x/c =  0.0190   23
 Side 2 forced transition at x/c =  1.0000   68

   5   rms: 0.1356E-03   max: -.4744E-03   D at   52  1
       a = 16.000      CL =  1.3041
      Cm = -0.0501     CD =  0.11707   =>   CDf =  0.00540    CDp =  0.11167

 Side 1  free  transition at x/c =  0.0190   23
 Side 2 forced transition at x/c =  1.0000   68

   6   rms: 0.1666E-04   max: -.1021E-03   D at   86  2
       a = 16.000      CL =  1.3041
      Cm = -0.0501     CD =  0.11708   =>   CDf =  0.00540    CDp =  0.11168
 plradd ia,ip,cpol           54           0 -4.79098671E-04

 Point added to stored polar  1
 Point written to save file  isa961_Re150k.base.pol                          
 Dump file unspecified or not available

.OPERva   c>  
 Polar accumulation disabled

.OPERv   c>  
 XFOIL   c>  
 XFOIL   c>  