  
       XFOIL         Version 6.99
  
 Calculated polar for: IST-MT1-21                                      
  
 1 1 Reynolds number fixed          Mach number fixed         
  
 xtrf =   1.000 (top)        1.000 (bottom)  
 Mach =   0.000     Re =     0.600 e 6     Ncrit =   9.000
  
   alpha    CL        CD       CDp       CM     Top_Xtr  Bot_Xtr
  ------ -------- --------- --------- -------- -------- --------
  -4.000   0.3538   0.01211   0.00538  -0.1988   0.5267   0.3352
  -3.500   0.4150   0.01211   0.00533  -0.1997   0.5225   0.3397
  -3.000   0.4767   0.01212   0.00523  -0.2008   0.5187   0.3440
  -2.500   0.5391   0.01217   0.00518  -0.2022   0.5144   0.3487
  -2.000   0.6001   0.01225   0.00528  -0.2031   0.5113   0.3530
  -1.500   0.6607   0.01228   0.00532  -0.2039   0.5079   0.3574
  -1.000   0.7213   0.01234   0.00533  -0.2048   0.5041   0.3619
  -0.500   0.7823   0.01233   0.00530  -0.2058   0.5007   0.3666
   0.000   0.8427   0.01250   0.00545  -0.2066   0.4971   0.3710
   0.500   0.9031   0.01275   0.00570  -0.2075   0.4937   0.3756
   1.000   0.9623   0.01285   0.00582  -0.2080   0.4907   0.3803
   1.500   1.0221   0.01288   0.00589  -0.2088   0.4872   0.3852
   2.000   1.0811   0.01301   0.00607  -0.2093   0.4841   0.3897
   2.500   1.1398   0.01320   0.00627  -0.2098   0.4810   0.3947
   3.000   1.1994   0.01365   0.00666  -0.2106   0.4769   0.3995
   3.500   1.2572   0.01370   0.00684  -0.2110   0.4743   0.4049
   4.000   1.3143   0.01389   0.00714  -0.2112   0.4713   0.4098
   4.500   1.3714   0.01411   0.00743  -0.2114   0.4682   0.4152
   5.000   1.4283   0.01433   0.00767  -0.2116   0.4649   0.4202
   5.500   1.4856   0.01459   0.00799  -0.2120   0.4615   0.4261
   6.000   1.5421   0.01505   0.00855  -0.2122   0.4582   0.4317
   6.500   1.5959   0.01530   0.00893  -0.2118   0.4553   0.4373
   7.000   1.6503   0.01553   0.00930  -0.2117   0.4518   0.4436
   7.500   1.7043   0.01580   0.00968  -0.2114   0.4484   0.4495
   8.000   1.7573   0.01610   0.00996  -0.2109   0.4416   0.4557
   8.500   1.8036   0.01606   0.01012  -0.2090   0.4350   0.4620
   9.000   1.8509   0.01617   0.01031  -0.2074   0.4273   0.4687
   9.500   1.8934   0.01631   0.01059  -0.2048   0.4165   0.4752
  10.000   1.9327   0.01655   0.01092  -0.2018   0.4027   0.4816
  10.000   1.9327   0.01655   0.01092  -0.2018   0.4027   0.4816
  10.250   1.9504   0.01674   0.01117  -0.1999   0.3971   0.4849
  10.500   1.9655   0.01706   0.01150  -0.1976   0.3917   0.4885
  10.750   1.9856   0.01729   0.01184  -0.1963   0.3854   0.4924
  11.000   2.0003   0.01769   0.01224  -0.1940   0.3774   0.4957
  11.250   2.0169   0.01807   0.01269  -0.1921   0.3684   0.4990
  11.500   2.0275   0.01867   0.01330  -0.1893   0.3574   0.5025
  11.750   2.0347   0.01946   0.01408  -0.1860   0.3428   0.5057
  12.000   2.0368   0.02053   0.01513  -0.1821   0.3247   0.5088
  12.250   2.0287   0.02219   0.01672  -0.1770   0.3016   0.5114
  12.500   2.0096   0.02467   0.01911  -0.1710   0.2788   0.5136
  12.750   1.9841   0.02808   0.02248  -0.1655   0.2572   0.5152
  13.000   1.9535   0.03329   0.02771  -0.1623   0.2396   0.5163
  13.250   1.9197   0.04034   0.03482  -0.1615   0.2242   0.5177
  13.500   1.8844   0.04695   0.04149  -0.1598   0.2133   0.5187
  13.750   1.8463   0.05361   0.04820  -0.1577   0.2032   0.5194
  14.000   1.8126   0.05978   0.05441  -0.1558   0.1923   0.5206
  14.250   1.7797   0.06602   0.06067  -0.1542   0.1812   0.5215
  14.500   1.7491   0.07239   0.06703  -0.1531   0.1679   0.5227
  14.750   1.7221   0.07853   0.07315  -0.1522   0.1542   0.5239
  15.000   1.6963   0.08461   0.07919  -0.1515   0.1392   0.5252
  15.250   1.6736   0.09040   0.08493  -0.1511   0.1236   0.5269
  15.500   1.6524   0.09611   0.09058  -0.1507   0.1080   0.5286
  16.000   1.6199   0.10646   0.10080  -0.1506   0.0809   0.5326
