  
       XFOIL         Version 6.99
  
 Calculated polar for: JN-153 AIRFOIL                                  
  
 1 1 Reynolds number fixed          Mach number fixed         
  
 xtrf =   1.000 (top)        1.000 (bottom)  
 Mach =   0.000     Re =     0.500 e 6     Ncrit =   9.000
  
   alpha    CL        CD       CDp       CM     Top_Xtr  Bot_Xtr
  ------ -------- --------- --------- -------- -------- --------
  -4.000   0.3814   0.03874   0.03412  -0.1401   0.4964   0.0280
  -3.500   0.4360   0.03294   0.02780  -0.1448   0.4952   0.0311
  -3.000   0.4935   0.02940   0.02377  -0.1473   0.4941   0.0352
  -2.500   0.5519   0.02706   0.02104  -0.1489   0.4929   0.0403
  -2.000   0.6109   0.02532   0.01897  -0.1501   0.4914   0.0466
  -1.500   0.6776   0.02081   0.01344  -0.1498   0.4901   0.0224
  -1.000   0.7310   0.02128   0.01396  -0.1500   0.4879   0.0248
  -0.500   0.7886   0.02072   0.01345  -0.1503   0.4862   0.0264
   0.000   0.8457   0.02057   0.01336  -0.1508   0.4839   0.0315
   0.500   0.9061   0.01986   0.01340  -0.1525   0.4814   0.2777
   1.000   0.9644   0.01966   0.01377  -0.1534   0.4793   0.5144
   1.500   1.0219   0.01939   0.01398  -0.1538   0.4775   0.7194
   2.000   1.0640   0.01905   0.01402  -0.1505   0.4758   1.0000
   2.500   1.1223   0.01952   0.01432  -0.1512   0.4743   1.0000
   3.000   1.1742   0.02053   0.01529  -0.1511   0.4716   1.0000
   3.500   1.2255   0.02097   0.01578  -0.1508   0.4682   1.0000
   4.000   1.2794   0.02139   0.01618  -0.1510   0.4655   1.0000
   4.500   1.3364   0.02156   0.01628  -0.1515   0.4634   1.0000
   5.000   1.3949   0.02157   0.01620  -0.1522   0.4615   1.0000
   5.500   1.4535   0.02167   0.01621  -0.1530   0.4599   1.0000
   6.000   1.5063   0.02239   0.01692  -0.1531   0.4576   1.0000
   6.500   1.5491   0.02296   0.01767  -0.1518   0.4532   1.0000
   7.000   1.6030   0.02298   0.01771  -0.1520   0.4503   1.0000
   7.500   1.6598   0.02286   0.01757  -0.1526   0.4482   1.0000
   8.000   1.7186   0.02263   0.01731  -0.1535   0.4465   1.0000
   8.500   1.7797   0.02241   0.01701  -0.1548   0.4447   1.0000
   9.000   1.8113   0.02304   0.01793  -0.1519   0.4389   1.0000
   9.500   1.8665   0.02248   0.01741  -0.1521   0.4357   1.0000
  10.000   1.9267   0.02152   0.01641  -0.1531   0.4332   1.0000
  10.000   1.9267   0.02152   0.01641  -0.1531   0.4332   1.0000
  10.250   1.9572   0.02113   0.01600  -0.1537   0.4321   1.0000
  10.500   1.9652   0.02170   0.01677  -0.1511   0.4281   1.0000
  10.750   1.9845   0.02166   0.01681  -0.1501   0.4252   1.0000
  11.000   2.0084   0.02139   0.01658  -0.1497   0.4230   1.0000
  11.250   2.0333   0.02109   0.01630  -0.1494   0.4212   1.0000
  11.500   2.0577   0.02085   0.01607  -0.1491   0.4196   1.0000
  11.750   2.0566   0.02160   0.01699  -0.1451   0.4150   1.0000
  12.000   2.0693   0.02177   0.01722  -0.1432   0.4118   1.0000
  12.250   2.0887   0.02164   0.01710  -0.1421   0.4092   1.0000
  12.500   2.0977   0.02208   0.01759  -0.1400   0.4054   1.0000
  12.750   2.0987   0.02300   0.01859  -0.1371   0.4008   1.0000
  13.000   2.1079   0.02355   0.01914  -0.1354   0.3971   1.0000
  13.250   2.0991   0.02538   0.02104  -0.1324   0.3922   1.0000
  13.500   2.0781   0.02856   0.02427  -0.1297   0.3860   1.0000
  13.750   2.0313   0.03493   0.03071  -0.1273   0.3777   1.0000
  14.000   2.0146   0.03877   0.03453  -0.1261   0.3709   1.0000
  14.250   1.9480   0.04782   0.04366  -0.1241   0.3602   1.0000
  14.500   1.9681   0.04798   0.04376  -0.1237   0.3565   1.0000
  14.750   1.9125   0.05627   0.05214  -0.1225   0.3466   1.0000
  15.000   1.9324   0.05653   0.05236  -0.1223   0.3430   1.0000
  15.250   1.8944   0.06351   0.05944  -0.1218   0.3346   1.0000
  15.500   1.9064   0.06476   0.06068  -0.1217   0.3302   1.0000
  15.750   1.8962   0.06872   0.06469  -0.1216   0.3241   1.0000
  16.000   1.8886   0.07249   0.06849  -0.1217   0.3176   1.0000
