
 ===================================================
  XFOIL Version 6.99
  Copyright (C) 2000   Mark Drela, Harold Youngren

  This software comes with ABSOLUTELY NO WARRANTY,
    subject to the GNU General Public License.

  Caveat computor
 ===================================================

 File  xfoil.def  not found

   QUIT    Exit program

  .OPER    Direct operating point(s)
  .MDES    Complex mapping design routine
  .QDES    Surface speed design routine
  .GDES    Geometry design routine

   SAVE f  Write airfoil to labeled coordinate file
   PSAV f  Write airfoil to plain coordinate file
   ISAV f  Write airfoil to ISES coordinate file
   MSAV f  Write airfoil to MSES coordinate file
   REVE    Reverse written-airfoil node ordering

   LOAD f  Read buffer airfoil from coordinate file
   NACA i  Set NACA 4,5-digit airfoil and buffer airfoil
   INTE    Set buffer airfoil by interpolating two airfoils
   NORM    Buffer airfoil normalization toggle
   XYCM rr Change CM reference location, currently  0.25000 0.00000

   BEND    Display structural properties of current airfoil

   PCOP    Set current-airfoil panel nodes directly from buffer airfoil points
   PANE    Set current-airfoil panel nodes ( 160 ) based on curvature
  .PPAR    Show/change paneling

  .PLOP    Plotting options

   WDEF f  Write  current-settings file
   RDEF f  Reread current-settings file
   NAME s  Specify new airfoil name
   NINC    Increment name version number

   Z       Zoom    | (available in all menus)
   U       Unzoom  | 

 XFOIL   c>  
 Labeled airfoil file.  Name:  JX-GS-04                                        

 Number of input coordinate points: 201
 Counterclockwise ordering
 Max thickness =     0.069000  at x =   0.232
 Max camber    =     0.014864  at x =   0.304

  LE  x,y  =  -0.00000  -0.00012  |   Chord =   1.00000
  TE  x,y  =   1.00000   0.00000  |

 Current airfoil nodes set from buffer airfoil nodes ( 201 )

 XFOIL   c>  
 XFOIL   c>  
 Sharp trailing edge

 Paneling parameters used...
   Number of panel nodes       160
   Panel bunching parameter    1.000
   TE/LE panel density ratio   0.150
   Refined-area/LE panel density ratio    0.200
   Top    side refined area x/c limits  1.000 1.000
   Bottom side refined area x/c limits  1.000 1.000

 XFOIL   c>  
.OPERi   c>  
 Xtr/c     =  1.0000    top    side
 Xtr/c     =  1.0000    bottom side
 Ncrit     =    9.00   ( 0.070 % turb. level )
 Vacc      =  0.0100

 Klag  =  5.6000     Uxwt  =    1.00
 A     =  6.7000     B     =  0.7500       KCt = 0.01485
 CtiniK=  1.8000     CtiniX=  3.3000

..VPAR   c>  
..VPAR   c>  
.OPERi   c>  
 M  =    0.0000
 Re =    200000

.OPERv   c>  
.OPERv   c>  
.OPERv   c>  
 Polar  1 newly created for accumulation
 Airfoil archived with polar: JX-GS-04                                        

Enter  polar save filename  OR  <return> for no file   s>  
 New polar save file available

Enter  polar dump filename  OR  <return> for no file   s>  
 Polar dump file will NOT be written

 Polar accumulation enabled

.OPERva   c>   Calculating unit vorticity distributions ...
 Calculating wake trajectory ...
 Calculating source influence matrix ...

 Solving BL system ...

 Initializing BL ...
    side            1  ...
 MRCHUE: Inverse mode at  74     Hk =   3.800
 MRCHUE: Inverse mode at  75     Hk =   4.041
 MRCHUE: Inverse mode at  76     Hk =   4.244
 MRCHUE: Inverse mode at  77     Hk =   4.344
    side            2  ...
 MRCHUE: Convergence failed at   9  side 2    Res =  0.2176E+01
 MRCHUE: Inverse mode at  10     Hk =   4.176
 MRCHUE: Inverse mode at  11     Hk =   5.217
 MRCHUE: Convergence failed at  12  side 2    Res =  0.2592E+01
 MRCHUE: Inverse mode at  13     Hk =   6.476
 MRCHUE: Inverse mode at  14     Hk =   7.843
 MRCHUE: Inverse mode at  15     Hk =   9.369
 MRCHUE: Inverse mode at  16     Hk =   6.160
 MRCHUE: Inverse mode at  17     Hk =   2.500
 MRCHUE: Inverse mode at  18     Hk =   2.500

 MRCHDU: Convergence failed at  12  side 2    Res =  0.5935E+01
 MRCHDU: Convergence failed at  13  side 2    Res =  0.3513E+01
 MRCHDU: Convergence failed at  14  side 2    Res =  0.3524E+01
 MRCHDU: Convergence failed at  15  side 2    Res =  0.1656E+02
 MRCHDU: Convergence failed at  16  side 2    Res =  0.9057E+01
 MRCHDU: Convergence failed at  17  side 2    Res =  0.1429E+02
 MRCHDU: Convergence failed at  18  side 2    Res =  0.7962E+02
 MRCHDU: Convergence failed at  19  side 2    Res =  0.1376E+02
 MRCHDU: Convergence failed at  20  side 2    Res =  0.2157E+02
 MRCHDU: Convergence failed at  21  side 2    Res =  0.5144E+02
 MRCHDU: Convergence failed at  22  side 2    Res =  0.2891E+03
 MRCHDU: Convergence failed at  23  side 2    Res =  0.5645E+02
 MRCHDU: Convergence failed at  24  side 2    Res =  0.1134E+03
 MRCHDU: Convergence failed at  25  side 2    Res =  0.4308E+02
 MRCHDU: Convergence failed at  26  side 2    Res =  0.4048E+02
 MRCHDU: Convergence failed at  27  side 2    Res =  0.1377E+03
 MRCHDU: Convergence failed at  28  side 2    Res =  0.1029E+03
 MRCHDU: Convergence failed at  29  side 2    Res =  0.7726E+02
 MRCHDU: Convergence failed at  30  side 2    Res =  0.6510E+02
 MRCHDU: Convergence failed at  31  side 2    Res =  0.5485E+02
 MRCHDU: Convergence failed at  32  side 2    Res =  0.4798E+02
 MRCHDU: Convergence failed at  33  side 2    Res =  0.4281E+02
 MRCHDU: Convergence failed at  34  side 2    Res =  0.3908E+02
 MRCHDU: Convergence failed at  35  side 2    Res =  0.3085E+02
 MRCHDU: Convergence failed at  36  side 2    Res =  0.3176E+02
 MRCHDU: Convergence failed at  37  side 2    Res =  0.6113E+03
 MRCHDU: Convergence failed at  38  side 2    Res =  0.2675E+03
 MRCHDU: Convergence failed at  39  side 2    Res =  0.3835E+02
 MRCHDU: Convergence failed at  40  side 2    Res =  0.4145E+02
 MRCHDU: Convergence failed at  41  side 2    Res =  0.4430E+02
 MRCHDU: Convergence failed at  42  side 2    Res =  0.4762E+02
 MRCHDU: Convergence failed at  43  side 2    Res =  0.5090E+02
 MRCHDU: Convergence failed at  44  side 2    Res =  0.5446E+02
 MRCHDU: Convergence failed at  45  side 2    Res =  0.5843E+02
 MRCHDU: Convergence failed at  46  side 2    Res =  0.6247E+02
 MRCHDU: Convergence failed at  47  side 2    Res =  0.6727E+02
 MRCHDU: Convergence failed at  48  side 2    Res =  0.7172E+02
 MRCHDU: Convergence failed at  49  side 2    Res =  0.7794E+02
 MRCHDU: Convergence failed at  50  side 2    Res =  0.8365E+02
 MRCHDU: Convergence failed at  51  side 2    Res =  0.9076E+02
 MRCHDU: Convergence failed at  52  side 2    Res =  0.9758E+02
 MRCHDU: Convergence failed at  53  side 2    Res =  0.1069E+03
 MRCHDU: Convergence failed at  54  side 2    Res =  0.1158E+03
 MRCHDU: Convergence failed at  55  side 2    Res =  0.1270E+03
 MRCHDU: Convergence failed at  56  side 2    Res =  0.1378E+03
 MRCHDU: Convergence failed at  57  side 2    Res =  0.1577E+03
 MRCHDU: Convergence failed at  58  side 2    Res =  0.1728E+03
 MRCHDU: Convergence failed at  59  side 2    Res =  0.1950E+03
 MRCHDU: Convergence failed at  60  side 2    Res =  0.2249E+03
 MRCHDU: Convergence failed at  61  side 2    Res =  0.2676E+03
 MRCHDU: Convergence failed at  62  side 2    Res =  0.3216E+03
 MRCHDU: Convergence failed at  63  side 2    Res =  0.2025E+02
 MRCHDU: Convergence failed at  64  side 2    Res =  0.5875E+03
 MRCHDU: Convergence failed at  65  side 2    Res =  0.8847E+02
 MRCHDU: Convergence failed at  66  side 2    Res =  0.5591E+03
 MRCHDU: Convergence failed at  67  side 2    Res =  0.1918E+04
 MRCHDU: Convergence failed at  68  side 2    Res =  0.3212E+03
 MRCHDU: Convergence failed at  69  side 2    Res =  0.2171E+03
 MRCHDU: Convergence failed at  70  side 2    Res =  0.1629E+03
 MRCHDU: Convergence failed at  71  side 2    Res =  0.1270E+03
 MRCHDU: Convergence failed at  72  side 2    Res =  0.9414E+02
 MRCHDU: Convergence failed at  73  side 2    Res =  0.8010E+02
 MRCHDU: Convergence failed at  74  side 2    Res =  0.6974E+02
 MRCHDU: Convergence failed at  75  side 2    Res =  0.6147E+02
 MRCHDU: Convergence failed at  76  side 2    Res =  0.5593E+02
 MRCHDU: Convergence failed at  77  side 2    Res =  0.4961E+02
 MRCHDU: Convergence failed at  78  side 2    Res =  0.4497E+02
 MRCHDU: Convergence failed at  79  side 2    Res =  0.4078E+02
 MRCHDU: Convergence failed at  80  side 2    Res =  0.3676E+02
 MRCHDU: Convergence failed at  81  side 2    Res =  0.3315E+02
 MRCHDU: Convergence failed at  82  side 2    Res =  0.2967E+02
 MRCHDU: Convergence failed at  83  side 2    Res =  0.2555E+02
 MRCHDU: Convergence failed at  84  side 2    Res =  0.2046E+02
 MRCHDU: Convergence failed at  85  side 2    Res =  0.1671E+02
 Side 1 forced transition at x/c =  1.0000   77
 Side 2  free  transition at x/c =  0.0421   17

   1   rms: 0.1481E+01   max: 0.1512E+01   D at   88  2   RLX: 0.298
       a = -4.000      CL = -2.6394
      Cm =  0.6082     CD =  0.00385   =>   CDf =  0.00209    CDp =  0.00175

 Side 1 forced transition at x/c =  1.0000   77
 Side 2  free  transition at x/c =  0.0419   17

   2   rms: 0.8983E+01   max: 0.1164E+03   C at   17  2   RLX: 0.013
       a = -4.000      CL = -2.5581
      Cm =  0.5909     CD =  0.00648   =>   CDf =  0.01860    CDp = -0.01212

 Side 1 forced transition at x/c =  1.0000   77
 Side 2  free  transition at x/c =  0.0285   15

   3   rms: 0.1142E+01   max: 0.5881E+01   T at   15  2   RLX: 0.091
       a = -4.000      CL = -2.3002
      Cm =  0.5237     CD =  0.00689   =>   CDf =  0.01808    CDp = -0.01119

 Side 1 forced transition at x/c =  1.0000   77
 Side 2  free  transition at x/c =  0.0256   15

   4   rms: 0.9213E+00   max: -.7984E+00   U at   85  2   RLX: 0.257
       a = -4.000      CL = -1.7111
      Cm =  0.3566     CD =  0.00844   =>   CDf =  0.01654    CDp = -0.00809

 Side 1 forced transition at x/c =  1.0000   77
 Side 2  free  transition at x/c =  0.0236   15

   5   rms: 0.7220E+00   max: 0.6978E+00   D at   99  2   RLX: 0.367
       a = -4.000      CL = -1.1511
      Cm =  0.2005     CD =  0.01064   =>   CDf =  0.01390    CDp = -0.00326

 Side 1 forced transition at x/c =  1.0000   77
 Side 2  free  transition at x/c =  0.0240   15

   6   rms: 0.5032E+00   max: 0.6106E+00   D at  101  2   RLX: 0.618
       a = -4.000      CL = -0.6266
      Cm =  0.0571     CD =  0.01449   =>   CDf =  0.01129    CDp =  0.00320

 Side 1 forced transition at x/c =  1.0000   77
 Side 2  free  transition at x/c =  0.0271   15

   7   rms: 0.2325E+00   max: 0.3409E+00   D at  105  2
       a = -4.000      CL = -0.3354
      Cm = -0.0194     CD =  0.02063   =>   CDf =  0.00856    CDp =  0.01208

 Side 1 forced transition at x/c =  1.0000   77
 Side 2  free  transition at x/c =  0.0306   16

   8   rms: 0.1210E+00   max: -.3302E+00   D at   22  2
       a = -4.000      CL = -0.3337
      Cm = -0.0195     CD =  0.02184   =>   CDf =  0.00624    CDp =  0.01560

 Side 1 forced transition at x/c =  1.0000   77
 Side 2  free  transition at x/c =  0.0311   16

   9   rms: 0.3951E-01   max: -.1352E+00   D at   21  2
       a = -4.000      CL = -0.3317
      Cm = -0.0196     CD =  0.02254   =>   CDf =  0.00653    CDp =  0.01601

 Side 1 forced transition at x/c =  1.0000   77
 Side 2  free  transition at x/c =  0.0312   16

  10   rms: 0.1552E-02   max: -.8260E-02   D at   21  2
       a = -4.000      CL = -0.3315
      Cm = -0.0196     CD =  0.02261   =>   CDf =  0.00672    CDp =  0.01589

 Side 1 forced transition at x/c =  1.0000   77
 Side 2  free  transition at x/c =  0.0312   16

  11   rms: 0.3188E-05   max: -.2277E-04   D at   21  2
       a = -4.000      CL = -0.3315
      Cm = -0.0196     CD =  0.02261   =>   CDf =  0.00673    CDp =  0.01588
 plradd ia,ip,cpol            1           0  8.25732655E-04

 Point added to stored polar  1
 Point written to save file  jx-gs-04_Re200k.base.pol                        
 Dump file unspecified or not available
 Calculating wake trajectory ...
 Calculating source influence matrix ...

 Solving BL system ...

 Side 1 forced transition at x/c =  1.0000   77
 Side 2  free  transition at x/c =  0.0312   16

   1   rms: 0.1501E+00   max: 0.1404E+01   T at   16  2
       a = -3.500      CL = -0.2694
      Cm = -0.0165     CD =  0.02683   =>   CDf =  0.00679    CDp =  0.02004

 MRCHDU: Convergence failed at  15  side 2    Res =  0.2496E+02
 MRCHDU: Convergence failed at  16  side 2    Res =  0.5032E+02
 MRCHDU: Convergence failed at  17  side 2    Res =  0.3767E+02
 MRCHDU: Convergence failed at  18  side 2    Res =  0.4789E+02
 MRCHDU: Convergence failed at  19  side 2    Res =  0.6406E+02
 MRCHDU: Convergence failed at  20  side 2    Res =  0.3353E+02
 MRCHDU: Convergence failed at  21  side 2    Res =  0.4245E+02
 MRCHDU: Convergence failed at  22  side 2    Res =  0.1456E+03
 MRCHDU: Convergence failed at  23  side 2    Res =  0.7262E+02
 MRCHDU: Convergence failed at  24  side 2    Res =  0.1072E+03
 MRCHDU: Convergence failed at  25  side 2    Res =  0.4535E+03
 MRCHDU: Convergence failed at  26  side 2    Res =  0.1416E+03
 MRCHDU: Convergence failed at  27  side 2    Res =  0.3502E+03
 MRCHDU: Convergence failed at  28  side 2    Res =  0.1846E+03
 MRCHDU: Convergence failed at  29  side 2    Res =  0.1053E+03
 MRCHDU: Convergence failed at  30  side 2    Res =  0.1012E+03
 MRCHDU: Convergence failed at  31  side 2    Res =  0.1611E+03
 MRCHDU: Convergence failed at  32  side 2    Res =  0.1455E+03
 MRCHDU: Convergence failed at  33  side 2    Res =  0.1953E+03
 MRCHDU: Convergence failed at  34  side 2    Res =  0.1402E+03
 MRCHDU: Convergence failed at  35  side 2    Res =  0.1571E+03
 MRCHDU: Convergence failed at  36  side 2    Res =  0.1541E+03
 MRCHDU: Convergence failed at  37  side 2    Res =  0.1662E+03
 MRCHDU: Convergence failed at  38  side 2    Res =  0.1666E+03
 MRCHDU: Convergence failed at  39  side 2    Res =  0.1754E+03
 MRCHDU: Convergence failed at  40  side 2    Res =  0.1809E+03
 MRCHDU: Convergence failed at  41  side 2    Res =  0.2105E+03
 MRCHDU: Convergence failed at  42  side 2    Res =  0.1530E+03
 MRCHDU: Convergence failed at  43  side 2    Res =  0.2627E+03
 MRCHDU: Convergence failed at  44  side 2    Res =  0.7253E+02
 MRCHDU: Convergence failed at  45  side 2    Res =  0.5678E+02
 MRCHDU: Convergence failed at  46  side 2    Res =  0.6581E+02
 MRCHDU: Convergence failed at  47  side 2    Res =  0.2351E+03
 MRCHDU: Convergence failed at  48  side 2    Res =  0.2320E+03
 MRCHDU: Convergence failed at  49  side 2    Res =  0.6227E+02
 MRCHDU: Convergence failed at  50  side 2    Res =  0.5395E+02
 MRCHDU: Convergence failed at  51  side 2    Res =  0.5469E+02
 MRCHDU: Convergence failed at  52  side 2    Res =  0.5541E+02
 MRCHDU: Convergence failed at  53  side 2    Res =  0.5615E+02
 MRCHDU: Convergence failed at  54  side 2    Res =  0.5687E+02
 MRCHDU: Convergence failed at  55  side 2    Res =  0.5762E+02
 MRCHDU: Convergence failed at  56  side 2    Res =  0.5835E+02
 MRCHDU: Convergence failed at  57  side 2    Res =  0.5911E+02
 MRCHDU: Convergence failed at  58  side 2    Res =  0.5985E+02
 MRCHDU: Convergence failed at  59  side 2    Res =  0.6063E+02
 MRCHDU: Convergence failed at  60  side 2    Res =  0.6141E+02
 MRCHDU: Convergence failed at  61  side 2    Res =  0.6223E+02
 MRCHDU: Convergence failed at  62  side 2    Res =  0.6304E+02
 MRCHDU: Convergence failed at  63  side 2    Res =  0.6391E+02
 MRCHDU: Convergence failed at  64  side 2    Res =  0.6474E+02
 MRCHDU: Convergence failed at  65  side 2    Res =  0.6568E+02
 MRCHDU: Convergence failed at  66  side 2    Res =  0.6658E+02
 MRCHDU: Convergence failed at  67  side 2    Res =  0.6759E+02
 MRCHDU: Convergence failed at  68  side 2    Res =  0.6858E+02
 MRCHDU: Convergence failed at  69  side 2    Res =  0.6967E+02
 MRCHDU: Convergence failed at  70  side 2    Res =  0.7074E+02
 MRCHDU: Convergence failed at  71  side 2    Res =  0.7195E+02
 MRCHDU: Convergence failed at  72  side 2    Res =  0.7317E+02
 MRCHDU: Convergence failed at  73  side 2    Res =  0.7451E+02
 MRCHDU: Convergence failed at  74  side 2    Res =  0.7591E+02
 MRCHDU: Convergence failed at  75  side 2    Res =  0.7747E+02
 MRCHDU: Convergence failed at  76  side 2    Res =  0.7918E+02
 MRCHDU: Convergence failed at  77  side 2    Res =  0.8104E+02
 MRCHDU: Convergence failed at  78  side 2    Res =  0.6384E+02
 MRCHDU: Convergence failed at  79  side 2    Res =  0.7215E+02
 MRCHDU: Convergence failed at  80  side 2    Res =  0.1331E+03
 MRCHDU: Convergence failed at  81  side 2    Res =  0.1383E+03
 MRCHDU: Convergence failed at  82  side 2    Res =  0.1148E+03
 MRCHDU: Convergence failed at  83  side 2    Res =  0.1247E+03
 MRCHDU: Convergence failed at  84  side 2    Res =  0.1392E+03
 Side 1 forced transition at x/c =  1.0000   78
 Side 2  free  transition at x/c =  0.0282   14

   2   rms: 0.1149E+01   max: 0.8258E+01   D at   86  2   RLX: 0.127
       a = -3.500      CL = -1.3423
      Cm =  0.3265     CD =  0.00697   =>   CDf =  0.00249    CDp =  0.00448

 Side 1 forced transition at x/c =  1.0000   78
 Side 2  free  transition at x/c =  0.0282   14

   3   rms: 0.5010E+00   max: -.1986E+01   C at   78  1   RLX: 0.252
       a = -3.500      CL = -0.6988
      Cm =  0.1263     CD =  0.05473   =>   CDf =  0.00300    CDp =  0.05172

 Side 1 forced transition at x/c =  1.0000   78
 Side 2  free  transition at x/c =  0.0284   14

   4   rms: 0.4323E+00   max: -.1235E+01   C at  104  2   RLX: 0.405
       a = -3.500      CL = -0.4976
      Cm =  0.0660     CD =  0.04844   =>   CDf =  0.00329    CDp =  0.04516

 Side 1 forced transition at x/c =  1.0000   78
 Side 2  free  transition at x/c =  0.0284   14

   5   rms: 0.4110E+00   max: -.1179E+01   D at  102  2   RLX: 0.424
       a = -3.500      CL = -0.3619
      Cm =  0.0191     CD =  0.04818   =>   CDf =  0.00347    CDp =  0.04472

 Side 1 forced transition at x/c =  1.0000   78
 Side 2  free  transition at x/c =  0.0279   14

   6   rms: 0.4434E+00   max: -.1463E+01   D at  100  2   RLX: 0.342
       a = -3.500      CL = -0.3049
      Cm = -0.0128     CD =  0.05426   =>   CDf =  0.00345    CDp =  0.05080

 Side 1 forced transition at x/c =  1.0000   78
 Side 2  free  transition at x/c =  0.0275   14
 idif Ue xi dudx           1  0.29072973      3.55958939E-03   81.675072    
 Uenew xinew           2  6.90020621E-02  8.44836235E-04

   7   rms: 0.5648E+00   max: -.1991E+01   D at  100  2   RLX: 0.251
       a = -3.500      CL = -0.2961
      Cm = -0.0334     CD =  0.04936   =>   CDf =  0.00326    CDp =  0.04610

 Side 1 forced transition at x/c =  1.0000   77
 Side 2  free  transition at x/c =  0.0284   15

   8   rms: 0.9354E+00   max: -.3169E+01   D at  101  2   RLX: 0.158
       a = -3.500      CL = -0.2968
      Cm = -0.0495     CD =  0.04020   =>   CDf =  0.00326    CDp =  0.03694

 Side 1 forced transition at x/c =  1.0000   77
 Side 2  free  transition at x/c =  0.0295   15

   9   rms: 0.1703E+01   max: -.7338E+01   D at   89  2   RLX: 0.068
       a = -3.500      CL = -0.3037
      Cm = -0.0637     CD =  0.03671   =>   CDf =  0.00337    CDp =  0.03334

 Side 1 forced transition at x/c =  1.0000   77
 Side 2  free  transition at x/c =  0.0325   16

  10   rms: 0.7410E+00   max: 0.5398E+01   T at   16  2   RLX: 0.221
       a = -3.500      CL = -0.2719
      Cm = -0.0672     CD =  0.02245   =>   CDf =  0.00466    CDp =  0.01780

 MRCHDU: Convergence failed at  16  side 2    Res =  0.3656E+02
 MRCHDU: Convergence failed at  17  side 2    Res =  0.9046E+02
 MRCHDU: Convergence failed at  18  side 2    Res =  0.1287E+03
 MRCHDU: Convergence failed at  19  side 2    Res =  0.1473E+03
 MRCHDU: Convergence failed at  20  side 2    Res =  0.1608E+03
 MRCHDU: Convergence failed at  21  side 2    Res =  0.3163E+03
 MRCHDU: Convergence failed at  22  side 2    Res =  0.1532E+03
 MRCHDU: Convergence failed at  23  side 2    Res =  0.1497E+03
 MRCHDU: Convergence failed at  24  side 2    Res =  0.4850E+02
 MRCHDU: Convergence failed at  25  side 2    Res =  0.2192E+03
 MRCHDU: Convergence failed at  26  side 2    Res =  0.1081E+04
 MRCHDU: Convergence failed at  27  side 2    Res =  0.2881E+03
 MRCHDU: Convergence failed at  28  side 2    Res =  0.8081E+02
 MRCHDU: Convergence failed at  29  side 2    Res =  0.7969E+02
 MRCHDU: Convergence failed at  30  side 2    Res =  0.7055E+02
 MRCHDU: Convergence failed at  31  side 2    Res =  0.7714E+02
 MRCHDU: Convergence failed at  32  side 2    Res =  0.8411E+02
 MRCHDU: Convergence failed at  33  side 2    Res =  0.9148E+02
 MRCHDU: Convergence failed at  34  side 2    Res =  0.8021E+02
 MRCHDU: Convergence failed at  35  side 2    Res =  0.8584E+02
 MRCHDU: Convergence failed at  36  side 2    Res =  0.6885E+02
 MRCHDU: Convergence failed at  37  side 2    Res =  0.7289E+02
 MRCHDU: Convergence failed at  38  side 2    Res =  0.7720E+02
 MRCHDU: Convergence failed at  39  side 2    Res =  0.8211E+02
 MRCHDU: Convergence failed at  40  side 2    Res =  0.8214E+02
 MRCHDU: Convergence failed at  41  side 2    Res =  0.7219E+02
 MRCHDU: Convergence failed at  42  side 2    Res =  0.1016E+03
 MRCHDU: Convergence failed at  43  side 2    Res =  0.1636E+03
 MRCHDU: Convergence failed at  44  side 2    Res =  0.1276E+03
 MRCHDU: Convergence failed at  45  side 2    Res =  0.1302E+03
 MRCHDU: Convergence failed at  46  side 2    Res =  0.1319E+03
 MRCHDU: Convergence failed at  47  side 2    Res =  0.1332E+03
 MRCHDU: Convergence failed at  48  side 2    Res =  0.1341E+03
 MRCHDU: Convergence failed at  49  side 2    Res =  0.1353E+03
 MRCHDU: Convergence failed at  50  side 2    Res =  0.1364E+03
 MRCHDU: Convergence failed at  51  side 2    Res =  0.1377E+03
 MRCHDU: Convergence failed at  52  side 2    Res =  0.1389E+03
 MRCHDU: Convergence failed at  53  side 2    Res =  0.1404E+03
 MRCHDU: Convergence failed at  54  side 2    Res =  0.1419E+03
 MRCHDU: Convergence failed at  55  side 2    Res =  0.1032E+03
 MRCHDU: Convergence failed at  56  side 2    Res =  0.1040E+03
 MRCHDU: Convergence failed at  57  side 2    Res =  0.1052E+03
 MRCHDU: Convergence failed at  58  side 2    Res =  0.1063E+03
 MRCHDU: Convergence failed at  59  side 2    Res =  0.1073E+03
 MRCHDU: Convergence failed at  60  side 2    Res =  0.1083E+03
 MRCHDU: Convergence failed at  61  side 2    Res =  0.1090E+03
 MRCHDU: Convergence failed at  62  side 2    Res =  0.1095E+03
 MRCHDU: Convergence failed at  63  side 2    Res =  0.1097E+03
 MRCHDU: Convergence failed at  64  side 2    Res =  0.1093E+03
 MRCHDU: Convergence failed at  65  side 2    Res =  0.1078E+03
 MRCHDU: Convergence failed at  66  side 2    Res =  0.3577E+03
 MRCHDU: Convergence failed at  67  side 2    Res =  0.4225E+03
 MRCHDU: Convergence failed at  68  side 2    Res =  0.3217E+03
 MRCHDU: Convergence failed at  69  side 2    Res =  0.5352E+03
 MRCHDU: Convergence failed at  70  side 2    Res =  0.5478E+03
 MRCHDU: Convergence failed at  71  side 2    Res =  0.3144E+03
 MRCHDU: Convergence failed at  72  side 2    Res =  0.3633E+03
 MRCHDU: Convergence failed at  73  side 2    Res =  0.3955E+03
 MRCHDU: Convergence failed at  74  side 2    Res =  0.4330E+03
 MRCHDU: Convergence failed at  75  side 2    Res =  0.2581E+03
 MRCHDU: Convergence failed at  76  side 2    Res =  0.3024E+03
 MRCHDU: Convergence failed at  77  side 2    Res =  0.2123E+03
 MRCHDU: Convergence failed at  78  side 2    Res =  0.2103E+03
 MRCHDU: Convergence failed at  79  side 2    Res =  0.2090E+03
 MRCHDU: Convergence failed at  80  side 2    Res =  0.2084E+03
 MRCHDU: Convergence failed at  81  side 2    Res =  0.3820E+03
 MRCHDU: Convergence failed at  82  side 2    Res =  0.3502E+03
 MRCHDU: Convergence failed at  83  side 2    Res =  0.3193E+03
 MRCHDU: Convergence failed at  84  side 2    Res =  0.2912E+03
 MRCHDU: Convergence failed at  85  side 2    Res =  0.2428E+03
 MRCHDU: Convergence failed at  87  side 2    Res =  0.4777E+00
 Side 1 forced transition at x/c =  1.0000   77
 Side 2  free  transition at x/c =  0.0272   15

  11   rms: 0.1334E+01   max: 0.8612E+01   D at   88  2   RLX: 0.174
       a = -3.500      CL = -1.9880
      Cm =  0.4766     CD =  0.00813   =>   CDf =  0.00259    CDp =  0.00554

 Side 1 forced transition at x/c =  1.0000   77
 Side 2  free  transition at x/c =  0.0266   15

  12   rms: 0.6360E+00   max: -.1431E+01   C at   99  2   RLX: 0.292
       a = -3.500      CL = -1.0304
      Cm =  0.1951     CD =  0.06004   =>   CDf =  0.00314    CDp =  0.05690

 Side 1 forced transition at x/c =  1.0000   77
 Side 2  free  transition at x/c =  0.0268   15

  13   rms: 0.5250E+00   max: -.1347E+01   C at  107  2   RLX: 0.371
       a = -3.500      CL = -0.7124
      Cm =  0.1100     CD =  0.05607   =>   CDf =  0.00354    CDp =  0.05253

 Side 1 forced transition at x/c =  1.0000   78
 Side 2  free  transition at x/c =  0.0270   14

  14   rms: 0.4364E+00   max: -.1315E+01   D at  103  2   RLX: 0.380
       a = -3.500      CL = -0.5237
      Cm =  0.0524     CD =  0.05835   =>   CDf =  0.00358    CDp =  0.05477

 Side 1 forced transition at x/c =  1.0000   78
 Side 2  free  transition at x/c =  0.0272   14
 idif Ue xi dudx           1  0.25150433      3.10873985E-03   80.902344    
 Uenew xinew           2  3.18744481E-02  3.93986702E-04

  15   rms: 0.4419E+00   max: -.1743E+01   D at  102  2   RLX: 0.287
       a = -3.500      CL = -0.4443
      Cm =  0.0193     CD =  0.06583   =>   CDf =  0.00348    CDp =  0.06235

 Side 1 forced transition at x/c =  1.0000   77
 Side 2  free  transition at x/c =  0.0277   15

  16   rms: 0.4944E+00   max: -.1961E+01   D at  103  2   RLX: 0.255
       a = -3.500      CL = -0.4048
      Cm = -0.0035     CD =  0.06220   =>   CDf =  0.00354    CDp =  0.05866

 Side 1 forced transition at x/c =  1.0000   77
 Side 2  free  transition at x/c =  0.0284   15

  17   rms: 0.5960E+00   max: -.2295E+01   D at  103  2   RLX: 0.218
       a = -3.500      CL = -0.3916
      Cm = -0.0216     CD =  0.05546   =>   CDf =  0.00346    CDp =  0.05201

 Side 1 forced transition at x/c =  1.0000   77
 Side 2  free  transition at x/c =  0.0296   15

  18   rms: 0.9965E+00   max: -.3137E+01   D at  103  2   RLX: 0.159
       a = -3.500      CL = -0.3875
      Cm = -0.0381     CD =  0.04640   =>   CDf =  0.00340    CDp =  0.04301

 Side 1 forced transition at x/c =  1.0000   77
 Side 2  free  transition at x/c =  0.0314   16

  19   rms: 0.4430E+00   max: 0.2473E+01   T at   16  2   RLX: 0.311
       a = -3.500      CL = -0.3165
      Cm = -0.0503     CD =  0.03667   =>   CDf =  0.00435    CDp =  0.03232

 MRCHDU: Convergence failed at  16  side 2    Res =  0.4129E+01
 MRCHDU: Convergence failed at  17  side 2    Res =  0.5619E+02
 MRCHDU: Convergence failed at  18  side 2    Res =  0.9490E+02
 MRCHDU: Convergence failed at  19  side 2    Res =  0.2412E+03
 MRCHDU: Convergence failed at  20  side 2    Res =  0.1121E+03
 MRCHDU: Convergence failed at  21  side 2    Res =  0.4676E+02
 MRCHDU: Convergence failed at  22  side 2    Res =  0.5174E+02
 MRCHDU: Convergence failed at  23  side 2    Res =  0.6318E+02
 MRCHDU: Convergence failed at  24  side 2    Res =  0.1938E+03
 MRCHDU: Convergence failed at  25  side 2    Res =  0.2400E+03
 MRCHDU: Convergence failed at  26  side 2    Res =  0.1827E+03
 MRCHDU: Convergence failed at  27  side 2    Res =  0.1878E+03
 MRCHDU: Convergence failed at  28  side 2    Res =  0.1816E+03
 MRCHDU: Convergence failed at  29  side 2    Res =  0.1922E+03
 MRCHDU: Convergence failed at  30  side 2    Res =  0.1978E+03
 MRCHDU: Convergence failed at  31  side 2    Res =  0.2204E+03
 MRCHDU: Convergence failed at  32  side 2    Res =  0.2207E+03
 MRCHDU: Convergence failed at  33  side 2    Res =  0.2142E+03
 MRCHDU: Convergence failed at  34  side 2    Res =  0.2300E+03
 MRCHDU: Convergence failed at  35  side 2    Res =  0.1484E+03
 MRCHDU: Convergence failed at  36  side 2    Res =  0.1009E+03
 MRCHDU: Convergence failed at  37  side 2    Res =  0.1050E+03
 MRCHDU: Convergence failed at  38  side 2    Res =  0.1028E+03
 MRCHDU: Convergence failed at  39  side 2    Res =  0.1056E+03
 MRCHDU: Convergence failed at  40  side 2    Res =  0.1009E+03
 MRCHDU: Convergence failed at  41  side 2    Res =  0.1024E+03
 MRCHDU: Convergence failed at  42  side 2    Res =  0.9572E+02
 MRCHDU: Convergence failed at  43  side 2    Res =  0.9600E+02
 MRCHDU: Convergence failed at  44  side 2    Res =  0.9708E+02
 MRCHDU: Convergence failed at  45  side 2    Res =  0.9866E+02
 MRCHDU: Convergence failed at  46  side 2    Res =  0.9125E+02
 MRCHDU: Convergence failed at  47  side 2    Res =  0.9240E+02
 MRCHDU: Convergence failed at  48  side 2    Res =  0.9327E+02
 MRCHDU: Convergence failed at  49  side 2    Res =  0.9397E+02
 MRCHDU: Convergence failed at  50  side 2    Res =  0.9431E+02
 MRCHDU: Convergence failed at  51  side 2    Res =  0.9435E+02
 MRCHDU: Convergence failed at  52  side 2    Res =  0.9389E+02
 MRCHDU: Convergence failed at  53  side 2    Res =  0.9909E+02
 MRCHDU: Convergence failed at  54  side 2    Res =  0.9627E+02
 MRCHDU: Convergence failed at  55  side 2    Res =  0.9190E+02
 MRCHDU: Convergence failed at  56  side 2    Res =  0.6168E+02
 MRCHDU: Convergence failed at  57  side 2    Res =  0.1300E+03
 MRCHDU: Convergence failed at  58  side 2    Res =  0.1176E+03
 MRCHDU: Convergence failed at  59  side 2    Res =  0.1325E+03
 MRCHDU: Convergence failed at  60  side 2    Res =  0.2780E+03
 MRCHDU: Convergence failed at  61  side 2    Res =  0.3400E+03
 MRCHDU: Convergence failed at  62  side 2    Res =  0.3122E+04
 MRCHDU: Convergence failed at  63  side 2    Res =  0.3163E+03
 MRCHDU: Convergence failed at  64  side 2    Res =  0.3768E+03
 MRCHDU: Convergence failed at  65  side 2    Res =  0.1200E+03
 MRCHDU: Convergence failed at  66  side 2    Res =  0.1169E+03
 MRCHDU: Convergence failed at  67  side 2    Res =  0.2217E+03
 MRCHDU: Convergence failed at  68  side 2    Res =  0.1894E+03
 MRCHDU: Convergence failed at  69  side 2    Res =  0.1995E+03
 MRCHDU: Convergence failed at  70  side 2    Res =  0.1171E+03
 MRCHDU: Convergence failed at  71  side 2    Res =  0.2280E+03
 MRCHDU: Convergence failed at  72  side 2    Res =  0.4263E+03
 MRCHDU: Convergence failed at  73  side 2    Res =  0.3975E+03
 MRCHDU: Convergence failed at  74  side 2    Res =  0.5562E+03
 MRCHDU: Convergence failed at  75  side 2    Res =  0.1125E+04
 MRCHDU: Convergence failed at  76  side 2    Res =  0.8504E+03
 MRCHDU: Convergence failed at  77  side 2    Res =  0.7304E+03
 MRCHDU: Convergence failed at  78  side 2    Res =  0.8281E+02
 MRCHDU: Convergence failed at  79  side 2    Res =  0.1708E+04
 MRCHDU: Convergence failed at  80  side 2    Res =  0.7899E+02
 MRCHDU: Convergence failed at  81  side 2    Res =  0.8659E+02
 MRCHDU: Convergence failed at  82  side 2    Res =  0.2302E+03
 MRCHDU: Convergence failed at  83  side 2    Res =  0.1804E+03
 MRCHDU: Convergence failed at  84  side 2    Res =  0.1909E+03
 MRCHDU: Convergence failed at  85  side 2    Res =  0.2497E+03
 Side 1 forced transition at x/c =  1.0000   77
 Side 2  free  transition at x/c =  0.0290   15

  20   rms: 0.1079E+01   max: 0.5827E+01   D at   88  2   RLX: 0.257
       a = -3.500      CL = -1.6835
      Cm =  0.3979     CD =  0.00766   =>   CDf =  0.00263    CDp =  0.00503

 MRCHDU: Convergence failed at  88  side 2    Res =  0.1291E+02
 MRCHDU: Convergence failed at  89  side 2    Res =  0.3475E+01
 MRCHDU: Convergence failed at  90  side 2    Res =  0.3631E+01
 Side 1 forced transition at x/c =  1.0000   77
 Side 2  free  transition at x/c =  0.0280   15

  21   rms: 0.6027E+00   max: -.1751E+01   C at  101  2   RLX: 0.286
       a = -3.500      CL = -0.9119
      Cm =  0.1712     CD =  0.05920   =>   CDf =  0.00343    CDp =  0.05577

 Side 1 forced transition at x/c =  1.0000   78
 Side 2  free  transition at x/c =  0.0280   14

  22   rms: 0.6171E+00   max: -.5866E+01   D at    2  1   RLX: 0.085
       a = -3.500      CL = -0.8334
      Cm =  0.1477     CD =  0.10650   =>   CDf =  0.00358    CDp =  0.10292

 Side 1 forced transition at x/c =  1.0000   78
 Side 2  free  transition at x/c =  0.0279   14

  23   rms: 0.5022E+00   max: -.1437E+01   C at  106  2   RLX: 0.348
       a = -3.500      CL = -0.6268
      Cm =  0.0923     CD =  0.06131   =>   CDf =  0.00361    CDp =  0.05770

 Side 1 forced transition at x/c =  1.0000   78
 Side 2  free  transition at x/c =  0.0279   14

  24   rms: 0.4442E+00   max: -.1701E+01   D at  104  2   RLX: 0.294
       a = -3.500      CL = -0.5136
      Cm =  0.0544     CD =  0.07268   =>   CDf =  0.00372    CDp =  0.06897

 Side 1 forced transition at x/c =  1.0000   78
 Side 2  free  transition at x/c =  0.0280   14
 idif Ue xi dudx           1  0.22696595      2.79974937E-03   81.066521    
 Uenew xinew           2  6.89034816E-03  8.49962234E-05

  25   rms: 0.4552E+00   max: -.2009E+01   D at  103  2   RLX: 0.249
       a = -3.500      CL = -0.4595
      Cm =  0.0305     CD =  0.07811   =>   CDf =  0.00362    CDp =  0.07449

 Side 1 forced transition at x/c =  1.0000   77
 Side 2  free  transition at x/c =  0.0283   15

  26   rms: 0.5548E+00   max: 0.3777E+01   T at    2  2   RLX: 0.208
       a = -3.500      CL = -0.4400
      Cm =  0.0141     CD =  0.07797   =>   CDf =  0.00371    CDp =  0.07427

 MRCHDU: Convergence failed at 102  side 2    Res =  0.1214E+01
 Side 1 forced transition at x/c =  1.0000   77
 Side 2  free  transition at x/c =  0.0290   15

  27   rms: 0.5310E+00   max: -.2332E+01   D at  104  2   RLX: 0.214
       a = -3.500      CL = -0.4247
      Cm = -0.0009     CD =  0.07054   =>   CDf =  0.00368    CDp =  0.06686

 Side 1 forced transition at x/c =  1.0000   77
 Side 2  free  transition at x/c =  0.0295   15

  28   rms: 0.6256E+00   max: -.2688E+01   D at  104  2   RLX: 0.186
       a = -3.500      CL = -0.4177
      Cm = -0.0151     CD =  0.06600   =>   CDf =  0.00362    CDp =  0.06238

 Side 1 forced transition at x/c =  1.0000   77
 Side 2  free  transition at x/c =  0.0311   16

  29   rms: 0.1465E+01   max: -.1573E+02   T at   16  2   RLX: 0.032
       a = -3.500      CL = -0.3741
      Cm = -0.0345     CD =  0.07492   =>   CDf =  0.00354    CDp =  0.07138

 Side 1 forced transition at x/c =  1.0000   77
 Side 2  free  transition at x/c =  0.0341   16

  30   rms: 0.7140E+00   max: -.7023E+01   T at   16  2   RLX: 0.071
       a = -3.500      CL = -0.4733
      Cm = -0.0085     CD =  0.07578   =>   CDf =  0.00350    CDp =  0.07228

 Side 1 forced transition at x/c =  1.0000   77
 Side 2  free  transition at x/c =  0.0389   16

  31   rms: 0.1038E+01   max: -.6891E+01   T at   16  2   RLX: 0.073
       a = -3.500      CL = -0.4997
      Cm = -0.0065     CD =  0.06663   =>   CDf =  0.00349    CDp =  0.06313

 Side 1 forced transition at x/c =  1.0000   77
 Side 2  free  transition at x/c =  0.0428   17

  32   rms: 0.2008E+01   max: -.8218E+01   T at   17  2   RLX: 0.061
       a = -3.500      CL = -0.4198
      Cm = -0.0106     CD =  0.08104   =>   CDf =  0.00344    CDp =  0.07760

 Side 1 forced transition at x/c =  1.0000   77
 Side 2  free  transition at x/c =  0.0456   17

  33   rms: 0.4974E+01   max: -.5818E+02   T at   17  2   RLX: 0.009
       a = -3.500      CL = -0.4537
      Cm =  0.0064     CD =  0.08321   =>   CDf =  0.00344    CDp =  0.07977

 Side 1 forced transition at x/c =  1.0000   77
 Side 2  free  transition at x/c =  0.0527   17

  34   rms: 0.5546E+00   max: -.4013E+01   T at   18  2   RLX: 0.125
       a = -3.500      CL = -0.4666
      Cm =  0.0130     CD =  0.07503   =>   CDf =  0.00346    CDp =  0.07157

 Side 1 forced transition at x/c =  1.0000   77
 Side 2  free  transition at x/c =  0.0520   17

  35   rms: 0.6949E+00   max: -.5131E+01   T at   17  2   RLX: 0.097
       a = -3.500      CL = -0.5057
      Cm =  0.0205     CD =  0.07366   =>   CDf =  0.00344    CDp =  0.07023

 Side 1 forced transition at x/c =  1.0000   77
 Side 2  free  transition at x/c =  0.0694   19

  36   rms: 0.9771E+00   max: -.8324E+01   T at   19  2   RLX: 0.060
       a = -3.500      CL = -0.4356
      Cm =  0.0042     CD =  0.07736   =>   CDf =  0.00345    CDp =  0.07392

 Side 1 forced transition at x/c =  1.0000   78
 Side 2  free  transition at x/c =  0.0736   18
 idif Ue xi dudx           1  0.24794298      3.21173668E-03   77.199036    
 Uenew xinew           2  3.83666493E-02  4.96983528E-04

  37   rms: 0.1381E+01   max: 0.2148E+02   T at   18  2   RLX: 0.070
       a = -3.500      CL = -0.4627
      Cm =  0.0037     CD =  0.06715   =>   CDf =  0.00331    CDp =  0.06384

 Side 1 forced transition at x/c =  1.0000   77
 Side 2  free  transition at x/c =  0.0697   19

  38   rms: 0.8857E+00   max: -.7744E+01   T at   19  2   RLX: 0.065
       a = -3.500      CL = -0.4445
      Cm =  0.0053     CD =  0.07374   =>   CDf =  0.00332    CDp =  0.07042

 Side 1 forced transition at x/c =  1.0000   77
 Side 2  free  transition at x/c =  0.0739   19

  39   rms: 0.3275E+01   max: -.6453E+02   T at   19  2   RLX: 0.008
       a = -3.500      CL = -0.4647
      Cm =  0.0145     CD =  0.07665   =>   CDf =  0.00340    CDp =  0.07325

 TRCHEK2: N2 convergence failed.
 x:  0.33071  0.34152  0.34487  N:  8.949  9.000  9.011  Nx:   6.428   dN:-0.129E+00
 TRCHEK2: N2 convergence failed.
 x:  0.33071  0.34487  0.34487  N:  8.949  9.000  9.017  Nx:   4.752   dN: 0.166E-01
 TRCHEK2: N2 convergence failed.
 x:  0.33071  0.34306  0.34487  N:  8.949  9.000  9.004  Nx:   8.131   dN:-0.831E-01
 TRCHEK2: N2 convergence failed.
 x:  0.33071  0.34403  0.34487  N:  8.949  9.000  9.000  Nx:   7.450   dN:-0.499E-01
 TRCHEK2: N2 convergence failed.
 x:  0.33071  0.34487  0.34487  N:  8.949  9.000  9.043  Nx:   6.524   dN: 0.427E-01
 TRCHEK2: N2 convergence failed.
 x:  0.33071  0.34263  0.34487  N:  8.949  9.000  9.006  Nx:   8.370   dN:-0.241E-01
 TRCHEK2: N2 convergence failed.
 x:  0.33071  0.34487  0.34487  N:  8.949  9.000  9.001  Nx:   3.709   dN: 0.147E-02
 MRCHDU: Convergence failed at  37  side 2    Res =  0.2745E+03
 MRCHDU: Convergence failed at  38  side 2    Res =  0.5258E+02
 MRCHDU: Convergence failed at  39  side 2    Res =  0.3635E+02
 MRCHDU: Convergence failed at  40  side 2    Res =  0.2932E+02
 MRCHDU: Convergence failed at  41  side 2    Res =  0.4691E+02
 MRCHDU: Convergence failed at  42  side 2    Res =  0.9341E+02
 MRCHDU: Convergence failed at  43  side 2    Res =  0.1588E+03
 MRCHDU: Convergence failed at  44  side 2    Res =  0.3375E+03
 MRCHDU: Convergence failed at  45  side 2    Res =  0.1489E+03
 MRCHDU: Convergence failed at  46  side 2    Res =  0.4915E+02
 MRCHDU: Convergence failed at  47  side 2    Res =  0.1681E+03
 MRCHDU: Convergence failed at  48  side 2    Res =  0.1419E+03
 MRCHDU: Convergence failed at  49  side 2    Res =  0.9881E+02
 MRCHDU: Convergence failed at  50  side 2    Res =  0.1507E+03
 MRCHDU: Convergence failed at  51  side 2    Res =  0.1511E+03
 MRCHDU: Convergence failed at  52  side 2    Res =  0.1525E+03
 MRCHDU: Convergence failed at  53  side 2    Res =  0.1542E+03
 MRCHDU: Convergence failed at  54  side 2    Res =  0.1560E+03
 MRCHDU: Convergence failed at  55  side 2    Res =  0.1576E+03
 MRCHDU: Convergence failed at  56  side 2    Res =  0.1590E+03
 MRCHDU: Convergence failed at  57  side 2    Res =  0.1603E+03
 MRCHDU: Convergence failed at  58  side 2    Res =  0.1619E+03
 MRCHDU: Convergence failed at  59  side 2    Res =  0.1642E+03
 MRCHDU: Convergence failed at  60  side 2    Res =  0.1119E+03
 MRCHDU: Convergence failed at  61  side 2    Res =  0.1660E+03
 MRCHDU: Convergence failed at  62  side 2    Res =  0.6046E+02
 MRCHDU: Convergence failed at  63  side 2    Res =  0.1241E+03
 MRCHDU: Convergence failed at  64  side 2    Res =  0.1707E+03
 MRCHDU: Convergence failed at  65  side 2    Res =  0.1824E+03
 MRCHDU: Convergence failed at  66  side 2    Res =  0.1773E+03
 MRCHDU: Convergence failed at  67  side 2    Res =  0.6859E+02
 MRCHDU: Convergence failed at  68  side 2    Res =  0.1782E+03
 MRCHDU: Convergence failed at  69  side 2    Res =  0.2005E+03
 MRCHDU: Convergence failed at  70  side 2    Res =  0.1826E+03
 MRCHDU: Convergence failed at  71  side 2    Res =  0.5190E+03
 MRCHDU: Convergence failed at  72  side 2    Res =  0.2071E+03
 MRCHDU: Convergence failed at  73  side 2    Res =  0.1875E+04
 MRCHDU: Convergence failed at  74  side 2    Res =  0.2163E+03
 MRCHDU: Convergence failed at  75  side 2    Res =  0.7455E+03
 MRCHDU: Convergence failed at  76  side 2    Res =  0.5638E+02
 MRCHDU: Convergence failed at  77  side 2    Res =  0.2779E+03
 MRCHDU: Convergence failed at  78  side 2    Res =  0.8195E+02
 MRCHDU: Convergence failed at  79  side 2    Res =  0.6193E+02
 MRCHDU: Convergence failed at  80  side 2    Res =  0.6391E+02
 MRCHDU: Convergence failed at  81  side 2    Res =  0.1878E+03
 MRCHDU: Convergence failed at  82  side 2    Res =  0.1719E+03
 MRCHDU: Convergence failed at  83  side 2    Res =  0.3323E+03
 MRCHDU: Convergence failed at  84  side 2    Res =  0.3665E+03
 Side 1 forced transition at x/c =  1.0000   78
 Side 2  free  transition at x/c =  0.3271   36

  40   rms: 0.1151E+01   max: 0.2140E+02   T at   36  2   RLX: 0.064
       a = -3.500      CL = -1.0265
      Cm =  0.2255     CD =  0.00889   =>   CDf =  0.00290    CDp =  0.00598

 Side 1 forced transition at x/c =  1.0000   78
 Side 2  free  transition at x/c =  0.2073   28

  41   rms: 0.5962E+00   max: 0.4902E+01   T at   28  2   RLX: 0.244
       a = -3.500      CL = -0.7910
      Cm =  0.1305     CD =  0.05969   =>   CDf =  0.00320    CDp =  0.05648

 MRCHDU: Convergence failed at 100  side 2    Res =  0.1592E+01
 MRCHDU: Convergence failed at 101  side 2    Res =  0.1321E+01
 MRCHDU: Convergence failed at 102  side 2    Res =  0.1648E+01
 Side 1 forced transition at x/c =  1.0000   78
 Side 2  free  transition at x/c =  0.0944   19
 idif Ue xi dudx           1  0.23068289      3.08227539E-03   74.841751    
 Uenew xinew           2  2.75060087E-02  3.67522240E-04

  42   rms: 0.1732E+01   max: 0.1987E+02   T at   20  2   RLX: 0.075
       a = -3.500      CL = -0.8276
      Cm =  0.1453     CD =  0.10776   =>   CDf =  0.00342    CDp =  0.10433

 Side 1 forced transition at x/c =  1.0000   77
 Side 2  free  transition at x/c =  0.0918   20

  43   rms: 0.4506E+00   max: -.1455E+01   C at  107  2   RLX: 0.344
       a = -3.500      CL = -0.7217
      Cm =  0.1076     CD =  0.06381   =>   CDf =  0.00351    CDp =  0.06030

 MRCHDU: Convergence failed at  98  side 2    Res =  0.9310E+00
 MRCHDU: Convergence failed at  99  side 2    Res =  0.1026E+01
 MRCHDU: Convergence failed at 100  side 2    Res =  0.1241E+01
 MRCHDU: Convergence failed at 101  side 2    Res =  0.1971E+01
 MRCHDU: Convergence failed at 102  side 2    Res =  0.4420E+02
 MRCHDU: Convergence failed at 103  side 2    Res =  0.1813E+01
 Side 1 forced transition at x/c =  1.0000   77
 Side 2  free  transition at x/c =  0.0913   20

  44   rms: 0.4279E+00   max: -.1447E+01   D at  106  2   RLX: 0.345
       a = -3.500      CL = -0.5631
      Cm =  0.0604     CD =  0.06132   =>   CDf =  0.00376    CDp =  0.05756

 Side 1 forced transition at x/c =  1.0000   78
 Side 2  free  transition at x/c =  0.0921   19

  45   rms: 0.4219E+00   max: -.1626E+01   D at  104  2   RLX: 0.308
       a = -3.500      CL = -0.4729
      Cm =  0.0281     CD =  0.06721   =>   CDf =  0.00368    CDp =  0.06353

 Side 1 forced transition at x/c =  1.0000   78
 Side 2  free  transition at x/c =  0.0930   19
 idif Ue xi dudx           1  0.21388666      2.75206566E-03   77.718590    
 Uenew xinew           2  2.89987540E-03  3.73125076E-05

  46   rms: 0.4623E+00   max: -.1815E+01   D at  102  2   RLX: 0.276
       a = -3.500      CL = -0.4265
      Cm =  0.0030     CD =  0.06880   =>   CDf =  0.00352    CDp =  0.06528

 Side 1 forced transition at x/c =  1.0000   77
 Side 2  free  transition at x/c =  0.0932   20

  47   rms: 0.6684E+00   max: 0.7607E+01   D at    2  2   RLX: 0.140
       a = -3.500      CL = -0.4084
      Cm = -0.0132     CD =  0.07354   =>   CDf =  0.00348    CDp =  0.07006

 Side 1 forced transition at x/c =  1.0000   77
 Side 2  free  transition at x/c =  0.0930   20

  48   rms: 0.5525E+00   max: -.2345E+01   D at  102  2   RLX: 0.213
       a = -3.500      CL = -0.4166
      Cm = -0.0252     CD =  0.05721   =>   CDf =  0.00343    CDp =  0.05378

 Side 1 forced transition at x/c =  1.0000   77
 Side 2  free  transition at x/c =  0.0900   20

  49   rms: 0.8831E+00   max: -.3613E+01   D at  102  2   RLX: 0.138
       a = -3.500      CL = -0.4287
      Cm = -0.0400     CD =  0.04593   =>   CDf =  0.00336    CDp =  0.04256

 Side 1 forced transition at x/c =  1.0000   77
 Side 2  free  transition at x/c =  0.0781   19

  50   rms: 0.7065E+00   max: -.2850E+01   D at   98  2   RLX: 0.175
       a = -3.500      CL = -0.4948
      Cm = -0.0307     CD =  0.03855   =>   CDf =  0.00337    CDp =  0.03518

 Side 1 forced transition at x/c =  1.0000   77
 Side 2  free  transition at x/c =  0.0715   19

  51   rms: 0.1199E+01   max: -.5651E+01   D at   87  2   RLX: 0.088
       a = -3.500      CL = -0.5451
      Cm = -0.0250     CD =  0.03615   =>   CDf =  0.00333    CDp =  0.03282

 MRCHDU: Convergence failed at  58  side 2    Res =  0.8457E+00
 MRCHDU: Convergence failed at  59  side 2    Res =  0.9353E+00
 MRCHDU: Convergence failed at  60  side 2    Res =  0.1032E+01
 MRCHDU: Convergence failed at  61  side 2    Res =  0.1953E+01
 MRCHDU: Convergence failed at  87  side 2    Res =  0.2110E+00
 Side 1 forced transition at x/c =  1.0000   77
 Side 2  free  transition at x/c =  0.0682   19

  52   rms: 0.6102E+00   max: -.2033E+01   D at   89  2   RLX: 0.246
       a = -3.500      CL = -0.5827
      Cm = -0.0149     CD =  0.04370   =>   CDf =  0.00329    CDp =  0.04041

 Side 1 forced transition at x/c =  1.0000   77
 Side 2  free  transition at x/c =  0.0680   19

  53   rms: 0.4215E+00   max: -.1302E+01   D at   65  2   RLX: 0.384
       a = -3.500      CL = -0.5439
      Cm = -0.0226     CD =  0.04136   =>   CDf =  0.00341    CDp =  0.03795

 Side 1 forced transition at x/c =  1.0000   77
 Side 2  free  transition at x/c =  0.0683   19

  54   rms: 0.3766E+00   max: -.1314E+01   T at   19  2   RLX: 0.380
       a = -3.500      CL = -0.5056
      Cm = -0.0200     CD =  0.03925   =>   CDf =  0.00353    CDp =  0.03572

 MRCHDU: Convergence failed at  76  side 2    Res =  0.9040E+00
 Side 1 forced transition at x/c =  1.0000   77
 Side 2  free  transition at x/c =  0.0688   19

  55   rms: 0.5425E+00   max: -.4092E+01   T at   19  2   RLX: 0.122
       a = -3.500      CL = -0.5019
      Cm = -0.0097     CD =  0.04441   =>   CDf =  0.00309    CDp =  0.04132

 Side 1 forced transition at x/c =  1.0000   77
 Side 2  free  transition at x/c =  0.0690   19

  56   rms: 0.1099E+01   max: 0.6578E+01   T at   19  2   RLX: 0.200
       a = -3.500      CL = -0.6049
      Cm = -0.0074     CD =  0.04461   =>   CDf =  0.00288    CDp =  0.04172

 MRCHDU: Convergence failed at  83  side 2    Res =  0.2342E+01
 MRCHDU: Convergence failed at  84  side 2    Res =  0.1374E+01
 Side 1 forced transition at x/c =  1.0000   77
 Side 2  free  transition at x/c =  0.0606   18

  57   rms: 0.3449E+00   max: -.1225E+01   D at   82  2   RLX: 0.408
       a = -3.500      CL = -0.6275
      Cm =  0.0026     CD =  0.03589   =>   CDf =  0.00295    CDp =  0.03294

 Side 1 forced transition at x/c =  1.0000   77
 Side 2  free  transition at x/c =  0.0594   18

  58   rms: 0.2838E+00   max: -.1460E+01   T at   18  2   RLX: 0.342
       a = -3.500      CL = -0.5778
      Cm =  0.0018     CD =  0.03557   =>   CDf =  0.00325    CDp =  0.03233

 Side 1 forced transition at x/c =  1.0000   77
 Side 2  free  transition at x/c =  0.0615   18

  59   rms: 0.2706E+00   max: -.1037E+01   D at   79  2   RLX: 0.482
       a = -3.500      CL = -0.5438
      Cm =  0.0020     CD =  0.03589   =>   CDf =  0.00318    CDp =  0.03271

 Side 1 forced transition at x/c =  1.0000   77
 Side 2  free  transition at x/c =  0.0639   18

  60   rms: 0.2408E+00   max: -.1084E+01   T at   18  2   RLX: 0.461
       a = -3.500      CL = -0.4921
      Cm =  0.0015     CD =  0.03505   =>   CDf =  0.00363    CDp =  0.03143

 Side 1 forced transition at x/c =  1.0000   77
 Side 2  free  transition at x/c =  0.0629   18

  61   rms: 0.2158E+00   max: -.6920E+00   D at   18  2   RLX: 0.723
       a = -3.500      CL = -0.4023
      Cm = -0.0049     CD =  0.02824   =>   CDf =  0.00419    CDp =  0.02405

 Side 1 forced transition at x/c =  1.0000   77
 Side 2  free  transition at x/c =  0.0657   18

  62   rms: 0.1710E+00   max: -.5959E+00   D at   18  2   RLX: 0.839
       a = -3.500      CL = -0.3338
      Cm = -0.0117     CD =  0.02663   =>   CDf =  0.00492    CDp =  0.02171

 Side 1 forced transition at x/c =  1.0000   77
 Side 2  free  transition at x/c =  0.0550   18

  63   rms: 0.2702E+00   max: -.8762E+00   D at   18  2   RLX: 0.571
       a = -3.500      CL = -0.3388
      Cm = -0.0127     CD =  0.03065   =>   CDf =  0.00445    CDp =  0.02620

 Side 1 forced transition at x/c =  1.0000   77
 Side 2  free  transition at x/c =  0.0556   18

  64   rms: 0.2430E+00   max: -.1107E+01   T at   18  2   RLX: 0.451
       a = -3.500      CL = -0.3295
      Cm = -0.0143     CD =  0.02954   =>   CDf =  0.00475    CDp =  0.02479

 Side 1 forced transition at x/c =  1.0000   78
 Side 2  free  transition at x/c =  0.0572   17

  65   rms: 0.2286E+00   max: -.1313E+01   T at   17  2   RLX: 0.381
       a = -3.500      CL = -0.3274
      Cm = -0.0155     CD =  0.03010   =>   CDf =  0.00465    CDp =  0.02545

 Side 1 forced transition at x/c =  1.0000   78
 Side 2  free  transition at x/c =  0.0572   17
 idif Ue xi dudx           1  0.25237799      3.02970409E-03   83.301201    
 Uenew xinew           2  2.62357909E-02  3.14950943E-04

  66   rms: 0.4173E+00   max: 0.3828E+01   T at   17  2   RLX: 0.392
       a = -3.500      CL = -0.3293
      Cm = -0.0151     CD =  0.03219   =>   CDf =  0.00426    CDp =  0.02793

 Side 1 forced transition at x/c =  1.0000   77
 Side 2  free  transition at x/c =  0.0409   16

  67   rms: 0.3282E+00   max: -.1106E+01   T at   17  2   RLX: 0.452
       a = -3.500      CL = -0.3492
      Cm = -0.0138     CD =  0.03163   =>   CDf =  0.00419    CDp =  0.02743

 Side 1 forced transition at x/c =  1.0000   77
 Side 2  free  transition at x/c =  0.0404   16

  68   rms: 0.3246E+00   max: -.8731E+00   D at   40  2   RLX: 0.573
       a = -3.500      CL = -0.3526
      Cm = -0.0128     CD =  0.02875   =>   CDf =  0.00410    CDp =  0.02465

 Side 1 forced transition at x/c =  1.0000   77
 Side 2  free  transition at x/c =  0.0395   16

  69   rms: 0.2661E+00   max: 0.8578E+00   T at   16  2   RLX: 0.679
       a = -3.500      CL = -0.3345
      Cm = -0.0132     CD =  0.02373   =>   CDf =  0.00479    CDp =  0.01894

 Side 1 forced transition at x/c =  1.0000   77
 Side 2  free  transition at x/c =  0.0360   16

  70   rms: 0.3345E+00   max: 0.1982E+01   T at   16  2   RLX: 0.540
       a = -3.500      CL = -0.3205
      Cm = -0.0132     CD =  0.02157   =>   CDf =  0.00530    CDp =  0.01627

 Side 1 forced transition at x/c =  1.0000   77
 Side 2  free  transition at x/c =  0.0298   15

  71   rms: 0.1295E+01   max: 0.1124E+02   T at   15  2   RLX: 0.077
       a = -3.500      CL = -0.3410
      Cm = -0.0141     CD =  0.02454   =>   CDf =  0.00531    CDp =  0.01923

 Side 1 forced transition at x/c =  1.0000   77
 Side 2  free  transition at x/c =  0.0282   15

  72   rms: 0.3380E+00   max: -.1040E+01   D at   32  2   RLX: 0.481
       a = -3.500      CL = -0.3341
      Cm = -0.0137     CD =  0.02355   =>   CDf =  0.00491    CDp =  0.01864

 Side 1 forced transition at x/c =  1.0000   77
 Side 2  free  transition at x/c =  0.0280   15

  73   rms: 0.2331E+00   max: -.7418E+00   D at   29  2   RLX: 0.674
       a = -3.500      CL = -0.3100
      Cm = -0.0146     CD =  0.01979   =>   CDf =  0.00575    CDp =  0.01403

 Side 1 forced transition at x/c =  1.0000   77
 Side 2  free  transition at x/c =  0.0273   15

  74   rms: 0.1218E+00   max: -.4597E+00   D at   17  2
       a = -3.500      CL = -0.2843
      Cm = -0.0169     CD =  0.01737   =>   CDf =  0.00665    CDp =  0.01072

 Side 1 forced transition at x/c =  1.0000   77
 Side 2  free  transition at x/c =  0.0264   15

  75   rms: 0.5736E-02   max: -.5006E-01   D at   18  2
       a = -3.500      CL = -0.2824
      Cm = -0.0173     CD =  0.01768   =>   CDf =  0.00722    CDp =  0.01046

 Side 1 forced transition at x/c =  1.0000   77
 Side 2  free  transition at x/c =  0.0265   15

  76   rms: 0.8025E-04   max: -.9625E-03   D at   18  2
       a = -3.500      CL = -0.2824
      Cm = -0.0173     CD =  0.01768   =>   CDf =  0.00724    CDp =  0.01044
 plradd ia,ip,cpol            2           0  8.25732655E-04

 Point added to stored polar  1
 Point written to save file  jx-gs-04_Re200k.base.pol                        
 Dump file unspecified or not available
 Calculating wake trajectory ...
 Calculating source influence matrix ...

 Solving BL system ...

 Side 1 forced transition at x/c =  1.0000   77
 Side 2  free  transition at x/c =  0.0265   15

   1   rms: 0.1629E+00   max: -.5583E+00   D at   19  2   RLX: 0.896
       a = -3.000      CL = -0.2375
      Cm = -0.0151     CD =  0.01411   =>   CDf =  0.00730    CDp =  0.00681

 Side 1 forced transition at x/c =  1.0000   78
 Side 2  free  transition at x/c =  0.0262   14

   2   rms: 0.3077E-01   max: 0.2615E+00   D at   14  2
       a = -3.000      CL = -0.2326
      Cm = -0.0149     CD =  0.01463   =>   CDf =  0.00758    CDp =  0.00704

 Side 1 forced transition at x/c =  1.0000   78
 Side 2  free  transition at x/c =  0.0268   14

   3   rms: 0.2591E-02   max: 0.1448E-01   D at   16  2
       a = -3.000      CL = -0.2328
      Cm = -0.0148     CD =  0.01458   =>   CDf =  0.00759    CDp =  0.00700

 Side 1 forced transition at x/c =  1.0000   78
 Side 2  free  transition at x/c =  0.0268   14

   4   rms: 0.1106E-04   max: 0.1073E-03   D at   15  2
       a = -3.000      CL = -0.2328
      Cm = -0.0148     CD =  0.01458   =>   CDf =  0.00758    CDp =  0.00700
 plradd ia,ip,cpol            3           0  8.25732655E-04

 Point added to stored polar  1
 Point written to save file  jx-gs-04_Re200k.base.pol                        
 Dump file unspecified or not available
 Calculating wake trajectory ...
 Calculating source influence matrix ...

 Solving BL system ...

 Side 1 forced transition at x/c =  1.0000   78
 Side 2  free  transition at x/c =  0.0268   14

   1   rms: 0.1370E+00   max: -.4620E+00   D at   17  2
       a = -2.500      CL = -0.1844
      Cm = -0.0125     CD =  0.01208   =>   CDf =  0.00758    CDp =  0.00450

 MRCHDU: Convergence failed at  15  side 2    Res =  0.6655E+01
 MRCHDU: Convergence failed at  16  side 2    Res =  0.1404E+02
 MRCHDU: Convergence failed at  17  side 2    Res =  0.6428E+03
 MRCHDU: Convergence failed at  18  side 2    Res =  0.7250E+02
 MRCHDU: Convergence failed at  19  side 2    Res =  0.6106E+02
 MRCHDU: Convergence failed at  20  side 2    Res =  0.6242E+03
 MRCHDU: Convergence failed at  21  side 2    Res =  0.1973E+03
 MRCHDU: Convergence failed at  22  side 2    Res =  0.1360E+03
 MRCHDU: Convergence failed at  23  side 2    Res =  0.6429E+02
 MRCHDU: Convergence failed at  24  side 2    Res =  0.4286E+02
 MRCHDU: Convergence failed at  25  side 2    Res =  0.3291E+02
 MRCHDU: Convergence failed at  26  side 2    Res =  0.2776E+02
 MRCHDU: Convergence failed at  27  side 2    Res =  0.2477E+02
 MRCHDU: Convergence failed at  28  side 2    Res =  0.2194E+02
 MRCHDU: Convergence failed at  29  side 2    Res =  0.1981E+02
 MRCHDU: Convergence failed at  30  side 2    Res =  0.1773E+02
 MRCHDU: Convergence failed at  31  side 2    Res =  0.1867E+02
 MRCHDU: Convergence failed at  32  side 2    Res =  0.1991E+02
 MRCHDU: Convergence failed at  33  side 2    Res =  0.2082E+02
 MRCHDU: Convergence failed at  34  side 2    Res =  0.2189E+02
 MRCHDU: Convergence failed at  35  side 2    Res =  0.2277E+02
 MRCHDU: Convergence failed at  36  side 2    Res =  0.2364E+02
 MRCHDU: Convergence failed at  37  side 2    Res =  0.2448E+02
 MRCHDU: Convergence failed at  38  side 2    Res =  0.2521E+02
 MRCHDU: Convergence failed at  39  side 2    Res =  0.2594E+02
 MRCHDU: Convergence failed at  40  side 2    Res =  0.2653E+02
 MRCHDU: Convergence failed at  41  side 2    Res =  0.2711E+02
 MRCHDU: Convergence failed at  42  side 2    Res =  0.2765E+02
 MRCHDU: Convergence failed at  43  side 2    Res =  0.2809E+02
 MRCHDU: Convergence failed at  44  side 2    Res =  0.2853E+02
 MRCHDU: Convergence failed at  45  side 2    Res =  0.2895E+02
 MRCHDU: Convergence failed at  46  side 2    Res =  0.2930E+02
 MRCHDU: Convergence failed at  47  side 2    Res =  0.2963E+02
 MRCHDU: Convergence failed at  48  side 2    Res =  0.2994E+02
 MRCHDU: Convergence failed at  49  side 2    Res =  0.3999E+02
 MRCHDU: Convergence failed at  50  side 2    Res =  0.3060E+02
 MRCHDU: Convergence failed at  51  side 2    Res =  0.4149E+02
 MRCHDU: Convergence failed at  52  side 2    Res =  0.4227E+02
 MRCHDU: Convergence failed at  53  side 2    Res =  0.4302E+02
 MRCHDU: Convergence failed at  54  side 2    Res =  0.4377E+02
 MRCHDU: Convergence failed at  55  side 2    Res =  0.4453E+02
 MRCHDU: Convergence failed at  56  side 2    Res =  0.4530E+02
 MRCHDU: Convergence failed at  57  side 2    Res =  0.4599E+02
 MRCHDU: Convergence failed at  58  side 2    Res =  0.4674E+02
 MRCHDU: Convergence failed at  59  side 2    Res =  0.4752E+02
 MRCHDU: Convergence failed at  60  side 2    Res =  0.4830E+02
 MRCHDU: Convergence failed at  61  side 2    Res =  0.3353E+02
 MRCHDU: Convergence failed at  62  side 2    Res =  0.3381E+02
 MRCHDU: Convergence failed at  63  side 2    Res =  0.3413E+02
 MRCHDU: Convergence failed at  64  side 2    Res =  0.3441E+02
 MRCHDU: Convergence failed at  65  side 2    Res =  0.3484E+02
 MRCHDU: Convergence failed at  66  side 2    Res =  0.3516E+02
 MRCHDU: Convergence failed at  67  side 2    Res =  0.3562E+02
 MRCHDU: Convergence failed at  68  side 2    Res =  0.3600E+02
 MRCHDU: Convergence failed at  69  side 2    Res =  0.3642E+02
 MRCHDU: Convergence failed at  70  side 2    Res =  0.3684E+02
 MRCHDU: Convergence failed at  71  side 2    Res =  0.3748E+02
 MRCHDU: Convergence failed at  72  side 2    Res =  0.3801E+02
 MRCHDU: Convergence failed at  73  side 2    Res =  0.3867E+02
 MRCHDU: Convergence failed at  74  side 2    Res =  0.3934E+02
 MRCHDU: Convergence failed at  75  side 2    Res =  0.4015E+02
 MRCHDU: Convergence failed at  76  side 2    Res =  0.4111E+02
 MRCHDU: Convergence failed at  77  side 2    Res =  0.4216E+02
 MRCHDU: Convergence failed at  78  side 2    Res =  0.4364E+02
 MRCHDU: Convergence failed at  79  side 2    Res =  0.4549E+02
 MRCHDU: Convergence failed at  80  side 2    Res =  0.4814E+02
 MRCHDU: Convergence failed at  81  side 2    Res =  0.5200E+02
 MRCHDU: Convergence failed at  82  side 2    Res =  0.5868E+02
 MRCHDU: Convergence failed at  83  side 2    Res =  0.7047E+02
 MRCHDU: Convergence failed at  84  side 2    Res =  0.1124E+03
 Side 1 forced transition at x/c =  1.0000   78
 Side 2  free  transition at x/c =  0.0361   15

   2   rms: 0.7566E+00   max: 0.1900E+01   D at   86  2   RLX: 0.526
       a = -2.500      CL = -0.5780
      Cm =  0.1174     CD =  0.00730   =>   CDf =  0.00239    CDp =  0.00491

 Side 1 forced transition at x/c =  1.0000   78
 Side 2  free  transition at x/c =  0.0567   17

   3   rms: 0.4547E+00   max: 0.3845E+01   T at   17  2   RLX: 0.390
       a = -2.500      CL = -0.3389
      Cm =  0.0274     CD =  0.02103   =>   CDf =  0.00646    CDp =  0.01456

 MRCHDU: Convergence failed at  17  side 2    Res =  0.4270E+02
 Side 1 forced transition at x/c =  1.0000   78
 Side 2  free  transition at x/c =  0.0412   15

   4   rms: 0.3149E+02   max: -.2633E+03   T at   16  2   RLX: 0.002
       a = -2.500      CL = -0.3549
      Cm =  0.0281     CD =  0.02101   =>   CDf =  0.00660    CDp =  0.01441

 Side 1 forced transition at x/c =  1.0000   78
 Side 2  free  transition at x/c =  0.0388   15

   5   rms: 0.3389E+00   max: -.1070E+01   D at   59  2   RLX: 0.467
       a = -2.500      CL = -0.3090
      Cm =  0.0115     CD =  0.01783   =>   CDf =  0.00597    CDp =  0.01186

 Side 1 forced transition at x/c =  1.0000   78
 Side 2  free  transition at x/c =  0.0313   15

   6   rms: 0.6553E+00   max: 0.4713E+01   T at   15  2   RLX: 0.188
       a = -2.500      CL = -0.3143
      Cm =  0.0124     CD =  0.01864   =>   CDf =  0.00613    CDp =  0.01251

 MRCHDU: Convergence failed at  15  side 2    Res =  0.6693E+01
 MRCHDU: Convergence failed at  16  side 2    Res =  0.7306E+01
 MRCHDU: Convergence failed at  17  side 2    Res =  0.1086E+02
 MRCHDU: Convergence failed at  18  side 2    Res =  0.1174E+02
 MRCHDU: Convergence failed at  19  side 2    Res =  0.3583E+02
 MRCHDU: Convergence failed at  20  side 2    Res =  0.4091E+02
 MRCHDU: Convergence failed at  21  side 2    Res =  0.5503E+02
 MRCHDU: Convergence failed at  22  side 2    Res =  0.6954E+02
 MRCHDU: Convergence failed at  23  side 2    Res =  0.8696E+02
 MRCHDU: Convergence failed at  24  side 2    Res =  0.1049E+03
 MRCHDU: Convergence failed at  25  side 2    Res =  0.1182E+03
 MRCHDU: Convergence failed at  26  side 2    Res =  0.1320E+03
 MRCHDU: Convergence failed at  27  side 2    Res =  0.1246E+03
 MRCHDU: Convergence failed at  28  side 2    Res =  0.4871E+03
 MRCHDU: Convergence failed at  29  side 2    Res =  0.9567E+02
 MRCHDU: Convergence failed at  30  side 2    Res =  0.9407E+02
 MRCHDU: Convergence failed at  31  side 2    Res =  0.1002E+03
 MRCHDU: Convergence failed at  32  side 2    Res =  0.5309E+02
 MRCHDU: Convergence failed at  33  side 2    Res =  0.1934E+03
 MRCHDU: Convergence failed at  34  side 2    Res =  0.2260E+03
 MRCHDU: Convergence failed at  35  side 2    Res =  0.4784E+03
 MRCHDU: Convergence failed at  36  side 2    Res =  0.1344E+04
 MRCHDU: Convergence failed at  37  side 2    Res =  0.2154E+04
 MRCHDU: Convergence failed at  38  side 2    Res =  0.9289E+03
 MRCHDU: Convergence failed at  39  side 2    Res =  0.3380E+03
 MRCHDU: Convergence failed at  40  side 2    Res =  0.1250E+03
 MRCHDU: Convergence failed at  41  side 2    Res =  0.4674E+02
 MRCHDU: Convergence failed at  42  side 2    Res =  0.4124E+02
 MRCHDU: Convergence failed at  43  side 2    Res =  0.3024E+02
 MRCHDU: Convergence failed at  44  side 2    Res =  0.1297E+03
 MRCHDU: Convergence failed at  45  side 2    Res =  0.1050E+03
 MRCHDU: Convergence failed at  46  side 2    Res =  0.3317E+02
 MRCHDU: Convergence failed at  47  side 2    Res =  0.3249E+02
 MRCHDU: Convergence failed at  48  side 2    Res =  0.5109E+02
 MRCHDU: Convergence failed at  49  side 2    Res =  0.5113E+03
 MRCHDU: Convergence failed at  50  side 2    Res =  0.3573E+02
 MRCHDU: Convergence failed at  51  side 2    Res =  0.1193E+03
 MRCHDU: Convergence failed at  52  side 2    Res =  0.3361E+02
 MRCHDU: Convergence failed at  53  side 2    Res =  0.3178E+02
 MRCHDU: Convergence failed at  54  side 2    Res =  0.1205E+03
 MRCHDU: Convergence failed at  55  side 2    Res =  0.8514E+02
 MRCHDU: Convergence failed at  56  side 2    Res =  0.5822E+02
 MRCHDU: Convergence failed at  57  side 2    Res =  0.4450E+02
 MRCHDU: Convergence failed at  58  side 2    Res =  0.1554E+03
 MRCHDU: Convergence failed at  59  side 2    Res =  0.1108E+03
 MRCHDU: Convergence failed at  60  side 2    Res =  0.1017E+03
 MRCHDU: Convergence failed at  61  side 2    Res =  0.2141E+03
 MRCHDU: Convergence failed at  62  side 2    Res =  0.1256E+03
 MRCHDU: Convergence failed at  63  side 2    Res =  0.5503E+02
 MRCHDU: Convergence failed at  64  side 2    Res =  0.9264E+02
 MRCHDU: Convergence failed at  65  side 2    Res =  0.3653E+02
 MRCHDU: Convergence failed at  66  side 2    Res =  0.3333E+02
 MRCHDU: Convergence failed at  67  side 2    Res =  0.1252E+03
 MRCHDU: Convergence failed at  68  side 2    Res =  0.1498E+03
 MRCHDU: Convergence failed at  69  side 2    Res =  0.8604E+02
 MRCHDU: Convergence failed at  70  side 2    Res =  0.8840E+02
 MRCHDU: Convergence failed at  71  side 2    Res =  0.8342E+02
 MRCHDU: Convergence failed at  72  side 2    Res =  0.9186E+02
 MRCHDU: Convergence failed at  73  side 2    Res =  0.1151E+03
 MRCHDU: Convergence failed at  74  side 2    Res =  0.4143E+03
 MRCHDU: Convergence failed at  75  side 2    Res =  0.1650E+03
 MRCHDU: Convergence failed at  76  side 2    Res =  0.7705E+02
 MRCHDU: Convergence failed at  77  side 2    Res =  0.5540E+02
 MRCHDU: Convergence failed at  78  side 2    Res =  0.2883E+02
 MRCHDU: Convergence failed at  79  side 2    Res =  0.3216E+02
 MRCHDU: Convergence failed at  80  side 2    Res =  0.1413E+03
 MRCHDU: Convergence failed at  81  side 2    Res =  0.2071E+03
 MRCHDU: Convergence failed at  82  side 2    Res =  0.5008E+02
 MRCHDU: Convergence failed at  83  side 2    Res =  0.5026E+02
 MRCHDU: Convergence failed at  84  side 2    Res =  0.3944E+02
 Side 1 forced transition at x/c =  1.0000   78
 Side 2  free  transition at x/c =  0.0292   14

   7   rms: 0.8659E+00   max: 0.4012E+01   D at   86  2   RLX: 0.135
       a = -2.500      CL = -1.2500
      Cm =  0.3075     CD =  0.00546   =>   CDf =  0.00230    CDp =  0.00316

 MRCHDU: Convergence failed at  24  side 2    Res =  0.5037E+00
 MRCHDU: Convergence failed at  25  side 2    Res =  0.4958E+00
 MRCHDU: Convergence failed at  26  side 2    Res =  0.4871E+00
 MRCHDU: Convergence failed at  27  side 2    Res =  0.4773E+00
 MRCHDU: Convergence failed at  28  side 2    Res =  0.4665E+00
 MRCHDU: Convergence failed at  29  side 2    Res =  0.4560E+00
 MRCHDU: Convergence failed at  30  side 2    Res =  0.4450E+00
 MRCHDU: Convergence failed at  31  side 2    Res =  0.4337E+00
 MRCHDU: Convergence failed at  32  side 2    Res =  0.4212E+00
 MRCHDU: Convergence failed at  33  side 2    Res =  0.4084E+00
 MRCHDU: Convergence failed at  34  side 2    Res =  0.3945E+00
 MRCHDU: Convergence failed at  35  side 2    Res =  0.3808E+00
 MRCHDU: Convergence failed at  36  side 2    Res =  0.3634E+00
 MRCHDU: Convergence failed at  37  side 2    Res =  0.3455E+00
 MRCHDU: Convergence failed at  38  side 2    Res =  0.3268E+00
 MRCHDU: Convergence failed at  39  side 2    Res =  0.3053E+00
 MRCHDU: Convergence failed at  40  side 2    Res =  0.2820E+00
 MRCHDU: Convergence failed at  41  side 2    Res =  0.2567E+00
 MRCHDU: Convergence failed at  42  side 2    Res =  0.2292E+00
 MRCHDU: Convergence failed at  43  side 2    Res =  0.2014E+00
 MRCHDU: Convergence failed at  44  side 2    Res =  0.1687E+00
 MRCHDU: Convergence failed at  45  side 2    Res =  0.1289E+00
 MRCHDU: Convergence failed at  46  side 2    Res =  0.8541E-01
 Side 1 forced transition at x/c =  1.0000   78
 Side 2  free  transition at x/c =  0.0353   15

   8   rms: 0.4762E+00   max: -.1547E+01   C at   78  1   RLX: 0.323
       a = -2.500      CL = -0.5768
      Cm =  0.1336     CD =  0.03054   =>   CDf =  0.00321    CDp =  0.02733

 MRCHDU: Convergence failed at  46  side 2    Res =  0.5174E+00
 MRCHDU: Convergence failed at  47  side 2    Res =  0.9301E+00
 MRCHDU: Convergence failed at  48  side 2    Res =  0.5674E+00
 MRCHDU: Convergence failed at  49  side 2    Res =  0.5434E+00
 MRCHDU: Convergence failed at  50  side 2    Res =  0.5176E+00
 MRCHDU: Convergence failed at  51  side 2    Res =  0.4911E+00
 MRCHDU: Convergence failed at  52  side 2    Res =  0.4640E+00
 MRCHDU: Convergence failed at  53  side 2    Res =  0.4367E+00
 MRCHDU: Convergence failed at  54  side 2    Res =  0.4089E+00
 MRCHDU: Convergence failed at  55  side 2    Res =  0.3809E+00
 MRCHDU: Convergence failed at  56  side 2    Res =  0.3526E+00
 MRCHDU: Convergence failed at  57  side 2    Res =  0.3239E+00
 MRCHDU: Convergence failed at  58  side 2    Res =  0.2949E+00
 MRCHDU: Convergence failed at  59  side 2    Res =  0.2653E+00
 MRCHDU: Convergence failed at  60  side 2    Res =  0.2351E+00
 MRCHDU: Convergence failed at  61  side 2    Res =  0.2036E+00
 MRCHDU: Convergence failed at  62  side 2    Res =  0.1708E+00
 MRCHDU: Convergence failed at  63  side 2    Res =  0.1359E+00
 MRCHDU: Convergence failed at  64  side 2    Res =  0.9756E-01
 Side 1 forced transition at x/c =  1.0000   78
 Side 2  free  transition at x/c =  0.0352   15

   9   rms: 0.4660E+00   max: -.2380E+01   D at   33  2   RLX: 0.210
       a = -2.500      CL = -0.2989
      Cm =  0.0451     CD =  0.02527   =>   CDf =  0.00367    CDp =  0.02161

 MRCHDU: Convergence failed at  64  side 2    Res =  0.3696E+00
 MRCHDU: Convergence failed at  65  side 2    Res =  0.6064E+00
 MRCHDU: Convergence failed at  66  side 2    Res =  0.1796E+00
 MRCHDU: Convergence failed at  67  side 2    Res =  0.1682E+00
 MRCHDU: Convergence failed at  68  side 2    Res =  0.1523E+00
 MRCHDU: Convergence failed at  69  side 2    Res =  0.1356E+00
 MRCHDU: Convergence failed at  70  side 2    Res =  0.1184E+00
 MRCHDU: Convergence failed at  71  side 2    Res =  0.9996E-01
 MRCHDU: Convergence failed at  72  side 2    Res =  0.2058E+01
 MRCHDU: Convergence failed at  73  side 2    Res =  0.8655E+00
 Side 1 forced transition at x/c =  1.0000   78
 Side 2  free  transition at x/c =  0.0391   15

  10   rms: 0.9675E+00   max: -.5782E+01   D at   33  2   RLX: 0.086
       a = -2.500      CL = -0.1899
      Cm = -0.0075     CD =  0.02916   =>   CDf =  0.00394    CDp =  0.02522

 MRCHDU: Convergence failed at  33  side 2    Res =  0.7284E-02
 MRCHDU: Convergence failed at  71  side 2    Res =  0.2131E+00
 MRCHDU: Convergence failed at  72  side 2    Res =  0.2120E+00
 MRCHDU: Convergence failed at  73  side 2    Res =  0.2148E+00
 Side 1 forced transition at x/c =  1.0000   78
 Side 2  free  transition at x/c =  0.0410   15

  11   rms: 0.1543E+01   max: -.1089E+02   D at   33  2   RLX: 0.046
       a = -2.500      CL = -0.1545
      Cm = -0.0268     CD =  0.03575   =>   CDf =  0.00387    CDp =  0.03188

 MRCHDU: Convergence failed at  33  side 2    Res =  0.1962E+00
 MRCHDU: Convergence failed at  34  side 2    Res =  0.3654E+00
 MRCHDU: Convergence failed at  35  side 2    Res =  0.3004E+00
 MRCHDU: Convergence failed at  36  side 2    Res =  0.2706E+00
 MRCHDU: Convergence failed at  37  side 2    Res =  0.2620E+00
 MRCHDU: Convergence failed at  38  side 2    Res =  0.2934E-01
 MRCHDU: Convergence failed at  39  side 2    Res =  0.1786E+01
 MRCHDU: Convergence failed at  40  side 2    Res =  0.1239E+01
 MRCHDU: Convergence failed at  41  side 2    Res =  0.5241E+00
 Side 1 forced transition at x/c =  1.0000   78
 Side 2  free  transition at x/c =  0.0421   16

  12   rms: 0.1170E+01   max: -.7732E+01   D at   38  2   RLX: 0.065
       a = -2.500      CL = -0.0427
      Cm = -0.0577     CD =  0.03463   =>   CDf =  0.00371    CDp =  0.03092

 MRCHDU: Convergence failed at  38  side 2    Res =  0.2461E+00
 MRCHDU: Convergence failed at  39  side 2    Res =  0.1960E+00
 MRCHDU: Convergence failed at  40  side 2    Res =  0.1745E+00
 MRCHDU: Convergence failed at  41  side 2    Res =  0.1624E+00
 Side 1 forced transition at x/c =  1.0000   78
 Side 2  free  transition at x/c =  0.0429   16

  13   rms: 0.5156E+00   max: -.2560E+01   T at   16  2   RLX: 0.195
       a = -2.500      CL =  0.0328
      Cm = -0.0753     CD =  0.03524   =>   CDf =  0.00336    CDp =  0.03188

 Side 1 forced transition at x/c =  1.0000   78
 Side 2  free  transition at x/c =  0.0538   16

  14   rms: 0.6830E+00   max: -.2710E+01   T at   17  2   RLX: 0.184
       a = -2.500      CL =  0.0018
      Cm = -0.0610     CD =  0.03283   =>   CDf =  0.00342    CDp =  0.02941

 Side 1 forced transition at x/c =  1.0000   78
 Side 2  free  transition at x/c =  0.0512   16

  15   rms: 0.7766E+00   max: 0.8118E+01   T at   16  2   RLX: 0.094
       a = -2.500      CL = -0.0365
      Cm = -0.0541     CD =  0.03526   =>   CDf =  0.00335    CDp =  0.03191

 Side 1 forced transition at x/c =  1.0000   78
 Side 2  free  transition at x/c =  0.0421   16

  16   rms: 0.4123E+00   max: -.2430E+01   T at   16  2   RLX: 0.206
       a = -2.500      CL = -0.0532
      Cm = -0.0411     CD =  0.03568   =>   CDf =  0.00323    CDp =  0.03245

 Side 1 forced transition at x/c =  1.0000   78
 Side 2  free  transition at x/c =  0.0459   16

  17   rms: 0.4292E+00   max: -.3425E+01   T at   16  2   RLX: 0.146
       a = -2.500      CL = -0.0593
      Cm = -0.0373     CD =  0.03724   =>   CDf =  0.00328    CDp =  0.03396

 Side 1 forced transition at x/c =  1.0000   78
 Side 2  free  transition at x/c =  0.0528   16

  18   rms: 0.5666E+00   max: -.2885E+01   T at   17  2   RLX: 0.173
       a = -2.500      CL = -0.0779
      Cm = -0.0322     CD =  0.03599   =>   CDf =  0.00336    CDp =  0.03263

 Side 1 forced transition at x/c =  1.0000   78
 Side 2  free  transition at x/c =  0.0503   16

  19   rms: 0.5082E+00   max: -.6872E+01   T at   16  2   RLX: 0.073
       a = -2.500      CL = -0.0848
      Cm = -0.0272     CD =  0.04012   =>   CDf =  0.00332    CDp =  0.03680

 Side 1 forced transition at x/c =  1.0000   78
 Side 2  free  transition at x/c =  0.0553   17

  20   rms: 0.4477E+00   max: -.1855E+01   D at   34  2   RLX: 0.270
       a = -2.500      CL = -0.0938
      Cm = -0.0226     CD =  0.03237   =>   CDf =  0.00364    CDp =  0.02873

 Side 1 forced transition at x/c =  1.0000   78
 Side 2  free  transition at x/c =  0.0636   17

  21   rms: 0.2936E+01   max: 0.3589E+02   T at   17  2   RLX: 0.025
       a = -2.500      CL = -0.0884
      Cm = -0.0292     CD =  0.03239   =>   CDf =  0.00418    CDp =  0.02821

 Side 1 forced transition at x/c =  1.0000   78
 Side 2  free  transition at x/c =  0.0549   17

  22   rms: 0.1453E+01   max: 0.1060E+02   T at   17  2   RLX: 0.054
       a = -2.500      CL = -0.1181
      Cm = -0.0239     CD =  0.03186   =>   CDf =  0.00401    CDp =  0.02785

 Side 1 forced transition at x/c =  1.0000   78
 Side 2  free  transition at x/c =  0.0422   16

  23   rms: 0.5169E+00   max: -.2071E+01   D at   23  2   RLX: 0.241
       a = -2.500      CL = -0.1552
      Cm = -0.0104     CD =  0.03006   =>   CDf =  0.00381    CDp =  0.02625

 Side 1 forced transition at x/c =  1.0000   78
 Side 2  free  transition at x/c =  0.0417   15

  24   rms: 0.1658E+01   max: 0.9037E+01   D at   23  2   RLX: 0.107
       a = -2.500      CL = -0.1529
      Cm = -0.0219     CD =  0.03038   =>   CDf =  0.00421    CDp =  0.02618

 Side 1 forced transition at x/c =  1.0000   78
 Side 2  free  transition at x/c =  0.0365   15

  25   rms: 0.5403E+00   max: 0.2578E+01   T at   15  2   RLX: 0.348
       a = -2.500      CL = -0.2068
      Cm = -0.0167     CD =  0.02525   =>   CDf =  0.00365    CDp =  0.02160

 MRCHDU: Convergence failed at  15  side 2    Res =  0.4043E+01
 MRCHDU: Convergence failed at  21  side 2    Res =  0.2143E+01
 MRCHDU: Convergence failed at  22  side 2    Res =  0.3439E+02
 MRCHDU: Convergence failed at  23  side 2    Res =  0.2262E+01
 MRCHDU: Convergence failed at  24  side 2    Res =  0.1934E+01
 MRCHDU: Convergence failed at  25  side 2    Res =  0.3509E+01
 MRCHDU: Convergence failed at  26  side 2    Res =  0.8624E+01
 MRCHDU: Convergence failed at  27  side 2    Res =  0.7538E+02
 MRCHDU: Convergence failed at  28  side 2    Res =  0.1451E+02
 MRCHDU: Convergence failed at  29  side 2    Res =  0.4790E+02
 MRCHDU: Convergence failed at  30  side 2    Res =  0.2425E+02
 MRCHDU: Convergence failed at  31  side 2    Res =  0.1127E+02
 MRCHDU: Convergence failed at  32  side 2    Res =  0.1169E+02
 MRCHDU: Convergence failed at  33  side 2    Res =  0.1357E+02
 MRCHDU: Convergence failed at  34  side 2    Res =  0.1426E+02
 MRCHDU: Convergence failed at  35  side 2    Res =  0.1119E+02
 MRCHDU: Convergence failed at  36  side 2    Res =  0.1081E+02
 MRCHDU: Convergence failed at  37  side 2    Res =  0.7781E+01
 MRCHDU: Convergence failed at  38  side 2    Res =  0.7217E+01
 MRCHDU: Convergence failed at  39  side 2    Res =  0.5884E+01
 MRCHDU: Convergence failed at  40  side 2    Res =  0.7996E+01
 MRCHDU: Convergence failed at  41  side 2    Res =  0.1709E+02
 MRCHDU: Convergence failed at  43  side 2    Res =  0.2197E+02
 MRCHDU: Convergence failed at  44  side 2    Res =  0.6941E+00
 MRCHDU: Convergence failed at  45  side 2    Res =  0.9710E+00
 MRCHDU: Convergence failed at  46  side 2    Res =  0.1269E+01
 MRCHDU: Convergence failed at  47  side 2    Res =  0.1654E+01
 MRCHDU: Convergence failed at  48  side 2    Res =  0.2212E+01
 MRCHDU: Convergence failed at  49  side 2    Res =  0.3193E+01
 MRCHDU: Convergence failed at  50  side 2    Res =  0.3187E+02
 MRCHDU: Convergence failed at  51  side 2    Res =  0.2208E+02
 MRCHDU: Convergence failed at  52  side 2    Res =  0.8105E+01
 MRCHDU: Convergence failed at  53  side 2    Res =  0.5072E+01
 MRCHDU: Convergence failed at  54  side 2    Res =  0.3305E+01
 MRCHDU: Convergence failed at  55  side 2    Res =  0.2013E+01
 MRCHDU: Convergence failed at  56  side 2    Res =  0.1547E+01
 MRCHDU: Convergence failed at  57  side 2    Res =  0.1523E+01
 MRCHDU: Convergence failed at  58  side 2    Res =  0.1812E+01
 MRCHDU: Convergence failed at  59  side 2    Res =  0.2110E+01
 MRCHDU: Convergence failed at  60  side 2    Res =  0.2493E+01
 MRCHDU: Convergence failed at  61  side 2    Res =  0.3192E+01
 MRCHDU: Convergence failed at  62  side 2    Res =  0.5255E+01
 MRCHDU: Convergence failed at  63  side 2    Res =  0.6124E+01
 MRCHDU: Convergence failed at  64  side 2    Res =  0.2460E+01
 MRCHDU: Convergence failed at  65  side 2    Res =  0.2431E+01
 MRCHDU: Convergence failed at  66  side 2    Res =  0.2431E+01
 MRCHDU: Convergence failed at  67  side 2    Res =  0.2474E+01
 MRCHDU: Convergence failed at  68  side 2    Res =  0.2595E+01
 MRCHDU: Convergence failed at  69  side 2    Res =  0.2989E+01
 MRCHDU: Convergence failed at  70  side 2    Res =  0.3439E+01
 MRCHDU: Convergence failed at  71  side 2    Res =  0.3965E+01
 MRCHDU: Convergence failed at  72  side 2    Res =  0.4772E+01
 MRCHDU: Convergence failed at  73  side 2    Res =  0.5654E+01
 MRCHDU: Convergence failed at  74  side 2    Res =  0.4433E+01
 MRCHDU: Convergence failed at  75  side 2    Res =  0.7309E+02
 MRCHDU: Convergence failed at  76  side 2    Res =  0.1259E+02
 MRCHDU: Convergence failed at  77  side 2    Res =  0.9441E+01
 MRCHDU: Convergence failed at  78  side 2    Res =  0.8352E+01
 MRCHDU: Convergence failed at  79  side 2    Res =  0.7135E+01
 MRCHDU: Convergence failed at  80  side 2    Res =  0.7147E+01
 MRCHDU: Convergence failed at  81  side 2    Res =  0.8646E+01
 MRCHDU: Convergence failed at  82  side 2    Res =  0.1058E+02
 MRCHDU: Convergence failed at  83  side 2    Res =  0.1663E+02
 MRCHDU: Convergence failed at  84  side 2    Res =  0.1558E+02
 Side 1 forced transition at x/c =  1.0000   78
 Side 2  free  transition at x/c =  0.0287   14

  26   rms: 0.4890E+00   max: -.5822E+00   C at   85  2   RLX: 0.404
       a = -2.500      CL = -0.4737
      Cm =  0.0757     CD =  0.01669   =>   CDf =  0.00331    CDp =  0.01338

 Side 1 forced transition at x/c =  1.0000   78
 Side 2  free  transition at x/c =  0.0290   14

  27   rms: 0.2858E+00   max: -.1514E+01   D at   20  2   RLX: 0.330
       a = -2.500      CL = -0.3652
      Cm =  0.0468     CD =  0.01472   =>   CDf =  0.00843    CDp =  0.00629

 Side 1 forced transition at x/c =  1.0000   78
 Side 2  free  transition at x/c =  0.0324   15

  28   rms: 0.1628E+00   max: -.9258E+00   D at   18  2   RLX: 0.540
       a = -2.500      CL = -0.2660
      Cm =  0.0143     CD =  0.01250   =>   CDf =  0.00839    CDp =  0.00411

[...]
 MRCHDU: Convergence failed at  76  side 1    Res =  0.2661E-01
 MRCHDU: Convergence failed at  77  side 1    Res =  0.8285E-02
 MRCHDU: Convergence failed at  78  side 1    Res =  0.4285E-02
 MRCHDU: Convergence failed at  79  side 1    Res =  0.2116E-02
 MRCHDU: Convergence failed at  80  side 1    Res =  0.8983E-03
 MRCHDU: Convergence failed at  81  side 1    Res =  0.3648E-03
 MRCHDU: Convergence failed at  82  side 1    Res =  0.3800E-03
 MRCHDU: Convergence failed at  83  side 1    Res =  0.1638E-02
 MRCHDU: Convergence failed at  84  side 1    Res =  0.2529E-02
 MRCHDU: Convergence failed at  86  side 1    Res =  0.1775E+00
 Side 1  free  transition at x/c =  0.0665   19
 Side 2 forced transition at x/c =  1.0000   76

 132   rms: 0.2377E+06   max: -.6086E+07   T at   98  2   RLX: 0.000
       a = 12.750      CL =  0.5348
      Cm = -0.0672     CD =+Infinity   =>   CDf =  0.00378    CDp =+Infinity

 MRCHDU: Convergence failed at  73  side 1    Res =  0.8853E-01
 MRCHDU: Convergence failed at  74  side 1    Res =  0.1566E+00
 MRCHDU: Convergence failed at  75  side 1    Res =  0.1528E+00
 MRCHDU: Convergence failed at  76  side 1    Res =  0.2661E-01
 MRCHDU: Convergence failed at  77  side 1    Res =  0.8283E-02
 MRCHDU: Convergence failed at  78  side 1    Res =  0.4283E-02
 MRCHDU: Convergence failed at  79  side 1    Res =  0.2115E-02
 MRCHDU: Convergence failed at  80  side 1    Res =  0.8975E-03
 MRCHDU: Convergence failed at  81  side 1    Res =  0.3646E-03
 MRCHDU: Convergence failed at  82  side 1    Res =  0.3797E-03
 MRCHDU: Convergence failed at  83  side 1    Res =  0.1636E-02
 MRCHDU: Convergence failed at  84  side 1    Res =  0.2526E-02
 MRCHDU: Convergence failed at  86  side 1    Res =  0.3109E+00
 Side 1  free  transition at x/c =  0.0666   19
 Side 2 forced transition at x/c =  1.0000   76

 133   rms: 0.3654E+05   max: -.9736E+06   T at   98  2   RLX: 0.000
       a = 12.750      CL =  0.5348
      Cm = -0.0673     CD =+Infinity   =>   CDf =  0.00378    CDp =+Infinity

 MRCHDU: Convergence failed at  73  side 1    Res =  0.8852E-01
 MRCHDU: Convergence failed at  74  side 1    Res =  0.1566E+00
 MRCHDU: Convergence failed at  75  side 1    Res =  0.1528E+00
 MRCHDU: Convergence failed at  76  side 1    Res =  0.2660E-01
 MRCHDU: Convergence failed at  77  side 1    Res =  0.8282E-02
 MRCHDU: Convergence failed at  78  side 1    Res =  0.4282E-02
 MRCHDU: Convergence failed at  79  side 1    Res =  0.2114E-02
 MRCHDU: Convergence failed at  80  side 1    Res =  0.8973E-03
 MRCHDU: Convergence failed at  81  side 1    Res =  0.3645E-03
 MRCHDU: Convergence failed at  82  side 1    Res =  0.3796E-03
 MRCHDU: Convergence failed at  83  side 1    Res =  0.1636E-02
 MRCHDU: Convergence failed at  84  side 1    Res =  0.2525E-02
 MRCHDU: Convergence failed at  86  side 1    Res =  0.2389E+00
 Side 1  free  transition at x/c =  0.0666   19
 Side 2 forced transition at x/c =  1.0000   76

 134   rms: 0.2251E+07   max: 0.6071E+08   T at   98  2   RLX: 0.000
       a = 12.750      CL =  0.5347
      Cm = -0.0672     CD =+Infinity   =>   CDf =  0.00378    CDp =+Infinity

 MRCHDU: Convergence failed at  73  side 1    Res =  0.8853E-01
 MRCHDU: Convergence failed at  74  side 1    Res =  0.1566E+00
 MRCHDU: Convergence failed at  75  side 1    Res =  0.1528E+00
 MRCHDU: Convergence failed at  76  side 1    Res =  0.2661E-01
 MRCHDU: Convergence failed at  77  side 1    Res =  0.8284E-02
 MRCHDU: Convergence failed at  78  side 1    Res =  0.4283E-02
 MRCHDU: Convergence failed at  79  side 1    Res =  0.2115E-02
 MRCHDU: Convergence failed at  80  side 1    Res =  0.8979E-03
 MRCHDU: Convergence failed at  81  side 1    Res =  0.3647E-03
 MRCHDU: Convergence failed at  82  side 1    Res =  0.3798E-03
 MRCHDU: Convergence failed at  83  side 1    Res =  0.1637E-02
 MRCHDU: Convergence failed at  84  side 1    Res =  0.2527E-02
 MRCHDU: Convergence failed at  86  side 1    Res =  0.1778E+00
 Side 1  free  transition at x/c =  0.0665   19
 Side 2 forced transition at x/c =  1.0000   76

 135   rms: 0.2898E+05   max: 0.7665E+06   T at   98  2   RLX: 0.000
       a = 12.750      CL =  0.5347
      Cm = -0.0672     CD =+Infinity   =>   CDf =  0.00378    CDp =+Infinity

 MRCHDU: Convergence failed at  73  side 1    Res =  0.8855E-01
 MRCHDU: Convergence failed at  74  side 1    Res =  0.1566E+00
 MRCHDU: Convergence failed at  75  side 1    Res =  0.1528E+00
 MRCHDU: Convergence failed at  76  side 1    Res =  0.2660E-01
 MRCHDU: Convergence failed at  77  side 1    Res =  0.8281E-02
 MRCHDU: Convergence failed at  78  side 1    Res =  0.4280E-02
 MRCHDU: Convergence failed at  79  side 1    Res =  0.2113E-02
 MRCHDU: Convergence failed at  80  side 1    Res =  0.8971E-03
 MRCHDU: Convergence failed at  81  side 1    Res =  0.3640E-03
 MRCHDU: Convergence failed at  82  side 1    Res =  0.3789E-03
 MRCHDU: Convergence failed at  83  side 1    Res =  0.1641E-02
 MRCHDU: Convergence failed at  84  side 1    Res =  0.2535E-02
 MRCHDU: Convergence failed at  86  side 1    Res =  0.1780E+00
 Side 1  free  transition at x/c =  0.0665   19
 Side 2 forced transition at x/c =  1.0000   76

 136   rms: 0.4962E+04   max: -.1179E+06   T at   98  2   RLX: 0.000
       a = 12.750      CL =  0.5347
      Cm = -0.0672     CD =+Infinity   =>   CDf =  0.00378    CDp =+Infinity

 MRCHDU: Convergence failed at  73  side 1    Res =  0.8855E-01
 MRCHDU: Convergence failed at  74  side 1    Res =  0.1566E+00
 MRCHDU: Convergence failed at  75  side 1    Res =  0.1527E+00
 MRCHDU: Convergence failed at  76  side 1    Res =  0.2658E-01
 MRCHDU: Convergence failed at  77  side 1    Res =  0.8269E-02
 MRCHDU: Convergence failed at  78  side 1    Res =  0.4271E-02
 MRCHDU: Convergence failed at  79  side 1    Res =  0.2102E-02
 MRCHDU: Convergence failed at  80  side 1    Res =  0.8918E-03
 MRCHDU: Convergence failed at  81  side 1    Res =  0.3614E-03
 MRCHDU: Convergence failed at  82  side 1    Res =  0.3760E-03
 MRCHDU: Convergence failed at  83  side 1    Res =  0.1642E-02
 MRCHDU: Convergence failed at  84  side 1    Res =  0.2536E-02
 MRCHDU: Convergence failed at  86  side 1    Res =  0.4591E+00
 Side 1  free  transition at x/c =  0.0665   19
 Side 2 forced transition at x/c =  1.0000   76

 137   rms: 0.9436E+05   max: -.2459E+07   T at   98  2   RLX: 0.000
       a = 12.750      CL =  0.5347
      Cm = -0.0672     CD =+Infinity   =>   CDf =  0.00378    CDp =+Infinity

 MRCHDU: Convergence failed at  73  side 1    Res =  0.8854E-01
 MRCHDU: Convergence failed at  74  side 1    Res =  0.1566E+00
 MRCHDU: Convergence failed at  75  side 1    Res =  0.1528E+00
 MRCHDU: Convergence failed at  76  side 1    Res =  0.2658E-01
 MRCHDU: Convergence failed at  77  side 1    Res =  0.8267E-02
 MRCHDU: Convergence failed at  78  side 1    Res =  0.4269E-02
 MRCHDU: Convergence failed at  79  side 1    Res =  0.2101E-02
 MRCHDU: Convergence failed at  80  side 1    Res =  0.8910E-03
 MRCHDU: Convergence failed at  81  side 1    Res =  0.3612E-03
 MRCHDU: Convergence failed at  82  side 1    Res =  0.3757E-03
 MRCHDU: Convergence failed at  83  side 1    Res =  0.1641E-02
 MRCHDU: Convergence failed at  84  side 1    Res =  0.2534E-02
 MRCHDU: Convergence failed at  86  side 1    Res =  0.2896E+00
 Side 1  free  transition at x/c =  0.0665   19
 Side 2 forced transition at x/c =  1.0000   76

 138   rms: 0.6976E+05   max: 0.1869E+07   T at   98  2   RLX: 0.000
       a = 12.750      CL =  0.5347
      Cm = -0.0672     CD =+Infinity   =>   CDf =  0.00378    CDp =+Infinity

 MRCHDU: Convergence failed at  73  side 1    Res =  0.8855E-01
 MRCHDU: Convergence failed at  74  side 1    Res =  0.1566E+00
 MRCHDU: Convergence failed at  75  side 1    Res =  0.1528E+00
 MRCHDU: Convergence failed at  76  side 1    Res =  0.2659E-01
 MRCHDU: Convergence failed at  77  side 1    Res =  0.8271E-02
 MRCHDU: Convergence failed at  78  side 1    Res =  0.4272E-02
 MRCHDU: Convergence failed at  79  side 1    Res =  0.2104E-02
 MRCHDU: Convergence failed at  80  side 1    Res =  0.8922E-03
 MRCHDU: Convergence failed at  81  side 1    Res =  0.3619E-03
 MRCHDU: Convergence failed at  82  side 1    Res =  0.3766E-03
 MRCHDU: Convergence failed at  83  side 1    Res =  0.1642E-02
 MRCHDU: Convergence failed at  84  side 1    Res =  0.2536E-02
 MRCHDU: Convergence failed at  86  side 1    Res =  0.1794E+00
 Side 1  free  transition at x/c =  0.0665   19
 Side 2 forced transition at x/c =  1.0000   76

 139   rms: 0.5260E+05   max: 0.1344E+07   T at   98  2   RLX: 0.000
       a = 12.750      CL =  0.5346
      Cm = -0.0672     CD =+Infinity   =>   CDf =  0.00378    CDp =+Infinity

 MRCHDU: Convergence failed at  73  side 1    Res =  0.8858E-01
 MRCHDU: Convergence failed at  74  side 1    Res =  0.1566E+00
 MRCHDU: Convergence failed at  75  side 1    Res =  0.1529E+00
 MRCHDU: Convergence failed at  76  side 1    Res =  0.2661E-01
 MRCHDU: Convergence failed at  77  side 1    Res =  0.8282E-02
 MRCHDU: Convergence failed at  78  side 1    Res =  0.4280E-02
 MRCHDU: Convergence failed at  79  side 1    Res =  0.2110E-02
 MRCHDU: Convergence failed at  80  side 1    Res =  0.8956E-03
 MRCHDU: Convergence failed at  81  side 1    Res =  0.3631E-03
 MRCHDU: Convergence failed at  82  side 1    Res =  0.3779E-03
 MRCHDU: Convergence failed at  83  side 1    Res =  0.1645E-02
 MRCHDU: Convergence failed at  84  side 1    Res =  0.2543E-02
 MRCHDU: Convergence failed at  86  side 1    Res =  0.1799E+00
 Side 1  free  transition at x/c =  0.0665   19
 Side 2 forced transition at x/c =  1.0000   76

 140   rms: 0.3122E+05   max: -.6206E+06   T at   98  2   RLX: 0.000
       a = 12.750      CL =  0.5347
      Cm = -0.0672     CD =+Infinity   =>   CDf =  0.00378    CDp =+Infinity

 MRCHDU: Convergence failed at  73  side 1    Res =  0.8855E-01
 MRCHDU: Convergence failed at  74  side 1    Res =  0.1566E+00
 MRCHDU: Convergence failed at  75  side 1    Res =  0.1527E+00
 MRCHDU: Convergence failed at  76  side 1    Res =  0.2659E-01
 MRCHDU: Convergence failed at  77  side 1    Res =  0.8273E-02
 MRCHDU: Convergence failed at  78  side 1    Res =  0.4273E-02
 MRCHDU: Convergence failed at  79  side 1    Res =  0.2105E-02
 MRCHDU: Convergence failed at  80  side 1    Res =  0.8925E-03
 MRCHDU: Convergence failed at  81  side 1    Res =  0.3620E-03
 MRCHDU: Convergence failed at  82  side 1    Res =  0.3767E-03
 MRCHDU: Convergence failed at  83  side 1    Res =  0.1641E-02
 MRCHDU: Convergence failed at  84  side 1    Res =  0.2535E-02
 MRCHDU: Convergence failed at  86  side 1    Res =  0.8722E+00
 Side 1  free  transition at x/c =  0.0665   19
 Side 2 forced transition at x/c =  1.0000   76

 141   rms: 0.2620E+05   max: -.6505E+06   T at   98  2   RLX: 0.000
       a = 12.750      CL =  0.5347
      Cm = -0.0672     CD =+Infinity   =>   CDf =  0.00378    CDp =+Infinity

 MRCHDU: Convergence failed at  73  side 1    Res =  0.8853E-01
 MRCHDU: Convergence failed at  74  side 1    Res =  0.1566E+00
 MRCHDU: Convergence failed at  75  side 1    Res =  0.1528E+00
 MRCHDU: Convergence failed at  76  side 1    Res =  0.2658E-01
 MRCHDU: Convergence failed at  77  side 1    Res =  0.8270E-02
 MRCHDU: Convergence failed at  78  side 1    Res =  0.4271E-02
 MRCHDU: Convergence failed at  79  side 1    Res =  0.2103E-02
 MRCHDU: Convergence failed at  80  side 1    Res =  0.8913E-03
 MRCHDU: Convergence failed at  81  side 1    Res =  0.3615E-03
 MRCHDU: Convergence failed at  82  side 1    Res =  0.3762E-03
 MRCHDU: Convergence failed at  83  side 1    Res =  0.1639E-02
 MRCHDU: Convergence failed at  84  side 1    Res =  0.2531E-02
 MRCHDU: Convergence failed at  86  side 1    Res =  0.3138E+00
 Side 1  free  transition at x/c =  0.0665   19
 Side 2 forced transition at x/c =  1.0000   76

 142   rms: 0.1633E+06   max: 0.4308E+07   T at   98  2   RLX: 0.000
       a = 12.750      CL =  0.5346
      Cm = -0.0672     CD =+Infinity   =>   CDf =  0.00378    CDp =+Infinity

 MRCHDU: Convergence failed at  73  side 1    Res =  0.8857E-01
 MRCHDU: Convergence failed at  74  side 1    Res =  0.1566E+00
 MRCHDU: Convergence failed at  75  side 1    Res =  0.1528E+00
 MRCHDU: Convergence failed at  76  side 1    Res =  0.2659E-01
 MRCHDU: Convergence failed at  77  side 1    Res =  0.8274E-02
 MRCHDU: Convergence failed at  78  side 1    Res =  0.4274E-02
 MRCHDU: Convergence failed at  79  side 1    Res =  0.2106E-02
 MRCHDU: Convergence failed at  80  side 1    Res =  0.8930E-03
 MRCHDU: Convergence failed at  81  side 1    Res =  0.3620E-03
 MRCHDU: Convergence failed at  82  side 1    Res =  0.3767E-03
 MRCHDU: Convergence failed at  83  side 1    Res =  0.1641E-02
 MRCHDU: Convergence failed at  84  side 1    Res =  0.2536E-02
 MRCHDU: Convergence failed at  86  side 1    Res =  0.1544E+00
 Side 1  free  transition at x/c =  0.0665   19
 Side 2 forced transition at x/c =  1.0000   76

 143   rms: 0.1103E+06   max: -.2594E+07   T at   98  2   RLX: 0.000
       a = 12.750      CL =  0.5347
      Cm = -0.0672     CD =+Infinity   =>   CDf =  0.00378    CDp =+Infinity

 MRCHDU: Convergence failed at  73  side 1    Res =  0.8855E-01
 MRCHDU: Convergence failed at  74  side 1    Res =  0.1566E+00
 MRCHDU: Convergence failed at  75  side 1    Res =  0.1528E+00
 MRCHDU: Convergence failed at  76  side 1    Res =  0.2658E-01
 MRCHDU: Convergence failed at  77  side 1    Res =  0.8270E-02
 MRCHDU: Convergence failed at  78  side 1    Res =  0.4271E-02
 MRCHDU: Convergence failed at  79  side 1    Res =  0.2103E-02
 MRCHDU: Convergence failed at  80  side 1    Res =  0.8916E-03
 MRCHDU: Convergence failed at  81  side 1    Res =  0.3615E-03
 MRCHDU: Convergence failed at  82  side 1    Res =  0.3762E-03
 MRCHDU: Convergence failed at  83  side 1    Res =  0.1639E-02
 MRCHDU: Convergence failed at  84  side 1    Res =  0.2532E-02
 MRCHDU: Convergence failed at  86  side 1    Res =  0.3730E+00
 Side 1  free  transition at x/c =  0.0665   19
 Side 2 forced transition at x/c =  1.0000   76

 144   rms: 0.3602E+05   max: 0.9357E+06   T at   98  2   RLX: 0.000
       a = 12.750      CL =  0.5346
      Cm = -0.0672     CD =+Infinity   =>   CDf =  0.00378    CDp =+Infinity

 MRCHDU: Convergence failed at  73  side 1    Res =  0.8858E-01
 MRCHDU: Convergence failed at  74  side 1    Res =  0.1566E+00
 MRCHDU: Convergence failed at  75  side 1    Res =  0.1528E+00
 MRCHDU: Convergence failed at  76  side 1    Res =  0.2659E-01
 MRCHDU: Convergence failed at  77  side 1    Res =  0.8271E-02
 MRCHDU: Convergence failed at  78  side 1    Res =  0.4273E-02
 MRCHDU: Convergence failed at  79  side 1    Res =  0.2104E-02
 MRCHDU: Convergence failed at  80  side 1    Res =  0.8922E-03
 MRCHDU: Convergence failed at  81  side 1    Res =  0.3615E-03
 MRCHDU: Convergence failed at  82  side 1    Res =  0.3761E-03
 MRCHDU: Convergence failed at  83  side 1    Res =  0.1643E-02
 MRCHDU: Convergence failed at  84  side 1    Res =  0.2539E-02
 MRCHDU: Convergence failed at  86  side 1    Res =  0.1486E+00
 Side 1  free  transition at x/c =  0.0665   19
 Side 2 forced transition at x/c =  1.0000   76

 145   rms: 0.8182E+04   max: -.1797E+06   T at   98  2   RLX: 0.000
       a = 12.750      CL =  0.5347
      Cm = -0.0672     CD =+Infinity   =>   CDf =  0.00378    CDp =+Infinity

 MRCHDU: Convergence failed at  73  side 1    Res =  0.8855E-01
 MRCHDU: Convergence failed at  74  side 1    Res =  0.1566E+00
 MRCHDU: Convergence failed at  75  side 1    Res =  0.1528E+00
 MRCHDU: Convergence failed at  76  side 1    Res =  0.2658E-01
 MRCHDU: Convergence failed at  77  side 1    Res =  0.8269E-02
 MRCHDU: Convergence failed at  78  side 1    Res =  0.4272E-02
 MRCHDU: Convergence failed at  79  side 1    Res =  0.2105E-02
 MRCHDU: Convergence failed at  80  side 1    Res =  0.8921E-03
 MRCHDU: Convergence failed at  81  side 1    Res =  0.3612E-03
 MRCHDU: Convergence failed at  82  side 1    Res =  0.3757E-03
 MRCHDU: Convergence failed at  83  side 1    Res =  0.1640E-02
 MRCHDU: Convergence failed at  84  side 1    Res =  0.2532E-02
 MRCHDU: Convergence failed at  86  side 1    Res =  0.4503E+00
 Side 1  free  transition at x/c =  0.0665   19
 Side 2 forced transition at x/c =  1.0000   76

 146   rms: 0.1010E+06   max: 0.2563E+07   T at   98  2   RLX: 0.000
       a = 12.750      CL =  0.5345
      Cm = -0.0672     CD =+Infinity   =>   CDf =  0.00378    CDp =+Infinity

 MRCHDU: Convergence failed at  73  side 1    Res =  0.8859E-01
 MRCHDU: Convergence failed at  74  side 1    Res =  0.1566E+00
 MRCHDU: Convergence failed at  75  side 1    Res =  0.1529E+00
 MRCHDU: Convergence failed at  76  side 1    Res =  0.2660E-01
 MRCHDU: Convergence failed at  77  side 1    Res =  0.8276E-02
 MRCHDU: Convergence failed at  78  side 1    Res =  0.4277E-02
 MRCHDU: Convergence failed at  79  side 1    Res =  0.2108E-02
 MRCHDU: Convergence failed at  80  side 1    Res =  0.8939E-03
 MRCHDU: Convergence failed at  81  side 1    Res =  0.3620E-03
 MRCHDU: Convergence failed at  82  side 1    Res =  0.3766E-03
 MRCHDU: Convergence failed at  83  side 1    Res =  0.1643E-02
 MRCHDU: Convergence failed at  84  side 1    Res =  0.2539E-02
 MRCHDU: Convergence failed at  86  side 1    Res =  0.1378E+00
 Side 1  free  transition at x/c =  0.0665   19
 Side 2 forced transition at x/c =  1.0000   76

 147   rms: 0.1006E+06   max: -.1923E+07   T at   98  2   RLX: 0.000
       a = 12.750      CL =  0.5346
      Cm = -0.0672     CD =+Infinity   =>   CDf =  0.00378    CDp =+Infinity

 MRCHDU: Convergence failed at  73  side 1    Res =  0.8856E-01
 MRCHDU: Convergence failed at  74  side 1    Res =  0.1566E+00
 MRCHDU: Convergence failed at  75  side 1    Res =  0.1528E+00
 MRCHDU: Convergence failed at  76  side 1    Res =  0.2658E-01
 MRCHDU: Convergence failed at  77  side 1    Res =  0.8268E-02
 MRCHDU: Convergence failed at  78  side 1    Res =  0.4271E-02
 MRCHDU: Convergence failed at  79  side 1    Res =  0.2104E-02
 MRCHDU: Convergence failed at  80  side 1    Res =  0.8914E-03
 MRCHDU: Convergence failed at  81  side 1    Res =  0.3611E-03
 MRCHDU: Convergence failed at  82  side 1    Res =  0.3756E-03
 MRCHDU: Convergence failed at  83  side 1    Res =  0.1639E-02
 MRCHDU: Convergence failed at  84  side 1    Res =  0.2531E-02
 MRCHDU: Convergence failed at  86  side 1    Res =  0.6048E+00
 Side 1  free  transition at x/c =  0.0665   19
 Side 2 forced transition at x/c =  1.0000   76

 148   rms: 0.3317E+05   max: -.8087E+06   T at   98  2   RLX: 0.000
       a = 12.750      CL =  0.5347
      Cm = -0.0672     CD =+Infinity   =>   CDf =  0.00378    CDp =+Infinity

 MRCHDU: Convergence failed at  73  side 1    Res =  0.8854E-01
 MRCHDU: Convergence failed at  74  side 1    Res =  0.1566E+00
 MRCHDU: Convergence failed at  75  side 1    Res =  0.1528E+00
 MRCHDU: Convergence failed at  76  side 1    Res =  0.2657E-01
 MRCHDU: Convergence failed at  77  side 1    Res =  0.8265E-02
 MRCHDU: Convergence failed at  78  side 1    Res =  0.4268E-02
 MRCHDU: Convergence failed at  79  side 1    Res =  0.2101E-02
 MRCHDU: Convergence failed at  80  side 1    Res =  0.8901E-03
 MRCHDU: Convergence failed at  81  side 1    Res =  0.3606E-03
 MRCHDU: Convergence failed at  82  side 1    Res =  0.3751E-03
 MRCHDU: Convergence failed at  83  side 1    Res =  0.1638E-02
 MRCHDU: Convergence failed at  84  side 1    Res =  0.2528E-02
 MRCHDU: Convergence failed at  86  side 1    Res =  0.2463E+00
 Side 1  free  transition at x/c =  0.0665   19
 Side 2 forced transition at x/c =  1.0000   76

 149   rms: 0.9557E+05   max: -.2516E+07   T at   98  2   RLX: 0.000
       a = 12.750      CL =  0.5347
      Cm = -0.0672     CD =+Infinity   =>   CDf =  0.00378    CDp =+Infinity

 MRCHDU: Convergence failed at  73  side 1    Res =  0.8853E-01
 MRCHDU: Convergence failed at  74  side 1    Res =  0.1566E+00

[TIMEOUT]
