
 ===================================================
  XFOIL Version 6.99
  Copyright (C) 2000   Mark Drela, Harold Youngren

  This software comes with ABSOLUTELY NO WARRANTY,
    subject to the GNU General Public License.

  Caveat computor
 ===================================================

 File  xfoil.def  not found

   QUIT    Exit program

  .OPER    Direct operating point(s)
  .MDES    Complex mapping design routine
  .QDES    Surface speed design routine
  .GDES    Geometry design routine

   SAVE f  Write airfoil to labeled coordinate file
   PSAV f  Write airfoil to plain coordinate file
   ISAV f  Write airfoil to ISES coordinate file
   MSAV f  Write airfoil to MSES coordinate file
   REVE    Reverse written-airfoil node ordering

   LOAD f  Read buffer airfoil from coordinate file
   NACA i  Set NACA 4,5-digit airfoil and buffer airfoil
   INTE    Set buffer airfoil by interpolating two airfoils
   NORM    Buffer airfoil normalization toggle
   XYCM rr Change CM reference location, currently  0.25000 0.00000

   BEND    Display structural properties of current airfoil

   PCOP    Set current-airfoil panel nodes directly from buffer airfoil points
   PANE    Set current-airfoil panel nodes ( 160 ) based on curvature
  .PPAR    Show/change paneling

  .PLOP    Plotting options

   WDEF f  Write  current-settings file
   RDEF f  Reread current-settings file
   NAME s  Specify new airfoil name
   NINC    Increment name version number

   Z       Zoom    | (available in all menus)
   U       Unzoom  | 

 XFOIL   c>  
 Labeled airfoil file.  Name:  JX-GS-10                                        

 Number of input coordinate points: 201
 Counterclockwise ordering
 Max thickness =     0.074099  at x =   0.264
 Max camber    =     0.014671  at x =   0.360

  LE  x,y  =  -0.00000   0.00006  |   Chord =   1.00000
  TE  x,y  =   1.00000  -0.00000  |

 Current airfoil nodes set from buffer airfoil nodes ( 201 )

 XFOIL   c>  
 XFOIL   c>  
 Sharp trailing edge

 Paneling parameters used...
   Number of panel nodes       160
   Panel bunching parameter    1.000
   TE/LE panel density ratio   0.150
   Refined-area/LE panel density ratio    0.200
   Top    side refined area x/c limits  1.000 1.000
   Bottom side refined area x/c limits  1.000 1.000

 XFOIL   c>  
.OPERi   c>  
 Xtr/c     =  1.0000    top    side
 Xtr/c     =  1.0000    bottom side
 Ncrit     =    9.00   ( 0.070 % turb. level )
 Vacc      =  0.0100

 Klag  =  5.6000     Uxwt  =    1.00
 A     =  6.7000     B     =  0.7500       KCt = 0.01485
 CtiniK=  1.8000     CtiniX=  3.3000

..VPAR   c>  
..VPAR   c>  
.OPERi   c>  
 M  =    0.0000
 Re =    600000

.OPERv   c>  
.OPERv   c>  
.OPERv   c>  
 Polar  1 newly created for accumulation
 Airfoil archived with polar: JX-GS-10                                        

Enter  polar save filename  OR  <return> for no file   s>  
 New polar save file available

Enter  polar dump filename  OR  <return> for no file   s>  
 Polar dump file will NOT be written

 Polar accumulation enabled

.OPERva   c>   Calculating unit vorticity distributions ...
 Calculating wake trajectory ...
 Calculating source influence matrix ...

 Solving BL system ...

 Initializing BL ...
    side            1  ...
 MRCHUE: Inverse mode at  71     Hk =   3.835
 MRCHUE: Inverse mode at  72     Hk =   4.281
 MRCHUE: Inverse mode at  73     Hk =   4.721
 MRCHUE: Inverse mode at  74     Hk =   5.156
 MRCHUE: Inverse mode at  75     Hk =   5.577
 MRCHUE: Inverse mode at  76     Hk =   5.945
 MRCHUE: Inverse mode at  77     Hk =   6.122
    side            2  ...
 MRCHUE: Inverse mode at   8     Hk =   5.334
 MRCHUE: Inverse mode at   9     Hk =   7.532
 MRCHUE: Inverse mode at  10     Hk =   9.539
 MRCHUE: Inverse mode at  11     Hk =   6.324
 MRCHUE: Inverse mode at  12     Hk =   2.500
 MRCHUE: Inverse mode at  13     Hk =   2.500
 MRCHUE: Inverse mode at  14     Hk =   2.500
 MRCHUE: Inverse mode at  15     Hk =   2.500

 Side 1 forced transition at x/c =  1.0000   77
 Side 2  free  transition at x/c =  0.0080   11

   1   rms: 0.2115E+00   max: 0.2352E+01   T at   11  2   RLX: 0.638
       a = -4.000      CL = -0.3824
      Cm = -0.0156     CD =  0.01198   =>   CDf =  0.00533    CDp =  0.00665

 MRCHDU: Convergence failed at  11  side 2    Res =  0.4739E+02
 MRCHDU: Convergence failed at  12  side 2    Res =  0.3074E+02
 MRCHDU: Convergence failed at  13  side 2    Res =  0.1522E+03
 MRCHDU: Convergence failed at  14  side 2    Res =  0.2579E+03
 MRCHDU: Convergence failed at  15  side 2    Res =  0.1029E+03
 MRCHDU: Convergence failed at  16  side 2    Res =  0.1682E+03
 MRCHDU: Convergence failed at  17  side 2    Res =  0.9469E+04
 MRCHDU: Convergence failed at  18  side 2    Res =  0.4368E+03
 MRCHDU: Convergence failed at  19  side 2    Res =  0.3884E+03
 MRCHDU: Convergence failed at  20  side 2    Res =  0.3205E+03
 MRCHDU: Convergence failed at  21  side 2    Res =  0.4165E+03
 MRCHDU: Convergence failed at  22  side 2    Res =  0.6122E+03
 MRCHDU: Convergence failed at  23  side 2    Res =  0.9698E+03
 MRCHDU: Convergence failed at  24  side 2    Res =  0.1516E+04
 MRCHDU: Convergence failed at  25  side 2    Res =  0.8417E+03
 MRCHDU: Convergence failed at  26  side 2    Res =  0.4163E+03
 MRCHDU: Convergence failed at  27  side 2    Res =  0.5210E+03
 MRCHDU: Convergence failed at  28  side 2    Res =  0.6795E+03
 MRCHDU: Convergence failed at  29  side 2    Res =  0.2910E+03
 MRCHDU: Convergence failed at  30  side 2    Res =  0.1913E+05
 MRCHDU: Convergence failed at  31  side 2    Res =  0.2210E+04
 MRCHDU: Convergence failed at  32  side 2    Res =  0.1209E+04
 MRCHDU: Convergence failed at  33  side 2    Res =  0.8478E+03
 MRCHDU: Convergence failed at  34  side 2    Res =  0.6707E+03
 MRCHDU: Convergence failed at  35  side 2    Res =  0.5515E+03
 MRCHDU: Convergence failed at  36  side 2    Res =  0.4803E+03
 MRCHDU: Convergence failed at  37  side 2    Res =  0.4246E+03
 MRCHDU: Convergence failed at  38  side 2    Res =  0.3828E+03
 MRCHDU: Convergence failed at  39  side 2    Res =  0.3511E+03
 MRCHDU: Convergence failed at  40  side 2    Res =  0.3759E+03
 MRCHDU: Convergence failed at  41  side 2    Res =  0.4107E+03
 MRCHDU: Convergence failed at  42  side 2    Res =  0.4518E+03
 MRCHDU: Convergence failed at  43  side 2    Res =  0.4989E+03
 MRCHDU: Convergence failed at  44  side 2    Res =  0.5524E+03
 MRCHDU: Convergence failed at  45  side 2    Res =  0.6118E+03
 MRCHDU: Convergence failed at  46  side 2    Res =  0.6874E+03
 MRCHDU: Convergence failed at  47  side 2    Res =  0.7772E+03
 MRCHDU: Convergence failed at  48  side 2    Res =  0.8837E+03
 MRCHDU: Convergence failed at  49  side 2    Res =  0.1014E+04
 MRCHDU: Convergence failed at  50  side 2    Res =  0.1187E+04
 MRCHDU: Convergence failed at  51  side 2    Res =  0.1412E+04
 MRCHDU: Convergence failed at  52  side 2    Res =  0.1752E+04
 MRCHDU: Convergence failed at  53  side 2    Res =  0.2175E+04
 MRCHDU: Convergence failed at  54  side 2    Res =  0.3058E+04
 MRCHDU: Convergence failed at  55  side 2    Res =  0.1432E+03
 MRCHDU: Convergence failed at  56  side 2    Res =  0.1368E+03
 MRCHDU: Convergence failed at  57  side 2    Res =  0.7778E+04
 MRCHDU: Convergence failed at  58  side 2    Res =  0.6702E+05
 MRCHDU: Convergence failed at  59  side 2    Res =  0.1307E+03
 MRCHDU: Convergence failed at  60  side 2    Res =  0.5180E+04
 MRCHDU: Convergence failed at  61  side 2    Res =  0.1237E+05
 MRCHDU: Convergence failed at  62  side 2    Res =  0.1273E+03
 MRCHDU: Convergence failed at  63  side 2    Res =  0.1261E+03
 MRCHDU: Convergence failed at  64  side 2    Res =  0.3508E+04
 MRCHDU: Convergence failed at  65  side 2    Res =  0.6008E+04
 MRCHDU: Convergence failed at  66  side 2    Res =  0.2184E+05
 MRCHDU: Convergence failed at  67  side 2    Res =  0.1233E+03
 MRCHDU: Convergence failed at  68  side 2    Res =  0.1220E+03
 MRCHDU: Convergence failed at  69  side 2    Res =  0.1208E+03
 MRCHDU: Convergence failed at  70  side 2    Res =  0.4307E+04
 MRCHDU: Convergence failed at  71  side 2    Res =  0.8890E+04
 MRCHDU: Convergence failed at  72  side 2    Res =  0.1205E+03
 MRCHDU: Convergence failed at  73  side 2    Res =  0.1192E+03
 MRCHDU: Convergence failed at  74  side 2    Res =  0.1178E+03
 MRCHDU: Convergence failed at  75  side 2    Res =  0.2446E+04
 MRCHDU: Convergence failed at  76  side 2    Res =  0.3928E+04
 MRCHDU: Convergence failed at  77  side 2    Res =  0.9690E+04
 MRCHDU: Convergence failed at  78  side 2    Res =  0.1170E+03
 MRCHDU: Convergence failed at  79  side 2    Res =  0.1155E+03
 MRCHDU: Convergence failed at  80  side 2    Res =  0.1138E+03
 MRCHDU: Convergence failed at  81  side 2    Res =  0.2716E+04
 MRCHDU: Convergence failed at  82  side 2    Res =  0.1426E+05
 MRCHDU: Convergence failed at  83  side 2    Res =  0.1100E+03
 MRCHDU: Convergence failed at  84  side 2    Res =  0.6145E+04
 MRCHDU: Convergence failed at  85  side 2    Res =  0.1662E+03
 Side 1 forced transition at x/c =  1.0000   77
 Side 2  free  transition at x/c =  0.0065   11

   2   rms: 0.2389E+01   max: 0.9168E+01   D at   87  2   RLX: 0.164
       a = -4.000      CL = -3.5325
      Cm =  0.8655     CD =  0.00286   =>   CDf =  0.00061    CDp =  0.00225

 Side 1 forced transition at x/c =  1.0000   77
 Side 2  free  transition at x/c =  0.0069   11

   3   rms: 0.1011E+01   max: -.5425E+01   D at   76  1   RLX: 0.092
       a = -4.000      CL = -1.8921
      Cm =  0.3967     CD =  0.05236   =>   CDf =  0.00189    CDp =  0.05047

 Side 1 forced transition at x/c =  1.0000   78
 Side 2  free  transition at x/c =  0.0070   10

   4   rms: 0.2279E+01   max: -.3754E+02   D at    2  1   RLX: 0.013
       a = -4.000      CL = -1.8543
      Cm =  0.3849     CD =  0.06265   =>   CDf =  0.00189    CDp =  0.06076

 Side 1 forced transition at x/c =  1.0000   78
 Side 2  free  transition at x/c =  0.0070   10

   5   rms: 0.7689E+00   max: -.2153E+01   D at   77  1   RLX: 0.232
       a = -4.000      CL = -1.4636
      Cm =  0.2875     CD =  0.05267   =>   CDf =  0.00190    CDp =  0.05077

 Side 1 forced transition at x/c =  1.0000   78
 Side 2  free  transition at x/c =  0.0074   10

   6   rms: 0.6379E+00   max: -.1128E+01   C at  104  2   RLX: 0.412
       a = -4.000      CL = -0.9113
      Cm =  0.1487     CD =  0.05163   =>   CDf =  0.00206    CDp =  0.04957

 Side 1 forced transition at x/c =  1.0000   78
 Side 2  free  transition at x/c =  0.0076   10

   7   rms: 0.4797E+00   max: -.1155E+01   T at  106  2   RLX: 0.433
       a = -4.000      CL = -0.5872
      Cm =  0.0603     CD =  0.05018   =>   CDf =  0.00218    CDp =  0.04801

 Side 1 forced transition at x/c =  1.0000   78
 Side 2  free  transition at x/c =  0.0077   10

   8   rms: 0.4553E+00   max: -.1626E+01   D at  102  2   RLX: 0.308
       a = -4.000      CL = -0.4601
      Cm =  0.0150     CD =  0.06145   =>   CDf =  0.00217    CDp =  0.05929

 Side 1 forced transition at x/c =  1.0000   78
 Side 2  free  transition at x/c =  0.0083   10
 idif Ue xi dudx           1  0.29910782      3.59845161E-03   83.121254    
 Uenew xinew           2  1.39119914E-02  1.67369843E-04

   9   rms: 0.5120E+00   max: -.1847E+01   D at  102  2   RLX: 0.271
       a = -4.000      CL = -0.4079
      Cm = -0.0108     CD =  0.05770   =>   CDf =  0.00201    CDp =  0.05568

 Side 1 forced transition at x/c =  1.0000   77
 Side 2  free  transition at x/c =  0.0093   12

  10   rms: 0.1636E+01   max: 0.1622E+02   D at    2  2   RLX: 0.057
       a = -4.000      CL = -0.3503
      Cm = -0.0349     CD =  0.06569   =>   CDf =  0.00204    CDp =  0.06365

 Side 1 forced transition at x/c =  1.0000   77
 Side 2  free  transition at x/c =  0.0103   12

  11   rms: 0.3604E+02   max: -.1735E+03   T at   12  2   RLX: 0.003
       a = -4.000      CL = -0.3893
      Cm = -0.0229     CD =  0.07907   =>   CDf =  0.00214    CDp =  0.07693

 Side 1 forced transition at x/c =  1.0000   78
 Side 2  free  transition at x/c =  0.0119   11

  12   rms: 0.8958E+00   max: -.1126E+02   T at   11  2   RLX: 0.044
       a = -4.000      CL = -0.4078
      Cm = -0.0170     CD =  0.07286   =>   CDf =  0.00204    CDp =  0.07083

 Side 1 forced transition at x/c =  1.0000   78
 Side 2  free  transition at x/c =  0.0151   12

  13   rms: 0.9218E+00   max: -.4630E+01   T at   12  2   RLX: 0.108
       a = -4.000      CL = -0.4583
      Cm =  0.0211     CD =  0.09013   =>   CDf =  0.00203    CDp =  0.08810

 Side 1 forced transition at x/c =  1.0000   78
 Side 2  free  transition at x/c =  0.0154   12
 idif Ue xi dudx           1  0.37587267      4.83739376E-03   77.701485    
 Uenew xinew           2  0.10927253      1.40631199E-03

  14   rms: 0.1315E+01   max: 0.7067E+01   T at   12  2   RLX: 0.212
       a = -4.000      CL = -0.4835
      Cm =  0.0002     CD =  0.06387   =>   CDf =  0.00197    CDp =  0.06190

 MRCHDU: Convergence failed at  13  side 2    Res =  0.2551E+01
 MRCHDU: Convergence failed at  14  side 2    Res =  0.2575E+02
 MRCHDU: Convergence failed at  15  side 2    Res =  0.2064E+03
 MRCHDU: Convergence failed at  16  side 2    Res =  0.4921E+02
 MRCHDU: Convergence failed at  17  side 2    Res =  0.3734E+02
 MRCHDU: Convergence failed at  18  side 2    Res =  0.3467E+02
 MRCHDU: Convergence failed at  19  side 2    Res =  0.3933E+02
 MRCHDU: Convergence failed at  20  side 2    Res =  0.3997E+02
 MRCHDU: Convergence failed at  21  side 2    Res =  0.4162E+02
 MRCHDU: Convergence failed at  22  side 2    Res =  0.4425E+02
 MRCHDU: Convergence failed at  23  side 2    Res =  0.5916E+03
 MRCHDU: Convergence failed at  24  side 2    Res =  0.8861E+03
 MRCHDU: Convergence failed at  25  side 2    Res =  0.9268E+03
 MRCHDU: Convergence failed at  26  side 2    Res =  0.1146E+04
 MRCHDU: Convergence failed at  27  side 2    Res =  0.1516E+04
 MRCHDU: Convergence failed at  28  side 2    Res =  0.2933E+04
 MRCHDU: Convergence failed at  29  side 2    Res =  0.1133E+06
 MRCHDU: Convergence failed at  30  side 2    Res =  0.6708E+03
 MRCHDU: Convergence failed at  31  side 2    Res =  0.4810E+03
 MRCHDU: Convergence failed at  32  side 2    Res =  0.4167E+03
 MRCHDU: Convergence failed at  33  side 2    Res =  0.3804E+03
 MRCHDU: Convergence failed at  34  side 2    Res =  0.3223E+03
 MRCHDU: Convergence failed at  35  side 2    Res =  0.2721E+03
 MRCHDU: Convergence failed at  36  side 2    Res =  0.1408E+03
 MRCHDU: Convergence failed at  37  side 2    Res =  0.1366E+03
 MRCHDU: Convergence failed at  38  side 2    Res =  0.1346E+03
 MRCHDU: Convergence failed at  39  side 2    Res =  0.1330E+03
 MRCHDU: Convergence failed at  40  side 2    Res =  0.1819E+03
 MRCHDU: Convergence failed at  41  side 2    Res =  0.1862E+03
 MRCHDU: Convergence failed at  42  side 2    Res =  0.1910E+03
 MRCHDU: Convergence failed at  43  side 2    Res =  0.3082E+03
 MRCHDU: Convergence failed at  44  side 2    Res =  0.1550E+05
 MRCHDU: Convergence failed at  45  side 2    Res =  0.2831E+03
 MRCHDU: Convergence failed at  46  side 2    Res =  0.5410E+06
 MRCHDU: Convergence failed at  47  side 2    Res =  0.2021E+03
 MRCHDU: Convergence failed at  48  side 2    Res =  0.2058E+03
 MRCHDU: Convergence failed at  49  side 2    Res =  0.2107E+03
 MRCHDU: Convergence failed at  50  side 2    Res =  0.2143E+03
 MRCHDU: Convergence failed at  51  side 2    Res =  0.2177E+03
 MRCHDU: Convergence failed at  52  side 2    Res =  0.3251E+04
 MRCHDU: Convergence failed at  53  side 2    Res =  0.2739E+04
 MRCHDU: Convergence failed at  54  side 2    Res =  0.2357E+04
 MRCHDU: Convergence failed at  55  side 2    Res =  0.2109E+04
 MRCHDU: Convergence failed at  56  side 2    Res =  0.1892E+04
 MRCHDU: Convergence failed at  57  side 2    Res =  0.1753E+04
 MRCHDU: Convergence failed at  58  side 2    Res =  0.1637E+04
 MRCHDU: Convergence failed at  59  side 2    Res =  0.1543E+04
 MRCHDU: Convergence failed at  60  side 2    Res =  0.1456E+04
 MRCHDU: Convergence failed at  61  side 2    Res =  0.2405E+03
 MRCHDU: Convergence failed at  62  side 2    Res =  0.2417E+03
 MRCHDU: Convergence failed at  63  side 2    Res =  0.2444E+03
 MRCHDU: Convergence failed at  64  side 2    Res =  0.2467E+03
 MRCHDU: Convergence failed at  65  side 2    Res =  0.2473E+03
 MRCHDU: Convergence failed at  66  side 2    Res =  0.2496E+03
 MRCHDU: Convergence failed at  67  side 2    Res =  0.2516E+03
 MRCHDU: Convergence failed at  68  side 2    Res =  0.2519E+03
 MRCHDU: Convergence failed at  69  side 2    Res =  0.2538E+03
 MRCHDU: Convergence failed at  70  side 2    Res =  0.1151E+04
 MRCHDU: Convergence failed at  71  side 2    Res =  0.1178E+04
 MRCHDU: Convergence failed at  72  side 2    Res =  0.1146E+04
 MRCHDU: Convergence failed at  73  side 2    Res =  0.1122E+04
 MRCHDU: Convergence failed at  74  side 2    Res =  0.1139E+04
 MRCHDU: Convergence failed at  75  side 2    Res =  0.1122E+04
 MRCHDU: Convergence failed at  76  side 2    Res =  0.1108E+04
 MRCHDU: Convergence failed at  77  side 2    Res =  0.1119E+04
 MRCHDU: Convergence failed at  78  side 2    Res =  0.1101E+04
 MRCHDU: Convergence failed at  79  side 2    Res =  0.2562E+03
 MRCHDU: Convergence failed at  80  side 2    Res =  0.2538E+03
 MRCHDU: Convergence failed at  81  side 2    Res =  0.2551E+03
 MRCHDU: Convergence failed at  82  side 2    Res =  0.2562E+03
 MRCHDU: Convergence failed at  83  side 2    Res =  0.2573E+03
 MRCHDU: Convergence failed at  84  side 2    Res =  0.2631E+03
 MRCHDU: Convergence failed at  85  side 2    Res =  0.2924E+03
 Side 1 forced transition at x/c =  1.0000   77
 Side 2  free  transition at x/c =  0.0157   13

  15   rms: 0.2369E+01   max: 0.1821E+02   T at   13  2   RLX: 0.065
       a = -4.000      CL = -2.9809
      Cm =  0.7212     CD =  0.00357   =>   CDf =  0.00123    CDp =  0.00234

 Side 1 forced transition at x/c =  1.0000   77
 Side 2  free  transition at x/c =  0.0142   12

  16   rms: 0.4077E+01   max: 0.5091E+02   T at   13  2   RLX: 0.026
       a = -4.000      CL = -1.9976
      Cm =  0.4327     CD =  0.09676   =>   CDf =  0.00197    CDp =  0.09479

 Side 1 forced transition at x/c =  1.0000   77
 Side 2  free  transition at x/c =  0.0130   12

  17   rms: 0.8634E+00   max: 0.3711E+01   C at   77  1   RLX: 0.146
       a = -4.000      CL = -2.0318
      Cm =  0.4269     CD =  0.08772   =>   CDf =  0.00198    CDp =  0.08574

 MRCHDU: Convergence failed at  98  side 2    Res =  0.1852E+01
 MRCHDU: Convergence failed at  99  side 2    Res =  0.1561E+01
 MRCHDU: Convergence failed at 100  side 2    Res =  0.1284E+01
 MRCHDU: Convergence failed at 101  side 2    Res =  0.1193E+01
 MRCHDU: Convergence failed at 102  side 2    Res =  0.6591E+01
 Side 1 forced transition at x/c =  1.0000   77
 Side 2  free  transition at x/c =  0.0118   12

  18   rms: 0.8922E+00   max: 0.2372E+01   D at   91  2   RLX: 0.237
       a = -4.000      CL = -1.6461
      Cm =  0.3313     CD =  0.07820   =>   CDf =  0.00213    CDp =  0.07607

 Side 1 forced transition at x/c =  1.0000   77
 Side 2  free  transition at x/c =  0.0121   12

  19   rms: 0.8386E+00   max: -.2029E+01   T at  107  2   RLX: 0.246
       a = -4.000      CL = -1.2120
      Cm =  0.2250     CD =  0.09781   =>   CDf =  0.00236    CDp =  0.09545

 Side 1 forced transition at x/c =  1.0000   78
 Side 2  free  transition at x/c =  0.0117   11

  20   rms: 0.6151E+00   max: -.2606E+01   D at  106  2   RLX: 0.192
       a = -4.000      CL = -1.0075
      Cm =  0.1701     CD =  0.13377   =>   CDf =  0.00231    CDp =  0.13145

 Side 1 forced transition at x/c =  1.0000   78
 Side 2  free  transition at x/c =  0.0119   11

  21   rms: 0.5538E+00   max: -.1974E+01   D at  106  2   RLX: 0.253
       a = -4.000      CL = -0.7851
      Cm =  0.1124     CD =  0.12814   =>   CDf =  0.00235    CDp =  0.12579

 Side 1 forced transition at x/c =  1.0000   78
 Side 2  free  transition at x/c =  0.0114   11

  22   rms: 0.5068E+00   max: 0.2846E+01   T at   11  2   RLX: 0.374
       a = -4.000      CL = -0.5594
      Cm =  0.0515     CD =  0.10313   =>   CDf =  0.00236    CDp =  0.10077

 Side 1 forced transition at x/c =  1.0000   78
 Side 2  free  transition at x/c =  0.0089   10

  23   rms: 0.6451E+00   max: -.3427E+01   T at   11  2   RLX: 0.146
       a = -4.000      CL = -0.6161
      Cm =  0.0774     CD =  0.16667   =>   CDf =  0.00233    CDp =  0.16434

 Side 1 forced transition at x/c =  1.0000   78
 Side 2  free  transition at x/c =  0.0089   10

  24   rms: 0.5047E+00   max: -.2189E+01   T at   11  2   RLX: 0.228
       a = -4.000      CL = -0.5623
      Cm =  0.0664     CD =  0.13718   =>   CDf =  0.00232    CDp =  0.13485

 Side 1 forced transition at x/c =  1.0000   78
 Side 2  free  transition at x/c =  0.0088   10

  25   rms: 0.4407E+00   max: -.1398E+01   T at   11  2   RLX: 0.358
       a = -4.000      CL = -0.4456
      Cm =  0.0365     CD =  0.10675   =>   CDf =  0.00232    CDp =  0.10444

 Side 1 forced transition at x/c =  1.0000   78
 Side 2  free  transition at x/c =  0.0087   10

  26   rms: 0.4021E+00   max: -.9230E+00   D at   11  2   RLX: 0.542
       a = -4.000      CL = -0.3133
      Cm = -0.0034     CD =  0.09417   =>   CDf =  0.00227    CDp =  0.09190

 Side 1 forced transition at x/c =  1.0000   78
 Side 2  free  transition at x/c =  0.0086   10

  27   rms: 0.5904E+00   max: 0.2452E+01   T at   11  2   RLX: 0.266
       a = -4.000      CL = -0.2643
      Cm = -0.0367     CD =  0.08488   =>   CDf =  0.00215    CDp =  0.08273

 Side 1 forced transition at x/c =  1.0000   78
 Side 2  free  transition at x/c =  0.0096   11
 idif Ue xi dudx           1  0.36645111      4.50372696E-03   81.366196    
 Uenew xinew           2  8.72770548E-02  1.07264519E-03

  28   rms: 0.4303E+01   max: 0.1438E+02   T at   11  2   RLX: 0.044
       a = -4.000      CL = -0.2067
      Cm = -0.0697     CD =  0.06609   =>   CDf =  0.00202    CDp =  0.06407

 Side 1 forced transition at x/c =  1.0000   77
 Side 2  free  transition at x/c =  0.0094   12

  29   rms: 0.2066E+01   max: 0.1156E+02   T at   12  2   RLX: 0.067
       a = -4.000      CL = -0.2024
      Cm = -0.0887     CD =  0.05283   =>   CDf =  0.00268    CDp =  0.05015

 MRCHDU: Convergence failed at  12  side 2    Res =  0.3484E+02
 MRCHDU: Convergence failed at  13  side 2    Res =  0.1239E+03
 MRCHDU: Convergence failed at  14  side 2    Res =  0.2156E+03
 MRCHDU: Convergence failed at  15  side 2    Res =  0.3037E+03
 MRCHDU: Convergence failed at  16  side 2    Res =  0.4369E+02
 MRCHDU: Convergence failed at  17  side 2    Res =  0.6270E+02
 MRCHDU: Convergence failed at  18  side 2    Res =  0.4914E+02
 MRCHDU: Convergence failed at  19  side 2    Res =  0.1307E+03
 MRCHDU: Convergence failed at  20  side 2    Res =  0.2825E+03
 MRCHDU: Convergence failed at  21  side 2    Res =  0.1976E+04
 MRCHDU: Convergence failed at  22  side 2    Res =  0.3130E+04
 MRCHDU: Convergence failed at  23  side 2    Res =  0.8463E+03
 MRCHDU: Convergence failed at  24  side 2    Res =  0.2234E+03
 MRCHDU: Convergence failed at  25  side 2    Res =  0.8132E+03
 MRCHDU: Convergence failed at  26  side 2    Res =  0.5706E+03
 MRCHDU: Convergence failed at  27  side 2    Res =  0.4554E+03
 MRCHDU: Convergence failed at  28  side 2    Res =  0.3878E+03
 MRCHDU: Convergence failed at  29  side 2    Res =  0.3445E+03
 MRCHDU: Convergence failed at  30  side 2    Res =  0.3139E+03
 MRCHDU: Convergence failed at  31  side 2    Res =  0.2918E+03
 MRCHDU: Convergence failed at  32  side 2    Res =  0.2748E+03
 MRCHDU: Convergence failed at  33  side 2    Res =  0.2614E+03
 MRCHDU: Convergence failed at  34  side 2    Res =  0.2506E+03
 MRCHDU: Convergence failed at  35  side 2    Res =  0.2419E+03
 MRCHDU: Convergence failed at  36  side 2    Res =  0.2347E+03
 MRCHDU: Convergence failed at  37  side 2    Res =  0.2287E+03
 MRCHDU: Convergence failed at  38  side 2    Res =  0.2236E+03
 MRCHDU: Convergence failed at  39  side 2    Res =  0.2195E+03
 MRCHDU: Convergence failed at  40  side 2    Res =  0.2160E+03
 MRCHDU: Convergence failed at  41  side 2    Res =  0.2130E+03
 MRCHDU: Convergence failed at  42  side 2    Res =  0.2109E+03
 MRCHDU: Convergence failed at  43  side 2    Res =  0.2095E+03
 MRCHDU: Convergence failed at  44  side 2    Res =  0.2089E+03
 MRCHDU: Convergence failed at  45  side 2    Res =  0.2095E+03
 MRCHDU: Convergence failed at  46  side 2    Res =  0.2118E+03
 MRCHDU: Convergence failed at  47  side 2    Res =  0.2621E+04
 MRCHDU: Convergence failed at  48  side 2    Res =  0.2033E+04
 MRCHDU: Convergence failed at  49  side 2    Res =  0.2230E+04
 MRCHDU: Convergence failed at  50  side 2    Res =  0.2373E+04
 MRCHDU: Convergence failed at  51  side 2    Res =  0.2753E+04
 MRCHDU: Convergence failed at  52  side 2    Res =  0.3641E+04
 MRCHDU: Convergence failed at  53  side 2    Res =  0.5384E+04
 MRCHDU: Convergence failed at  54  side 2    Res =  0.2445E+05
 MRCHDU: Convergence failed at  55  side 2    Res =  0.1730E+05
 MRCHDU: Convergence failed at  56  side 2    Res =  0.5260E+04
 MRCHDU: Convergence failed at  57  side 2    Res =  0.5418E+04
 MRCHDU: Convergence failed at  58  side 2    Res =  0.3361E+04
 MRCHDU: Convergence failed at  59  side 2    Res =  0.1382E+03
 MRCHDU: Convergence failed at  60  side 2    Res =  0.3175E+04
 MRCHDU: Convergence failed at  61  side 2    Res =  0.1376E+03
 MRCHDU: Convergence failed at  62  side 2    Res =  0.1381E+03
 MRCHDU: Convergence failed at  63  side 2    Res =  0.1381E+03
 MRCHDU: Convergence failed at  64  side 2    Res =  0.4739E+04
 MRCHDU: Convergence failed at  65  side 2    Res =  0.4775E+04
 MRCHDU: Convergence failed at  66  side 2    Res =  0.5608E+04
 MRCHDU: Convergence failed at  67  side 2    Res =  0.5067E+04
 MRCHDU: Convergence failed at  68  side 2    Res =  0.7148E+04
 MRCHDU: Convergence failed at  69  side 2    Res =  0.1348E+05
 MRCHDU: Convergence failed at  70  side 2    Res =  0.1226E+05
 MRCHDU: Convergence failed at  71  side 2    Res =  0.1612E+05
 MRCHDU: Convergence failed at  72  side 2    Res =  0.9351E+04
 MRCHDU: Convergence failed at  73  side 2    Res =  0.6892E+04
 MRCHDU: Convergence failed at  74  side 2    Res =  0.5721E+04
 MRCHDU: Convergence failed at  75  side 2    Res =  0.5309E+04
 MRCHDU: Convergence failed at  76  side 2    Res =  0.5188E+04
 MRCHDU: Convergence failed at  77  side 2    Res =  0.5083E+04
 MRCHDU: Convergence failed at  78  side 2    Res =  0.5587E+04
 MRCHDU: Convergence failed at  79  side 2    Res =  0.6914E+04
 MRCHDU: Convergence failed at  80  side 2    Res =  0.1110E+05
 MRCHDU: Convergence failed at  81  side 2    Res =  0.2017E+03
 MRCHDU: Convergence failed at  82  side 2    Res =  0.2475E+05
 MRCHDU: Convergence failed at  83  side 2    Res =  0.4580E+04
 MRCHDU: Convergence failed at  84  side 2    Res =  0.1818E+05
 MRCHDU: Convergence failed at  85  side 2    Res =  0.7605E+03
 Side 1 forced transition at x/c =  1.0000   77
 Side 2  free  transition at x/c =  0.0090   11

  30   rms: 0.1778E+01   max: 0.6099E+01   D at   88  2   RLX: 0.246
       a = -4.000      CL = -2.8170
      Cm =  0.6703     CD =  0.00489   =>   CDf =  0.00125    CDp =  0.00364

 MRCHDU: Convergence failed at  88  side 2    Res =  0.1386E+02
 MRCHDU: Convergence failed at  89  side 2    Res =  0.6196E+01
 MRCHDU: Convergence failed at  90  side 2    Res =  0.7664E+01
 MRCHDU: Convergence failed at  91  side 2    Res =  0.1973E+02
 MRCHDU: Convergence failed at  92  side 2    Res =  0.7405E+01
 MRCHDU: Convergence failed at  93  side 2    Res =  0.3778E+01
 MRCHDU: Convergence failed at  94  side 2    Res =  0.3631E+01
 MRCHDU: Convergence failed at  95  side 2    Res =  0.3537E+01
 MRCHDU: Convergence failed at  96  side 2    Res =  0.4060E+01
 MRCHDU: Convergence failed at  97  side 2    Res =  0.3960E+01
 MRCHDU: Convergence failed at  98  side 2    Res =  0.3670E+01
 MRCHDU: Convergence failed at  99  side 2    Res =  0.4223E+01
 MRCHDU: Convergence failed at 100  side 2    Res =  0.3937E+01
 MRCHDU: Convergence failed at 101  side 2    Res =  0.3928E+01
 MRCHDU: Convergence failed at 102  side 2    Res =  0.4418E+01
 MRCHDU: Convergence failed at 103  side 2    Res =  0.9154E+01
 MRCHDU: Convergence failed at 104  side 2    Res =  0.3865E+01
 MRCHDU: Convergence failed at 105  side 2    Res =  0.4046E+01
 MRCHDU: Convergence failed at 106  side 2    Res =  0.4343E+01
 MRCHDU: Convergence failed at 107  side 2    Res =  0.3800E+01
 Side 1 forced transition at x/c =  1.0000   77
 Side 2  free  transition at x/c =  0.0090   11

  31   rms: 0.1618E+01   max: -.7370E+01   T at   13  2   RLX: 0.068
       a = -4.000      CL = -1.7577
      Cm =  0.3953     CD =  0.10988   =>   CDf =  0.00221    CDp =  0.10767

 Side 1 forced transition at x/c =  1.0000   78
 Side 2  free  transition at x/c =  0.0090   10

  32   rms: 0.1654E+01   max: -.1034E+02   T at   12  2   RLX: 0.048
       a = -4.000      CL = -1.6655
      Cm =  0.3758     CD =  0.19588   =>   CDf =  0.00211    CDp =  0.19377

 Side 1 forced transition at x/c =  1.0000   78
 Side 2  free  transition at x/c =  0.0090   10

  33   rms: 0.1616E+01   max: -.1427E+02   T at   12  2   RLX: 0.035
       a = -4.000      CL = -1.5981
      Cm =  0.3616     CD =  0.22088   =>   CDf =  0.00211    CDp =  0.21876

 Side 1 forced transition at x/c =  1.0000   78
 Side 2  free  transition at x/c =  0.0090   10

  34   rms: 0.1823E+01   max: -.2547E+02   T at   11  2   RLX: 0.020
       a = -4.000      CL = -1.5637
      Cm =  0.3549     CD =  0.24825   =>   CDf =  0.00211    CDp =  0.24613

 MRCHDU: Convergence failed at  12  side 2    Res =  0.1642E-02
 Side 1 forced transition at x/c =  1.0000   78
 Side 2  free  transition at x/c =  0.0090   10

  35   rms: 0.4715E+01   max: -.7678E+02   T at   11  2   RLX: 0.007
       a = -4.000      CL = -1.5516
      Cm =  0.3530     CD =  0.27006   =>   CDf =  0.00211    CDp =  0.26794

 Side 1 forced transition at x/c =  1.0000   78
 Side 2  free  transition at x/c =  0.0089   10

  36   rms: 0.4283E+02   max: 0.1032E+04   C at   12  2   RLX: 0.001
       a = -4.000      CL = -1.5157
      Cm =  0.3403     CD =  0.25823   =>   CDf =  0.00211    CDp =  0.25613

 Side 1 forced transition at x/c =  1.0000   78
 Side 2  free  transition at x/c =  0.0089   10

  37   rms: 0.7987E+01   max: -.1465E+03   C at   12  2   RLX: 0.003
       a = -4.000      CL = -1.5207
      Cm =  0.3432     CD =  0.26399   =>   CDf =  0.00211    CDp =  0.26188

 Side 1 forced transition at x/c =  1.0000   78
 Side 2  free  transition at x/c =  0.0089   10

  38   rms: 0.1988E+02   max: -.2250E+03   T at   14  2   RLX: 0.002
       a = -4.000      CL = -1.5230
      Cm =  0.3447     CD =  0.27218   =>   CDf =  0.00211    CDp =  0.27007

 Side 1 forced transition at x/c =  1.0000   78
 Side 2  free  transition at x/c =  0.0089   10

  39   rms: 0.5214E+02   max: -.9532E+03   C at   12  2   RLX: 0.001
       a = -4.000      CL = -1.5258
      Cm =  0.3464     CD =  0.28307   =>   CDf =  0.00211    CDp =  0.28096

 MRCHDU: Convergence failed at  13  side 2    Res =  0.6686E-01
 Side 1 forced transition at x/c =  1.0000   78
 Side 2  free  transition at x/c =  0.0089   10

  40   rms: 0.1133E+02   max: -.1728E+03   T at   14  2   RLX: 0.003
       a = -4.000      CL = -1.5316
      Cm =  0.3490     CD =  0.29108   =>   CDf =  0.00211    CDp =  0.28897

 MRCHDU: Convergence failed at  13  side 2    Res =  0.1739E+00
 MRCHDU: Convergence failed at  15  side 2    Res =  0.1739E+00
 Side 1 forced transition at x/c =  1.0000   78
 Side 2  free  transition at x/c =  0.0089   10

  41   rms: 0.4618E+02   max: 0.3586E+03   C at   23  2   RLX: 0.004
       a = -4.000      CL = -1.5255
      Cm =  0.3404     CD =  0.22361   =>   CDf =  0.00208    CDp =  0.22153

 MRCHDU: Convergence failed at  16  side 2    Res =  0.5356E+00
 MRCHDU: Convergence failed at  17  side 2    Res =  0.2256E+01
 MRCHDU: Convergence failed at  18  side 2    Res =  0.1464E+01
 MRCHDU: Convergence failed at  19  side 2    Res =  0.1488E+02
 MRCHDU: Convergence failed at  20  side 2    Res =  0.7293E+01
 Side 1 forced transition at x/c =  1.0000   78
 Side 2  free  transition at x/c =  0.0089   10

  42   rms: 0.1571E+01   max: 0.8206E+01   C at   20  2   RLX: 0.091
       a = -4.000      CL = -1.3804
      Cm =  0.3039     CD =  0.23465   =>   CDf =  0.00208    CDp =  0.23257

 MRCHDU: Convergence failed at  16  side 2    Res =  0.1883E+00
 MRCHDU: Convergence failed at  17  side 2    Res =  0.1549E+00
 MRCHDU: Convergence failed at  18  side 2    Res =  0.1287E+00
 MRCHDU: Convergence failed at  19  side 2    Res =  0.1062E+00
 MRCHDU: Convergence failed at  20  side 2    Res =  0.8635E-01
 MRCHDU: Convergence failed at  21  side 2    Res =  0.2283E+00
 MRCHDU: Convergence failed at  22  side 2    Res =  0.5669E-01
 Side 1 forced transition at x/c =  1.0000   78
 Side 2  free  transition at x/c =  0.0089   10

  43   rms: 0.5195E+01   max: -.6381E+02   C at   21  2   RLX: 0.008
       a = -4.000      CL = -1.3876
      Cm =  0.3063     CD =  0.30376   =>   CDf =  0.00209    CDp =  0.30167

 MRCHDU: Convergence failed at  16  side 2    Res =  0.2239E+00
 MRCHDU: Convergence failed at  17  side 2    Res =  0.1926E+00
 MRCHDU: Convergence failed at  18  side 2    Res =  0.1660E+00
 MRCHDU: Convergence failed at  19  side 2    Res =  0.1447E+00
 MRCHDU: Convergence failed at  20  side 2    Res =  0.1100E+00
 MRCHDU: Convergence failed at  21  side 2    Res =  0.9481E-01
 MRCHDU: Convergence failed at  22  side 2    Res =  0.5871E-01
 Side 1 forced transition at x/c =  1.0000   78
 Side 2  free  transition at x/c =  0.0089   10

  44   rms: 0.1611E+02   max: -.1894E+03   C at   21  2   RLX: 0.003
       a = -4.000      CL = -1.3893
      Cm =  0.3075     CD =  0.30661   =>   CDf =  0.00209    CDp =  0.30452

 MRCHDU: Convergence failed at  16  side 2    Res =  0.2516E+00
 MRCHDU: Convergence failed at  17  side 2    Res =  0.2198E+00
 MRCHDU: Convergence failed at  18  side 2    Res =  0.1930E+00
 MRCHDU: Convergence failed at  19  side 2    Res =  0.1713E+00
 MRCHDU: Convergence failed at  20  side 2    Res =  0.1527E+00
 MRCHDU: Convergence failed at  21  side 2    Res =  0.1175E+00
 Side 1 forced transition at x/c =  1.0000   78
 Side 2  free  transition at x/c =  0.0089   10

  45   rms: 0.5153E+01   max: 0.4398E+02   C at   22  2   RLX: 0.023
       a = -4.000      CL = -1.3995
      Cm =  0.3088     CD =  0.23641   =>   CDf =  0.00207    CDp =  0.23434

 MRCHDU: Convergence failed at  16  side 2    Res =  0.2876E+00
 MRCHDU: Convergence failed at  17  side 2    Res =  0.2544E+00
 MRCHDU: Convergence failed at  18  side 2    Res =  0.2269E+00
 MRCHDU: Convergence failed at  19  side 2    Res =  0.2047E+00
 MRCHDU: Convergence failed at  20  side 2    Res =  0.1860E+00
 MRCHDU: Convergence failed at  21  side 2    Res =  0.1695E+00
 Side 1 forced transition at x/c =  1.0000   78
 Side 2  free  transition at x/c =  0.0089   10

  46   rms: 0.1237E+02   max: 0.1303E+03   T at   46  2   RLX: 0.008
       a = -4.000      CL = -1.3962
      Cm =  0.3068     CD =  0.23114   =>   CDf =  0.00207    CDp =  0.22907

 MRCHDU: Convergence failed at  16  side 2    Res =  0.3183E+00
 MRCHDU: Convergence failed at  17  side 2    Res =  0.2856E+00
 MRCHDU: Convergence failed at  18  side 2    Res =  0.2578E+00
 MRCHDU: Convergence failed at  19  side 2    Res =  0.2353E+00
 MRCHDU: Convergence failed at  20  side 2    Res =  0.2160E+00
 MRCHDU: Convergence failed at  21  side 2    Res =  0.1991E+00
 Side 1 forced transition at x/c =  1.0000   78
 Side 2  free  transition at x/c =  0.0089   10

  47   rms: 0.5705E+01   max: 0.4397E+02   C at   22  2   RLX: 0.023
       a = -4.000      CL = -1.3665
      Cm =  0.2977     CD =  0.21051   =>   CDf =  0.00207    CDp =  0.20844

 MRCHDU: Convergence failed at  16  side 2    Res =  0.3596E+00
 MRCHDU: Convergence failed at  17  side 2    Res =  0.3246E+00
 MRCHDU: Convergence failed at  18  side 2    Res =  0.2954E+00
 MRCHDU: Convergence failed at  19  side 2    Res =  0.2724E+00
 MRCHDU: Convergence failed at  20  side 2    Res =  0.2527E+00
 MRCHDU: Convergence failed at  21  side 2    Res =  0.2349E+00
 Side 1 forced transition at x/c =  1.0000   78
 Side 2  free  transition at x/c =  0.0089   10

  48   rms: 0.5135E+01   max: -.4286E+02   C at   19  2   RLX: 0.012
       a = -4.000      CL = -1.3664
      Cm =  0.2984     CD =  0.20321   =>   CDf =  0.00206    CDp =  0.20115

 MRCHDU: Convergence failed at  16  side 2    Res =  0.3974E+00
 MRCHDU: Convergence failed at  17  side 2    Res =  0.3637E+00
 MRCHDU: Convergence failed at  18  side 2    Res =  0.3342E+00
 MRCHDU: Convergence failed at  19  side 2    Res =  0.3106E+00
 MRCHDU: Convergence failed at  20  side 2    Res =  0.2906E+00
 MRCHDU: Convergence failed at  21  side 2    Res =  0.2732E+00
 Side 1 forced transition at x/c =  1.0000   78
 Side 2  free  transition at x/c =  0.0089   10

  49   rms: 0.4884E+01   max: -.4315E+02   C at   18  2   RLX: 0.012
       a = -4.000      CL = -1.3580
      Cm =  0.2967     CD =  0.19833   =>   CDf =  0.00206    CDp =  0.19628

 MRCHDU: Convergence failed at  16  side 2    Res =  0.4354E+00
 MRCHDU: Convergence failed at  17  side 2    Res =  0.4008E+00
 MRCHDU: Convergence failed at  18  side 2    Res =  0.3712E+00
 MRCHDU: Convergence failed at  19  side 2    Res =  0.3474E+00
 MRCHDU: Convergence failed at  20  side 2    Res =  0.3274E+00
 MRCHDU: Convergence failed at  21  side 2    Res =  0.3096E+00
 Side 1 forced transition at x/c =  1.0000   78
 Side 2  free  transition at x/c =  0.0089   10

  50   rms: 0.3795E+01   max: -.3195E+02   C at   21  2   RLX: 0.016
       a = -4.000      CL = -1.3476
      Cm =  0.2949     CD =  0.19136   =>   CDf =  0.00205    CDp =  0.18931

 MRCHDU: Convergence failed at  16  side 2    Res =  0.4676E+00
 MRCHDU: Convergence failed at  17  side 2    Res =  0.4319E+00
 MRCHDU: Convergence failed at  18  side 2    Res =  0.4010E+00
 MRCHDU: Convergence failed at  19  side 2    Res =  0.3769E+00
 MRCHDU: Convergence failed at  20  side 2    Res =  0.3562E+00
 MRCHDU: Convergence failed at  21  side 2    Res =  0.3380E+00
 Side 1 forced transition at x/c =  1.0000   78
 Side 2  free  transition at x/c =  0.0089   10

  51   rms: 0.4138E+01   max: -.4017E+02   C at   19  2   RLX: 0.012
       a = -4.000      CL = -1.3390
      Cm =  0.2935     CD =  0.18594   =>   CDf =  0.00205    CDp =  0.18389

 MRCHDU: Convergence failed at  15  side 2    Res =  0.2422E-02
 MRCHDU: Convergence failed at  16  side 2    Res =  0.4932E+00
 MRCHDU: Convergence failed at  17  side 2    Res =  0.4575E+00
 MRCHDU: Convergence failed at  18  side 2    Res =  0.4270E+00
 MRCHDU: Convergence failed at  19  side 2    Res =  0.4020E+00
 MRCHDU: Convergence failed at  20  side 2    Res =  0.3812E+00
 MRCHDU: Convergence failed at  21  side 2    Res =  0.3631E+00
 Side 1 forced transition at x/c =  1.0000   78
 Side 2  free  transition at x/c =  0.0089   10

  52   rms: 0.4899E+01   max: 0.3872E+02   C at   26  2   RLX: 0.039
       a = -4.000      CL = -1.2915
      Cm =  0.2803     CD =  0.17424   =>   CDf =  0.00204    CDp =  0.17219

 MRCHDU: Convergence failed at  16  side 2    Res =  0.3787E+00
 MRCHDU: Convergence failed at  17  side 2    Res =  0.3522E+00
 MRCHDU: Convergence failed at  18  side 2    Res =  0.3217E+00
 MRCHDU: Convergence failed at  19  side 2    Res =  0.2930E+00
 MRCHDU: Convergence failed at  20  side 2    Res =  0.2696E+00
 MRCHDU: Convergence failed at  21  side 2    Res =  0.2527E+00
 Side 1 forced transition at x/c =  1.0000   78
 Side 2  free  transition at x/c =  0.0089   10

  53   rms: 0.6593E+01   max: 0.7271E+02   C at   21  2   RLX: 0.021
       a = -4.000      CL = -1.1983
      Cm =  0.2520     CD =  0.21348   =>   CDf =  0.00204    CDp =  0.21143

 MRCHDU: Convergence failed at  16  side 2    Res =  0.1585E+00
 MRCHDU: Convergence failed at  17  side 2    Res =  0.1303E+00
 MRCHDU: Convergence failed at  18  side 2    Res =  0.1057E+00
 MRCHDU: Convergence failed at  19  side 2    Res =  0.8539E-01
 MRCHDU: Convergence failed at  20  side 2    Res =  0.3537E+00
 MRCHDU: Convergence failed at  21  side 2    Res =  0.3378E+00
 Side 1 forced transition at x/c =  1.0000   78
 Side 2  free  transition at x/c =  0.0089   10

  54   rms: 0.1861E+02   max: -.1681E+03   C at   13  2   RLX: 0.003
       a = -4.000      CL = -1.1922
      Cm =  0.2503     CD =  0.21843   =>   CDf =  0.00204    CDp =  0.21639

 MRCHDU: Convergence failed at  17  side 2    Res =  0.2234E+00
 MRCHDU: Convergence failed at  18  side 2    Res =  0.2001E+00
 MRCHDU: Convergence failed at  19  side 2    Res =  0.1853E+00
 MRCHDU: Convergence failed at  20  side 2    Res =  0.1688E+00
 MRCHDU: Convergence failed at  21  side 2    Res =  0.1543E+00
 Side 1 forced transition at x/c =  1.0000   78
 Side 2  free  transition at x/c =  0.0089   10

  55   rms: 0.1267E+02   max: 0.1416E+03   C at   21  2   RLX: 0.006
       a = -4.000      CL = -1.1807
      Cm =  0.2496     CD =  0.24696   =>   CDf =  0.00205    CDp =  0.24491

 MRCHDU: Convergence failed at  18  side 2    Res =  0.2839E+00
 MRCHDU: Convergence failed at  19  side 2    Res =  0.2663E+00
 MRCHDU: Convergence failed at  20  side 2    Res =  0.2511E+00
 MRCHDU: Convergence failed at  21  side 2    Res =  0.2383E+00
 MRCHDU: Convergence failed at  22  side 2    Res =  0.1238E-01
 Side 1 forced transition at x/c =  1.0000   78
 Side 2  free  transition at x/c =  0.0089   10

  56   rms: 0.2145E+01   max: -.2595E+02   C at   21  2   RLX: 0.019
       a = -4.000      CL = -1.1512
      Cm =  0.2404     CD =  0.25273   =>   CDf =  0.00205    CDp =  0.25069

 MRCHDU: Convergence failed at  18  side 2    Res =  0.3166E+00
 MRCHDU: Convergence failed at  19  side 2    Res =  0.2984E+00
 MRCHDU: Convergence failed at  20  side 2    Res =  0.2829E+00
 MRCHDU: Convergence failed at  21  side 2    Res =  0.2688E+00
 Side 1 forced transition at x/c =  1.0000   78
 Side 2  free  transition at x/c =  0.0089   10

  57   rms: 0.2009E+01   max: -.2324E+02   C at   21  2   RLX: 0.022
       a = -4.000      CL = -1.1256
      Cm =  0.2324     CD =  0.23753   =>   CDf =  0.00205    CDp =  0.23548

 MRCHDU: Convergence failed at  17  side 2    Res =  0.2464E-01
 MRCHDU: Convergence failed at  18  side 2    Res =  0.3252E+00
 MRCHDU: Convergence failed at  19  side 2    Res =  0.3060E+00
 MRCHDU: Convergence failed at  20  side 2    Res =  0.2905E+00
 MRCHDU: Convergence failed at  21  side 2    Res =  0.2765E+00
 Side 1 forced transition at x/c =  1.0000   78
 Side 2  free  transition at x/c =  0.0089   10

  58   rms: 0.1789E+01   max: -.1925E+02   C at   21  2   RLX: 0.026
       a = -4.000      CL = -1.1029
      Cm =  0.2248     CD =  0.20833   =>   CDf =  0.00204    CDp =  0.20629

 MRCHDU: Convergence failed at  17  side 2    Res =  0.1437E-01
 MRCHDU: Convergence failed at  18  side 2    Res =  0.3259E+00
 MRCHDU: Convergence failed at  19  side 2    Res =  0.3071E+00
 MRCHDU: Convergence failed at  20  side 2    Res =  0.2913E+00
 MRCHDU: Convergence failed at  21  side 2    Res =  0.2772E+00
 Side 1 forced transition at x/c =  1.0000   78
 Side 2  free  transition at x/c =  0.0089   10

  59   rms: 0.1906E+01   max: -.2030E+02   C at   21  2   RLX: 0.025
       a = -4.000      CL = -1.0783
      Cm =  0.2168     CD =  0.19633   =>   CDf =  0.00204    CDp =  0.19430

 MRCHDU: Convergence failed at  18  side 2    Res =  0.2857E+00
 MRCHDU: Convergence failed at  19  side 2    Res =  0.2669E+00
 MRCHDU: Convergence failed at  20  side 2    Res =  0.2513E+00
 MRCHDU: Convergence failed at  21  side 2    Res =  0.2375E+00
 Side 1 forced transition at x/c =  1.0000   78
 Side 2  free  transition at x/c =  0.0089   10

  60   rms: 0.2169E+01   max: -.2736E+02   C at   21  2   RLX: 0.018
       a = -4.000      CL = -1.0670
      Cm =  0.2129     CD =  0.18600   =>   CDf =  0.00203    CDp =  0.18397

 MRCHDU: Convergence failed at  18  side 2    Res =  0.3195E+00
 MRCHDU: Convergence failed at  19  side 2    Res =  0.3005E+00
 MRCHDU: Convergence failed at  20  side 2    Res =  0.2844E+00
 MRCHDU: Convergence failed at  21  side 2    Res =  0.2702E+00
 Side 1 forced transition at x/c =  1.0000   78
 Side 2  free  transition at x/c =  0.0089   10

  61   rms: 0.2315E+01   max: -.2948E+02   C at   21  2   RLX: 0.017
       a = -4.000      CL = -1.0610
      Cm =  0.2103     CD =  0.16942   =>   CDf =  0.00202    CDp =  0.16740

 MRCHDU: Convergence failed at  17  side 2    Res =  0.2005E-01
 MRCHDU: Convergence failed at  18  side 2    Res =  0.3333E+00
 MRCHDU: Convergence failed at  19  side 2    Res =  0.3139E+00
 MRCHDU: Convergence failed at  20  side 2    Res =  0.2974E+00
 MRCHDU: Convergence failed at  21  side 2    Res =  0.2829E+00
 Side 1 forced transition at x/c =  1.0000   78
 Side 2  free  transition at x/c =  0.0089   10

  62   rms: 0.2686E+01   max: -.3595E+02   C at   21  2   RLX: 0.014
       a = -4.000      CL = -1.0648
      Cm =  0.2106     CD =  0.15954   =>   CDf =  0.00202    CDp =  0.15752

 MRCHDU: Convergence failed at  17  side 2    Res =  0.3951E-01
 MRCHDU: Convergence failed at  18  side 2    Res =  0.3394E+00
 MRCHDU: Convergence failed at  19  side 2    Res =  0.3195E+00
 MRCHDU: Convergence failed at  20  side 2    Res =  0.3027E+00
 MRCHDU: Convergence failed at  21  side 2    Res =  0.2879E+00
 Side 1 forced transition at x/c =  1.0000   78
 Side 2  free  transition at x/c =  0.0089   10

  63   rms: 0.2610E+01   max: -.3529E+02   C at   21  2   RLX: 0.014
       a = -4.000      CL = -1.0880
      Cm =  0.2187     CD =  0.14428   =>   CDf =  0.00201    CDp =  0.14226

 MRCHDU: Convergence failed at  17  side 2    Res =  0.6475E-01
 MRCHDU: Convergence failed at  18  side 2    Res =  0.3466E+00
 MRCHDU: Convergence failed at  19  side 2    Res =  0.3262E+00
 MRCHDU: Convergence failed at  20  side 2    Res =  0.3091E+00
 MRCHDU: Convergence failed at  21  side 2    Res =  0.2940E+00
 Side 1 forced transition at x/c =  1.0000   78
 Side 2  free  transition at x/c =  0.0089   10

  64   rms: 0.2910E+01   max: -.3265E+02   C at   21  2   RLX: 0.015
       a = -4.000      CL = -1.1139
      Cm =  0.2301     CD =  0.13314   =>   CDf =  0.00201    CDp =  0.13113

 MRCHDU: Convergence failed at  17  side 2    Res =  0.9173E-01
 MRCHDU: Convergence failed at  18  side 2    Res =  0.3540E+00
 MRCHDU: Convergence failed at  19  side 2    Res =  0.3330E+00
 MRCHDU: Convergence failed at  20  side 2    Res =  0.3155E+00
 MRCHDU: Convergence failed at  21  side 2    Res =  0.3002E+00
 Side 1 forced transition at x/c =  1.0000   78
 Side 2  free  transition at x/c =  0.0089   10

  65   rms: 0.2506E+01   max: -.3278E+02   C at   21  2   RLX: 0.015
       a = -4.000      CL = -1.1324
      Cm =  0.2398     CD =  0.12702   =>   CDf =  0.00200    CDp =  0.12502

 MRCHDU: Convergence failed at  17  side 2    Res =  0.1177E+00
 MRCHDU: Convergence failed at  18  side 2    Res =  0.9331E-01
 MRCHDU: Convergence failed at  19  side 2    Res =  0.3366E+00
 MRCHDU: Convergence failed at  20  side 2    Res =  0.3188E+00
 MRCHDU: Convergence failed at  21  side 2    Res =  0.3034E+00
 Side 1 forced transition at x/c =  1.0000   78
 Side 2  free  transition at x/c =  0.0089   10

  66   rms: 0.2597E+01   max: -.3192E+02   C at   21  2   RLX: 0.016
       a = -4.000      CL = -1.1284
      Cm =  0.2408     CD =  0.12251   =>   CDf =  0.00200    CDp =  0.12051

 MRCHDU: Convergence failed at  17  side 2    Res =  0.1397E+00
 MRCHDU: Convergence failed at  18  side 2    Res =  0.1198E+00
 MRCHDU: Convergence failed at  19  side 2    Res =  0.9966E-01
 MRCHDU: Convergence failed at  20  side 2    Res =  0.3213E+00
 MRCHDU: Convergence failed at  21  side 2    Res =  0.3056E+00
 Side 1 forced transition at x/c =  1.0000   78
 Side 2  free  transition at x/c =  0.0089   10

  67   rms: 0.2568E+01   max: -.3313E+02   C at   21  2   RLX: 0.015
       a = -4.000      CL = -1.1147
      Cm =  0.2372     CD =  0.12083   =>   CDf =  0.00200    CDp =  0.11883

 MRCHDU: Convergence failed at  17  side 2    Res =  0.1661E+00
 MRCHDU: Convergence failed at  18  side 2    Res =  0.1411E+00
 MRCHDU: Convergence failed at  19  side 2    Res =  0.1236E+00
 MRCHDU: Convergence failed at  20  side 2    Res =  0.1064E+00
 MRCHDU: Convergence failed at  21  side 2    Res =  0.9107E-01
 Side 1 forced transition at x/c =  1.0000   78
 Side 2  free  transition at x/c =  0.0089   10

  68   rms: 0.2485E+01   max: -.3115E+02   C at   21  2   RLX: 0.016
       a = -4.000      CL = -1.0848
      Cm =  0.2265     CD =  0.12089   =>   CDf =  0.00199    CDp =  0.11890

 MRCHDU: Convergence failed at  17  side 2    Res =  0.1950E+00
 MRCHDU: Convergence failed at  18  side 2    Res =  0.1693E+00
 MRCHDU: Convergence failed at  19  side 2    Res =  0.1485E+00
 MRCHDU: Convergence failed at  20  side 2    Res =  0.1310E+00
 MRCHDU: Convergence failed at  21  side 2    Res =  0.1156E+00
 Side 1 forced transition at x/c =  1.0000   78
 Side 2  free  transition at x/c =  0.0089   10

  69   rms: 0.2665E+01   max: -.3382E+02   C at   21  2   RLX: 0.015
       a = -4.000      CL = -1.0749
      Cm =  0.2245     CD =  0.11851   =>   CDf =  0.00199    CDp =  0.11652

 MRCHDU: Convergence failed at  17  side 2    Res =  0.2188E+00
 MRCHDU: Convergence failed at  18  side 2    Res =  0.1925E+00
 MRCHDU: Convergence failed at  19  side 2    Res =  0.1714E+00
 MRCHDU: Convergence failed at  20  side 2    Res =  0.1536E+00
 MRCHDU: Convergence failed at  21  side 2    Res =  0.1378E+00
 Side 1 forced transition at x/c =  1.0000   78
 Side 2  free  transition at x/c =  0.0090   10

  70   rms: 0.2712E+01   max: -.2866E+02   C at   21  2   RLX: 0.017
       a = -4.000      CL = -1.0923
      Cm =  0.2337     CD =  0.10936   =>   CDf =  0.00198    CDp =  0.10737

 MRCHDU: Convergence failed at  17  side 2    Res =  0.1895E+00
 MRCHDU: Convergence failed at  18  side 2    Res =  0.1631E+00
 MRCHDU: Convergence failed at  19  side 2    Res =  0.1416E+00
 MRCHDU: Convergence failed at  20  side 2    Res =  0.1236E+00
 MRCHDU: Convergence failed at  21  side 2    Res =  0.1078E+00
 Side 1 forced transition at x/c =  1.0000   78
 Side 2  free  transition at x/c =  0.0090   10

  71   rms: 0.2698E+01   max: -.3211E+02   C at   21  2   RLX: 0.016
       a = -4.000      CL = -1.1006
      Cm =  0.2419     CD =  0.10276   =>   CDf =  0.00198    CDp =  0.10078

 MRCHDU: Convergence failed at  17  side 2    Res =  0.2212E+00
 MRCHDU: Convergence failed at  18  side 2    Res =  0.1943E+00
 MRCHDU: Convergence failed at  19  side 2    Res =  0.1726E+00
 MRCHDU: Convergence failed at  20  side 2    Res =  0.1543E+00
 MRCHDU: Convergence failed at  21  side 2    Res =  0.1382E+00
 Side 1 forced transition at x/c =  1.0000   78
 Side 2  free  transition at x/c =  0.0090   10

  72   rms: 0.2714E+01   max: -.3120E+02   C at   20  2   RLX: 0.016
       a = -4.000      CL = -1.0971
      Cm =  0.2442     CD =  0.09758   =>   CDf =  0.00198    CDp =  0.09561

 MRCHDU: Convergence failed at  17  side 2    Res =  0.2536E+00
 MRCHDU: Convergence failed at  18  side 2    Res =  0.2261E+00
 MRCHDU: Convergence failed at  19  side 2    Res =  0.2039E+00
 MRCHDU: Convergence failed at  20  side 2    Res =  0.1851E+00
 MRCHDU: Convergence failed at  21  side 2    Res =  0.1687E+00
 Side 1 forced transition at x/c =  1.0000   78
 Side 2  free  transition at x/c =  0.0090   10

  73   rms: 0.2663E+01   max: -.2972E+02   C at   20  2   RLX: 0.017
       a = -4.000      CL = -1.0889
      Cm =  0.2445     CD =  0.09296   =>   CDf =  0.00197    CDp =  0.09098

 MRCHDU: Convergence failed at  17  side 2    Res =  0.2859E+00
 MRCHDU: Convergence failed at  18  side 2    Res =  0.2579E+00
 MRCHDU: Convergence failed at  19  side 2    Res =  0.2351E+00
 MRCHDU: Convergence failed at  20  side 2    Res =  0.2159E+00
 MRCHDU: Convergence failed at  21  side 2    Res =  0.1990E+00
 Side 1 forced transition at x/c =  1.0000   78
 Side 2  free  transition at x/c =  0.0090   10

  74   rms: 0.2581E+01   max: -.2650E+02   C at   20  2   RLX: 0.019
       a = -4.000      CL = -1.0754
      Cm =  0.2427     CD =  0.08852   =>   CDf =  0.00197    CDp =  0.08655

 MRCHDU: Convergence failed at  17  side 2    Res =  0.3198E+00
 MRCHDU: Convergence failed at  18  side 2    Res =  0.2909E+00
 MRCHDU: Convergence failed at  19  side 2    Res =  0.2678E+00
 MRCHDU: Convergence failed at  20  side 2    Res =  0.2483E+00
 MRCHDU: Convergence failed at  21  side 2    Res =  0.2311E+00
 Side 1 forced transition at x/c =  1.0000   78
 Side 2  free  transition at x/c =  0.0090   10

  75   rms: 0.2687E+01   max: -.3002E+02   C at   20  2   RLX: 0.017
       a = -4.000      CL = -1.0621
      Cm =  0.2409     CD =  0.08488   =>   CDf =  0.00196    CDp =  0.08292

 MRCHDU: Convergence failed at  17  side 2    Res =  0.3462E+00
 MRCHDU: Convergence failed at  18  side 2    Res =  0.3169E+00
 MRCHDU: Convergence failed at  19  side 2    Res =  0.2935E+00
 MRCHDU: Convergence failed at  20  side 2    Res =  0.2736E+00
 MRCHDU: Convergence failed at  21  side 2    Res =  0.2561E+00
 Side 1 forced transition at x/c =  1.0000   78
 Side 2  free  transition at x/c =  0.0090   10

  76   rms: 0.2676E+01   max: -.2343E+02   C at   19  2   RLX: 0.021
       a = -4.000      CL = -1.0440
      Cm =  0.2368     CD =  0.08121   =>   CDf =  0.00196    CDp =  0.07925

 MRCHDU: Convergence failed at  17  side 2    Res =  0.3833E+00
 MRCHDU: Convergence failed at  18  side 2    Res =  0.3531E+00
 MRCHDU: Convergence failed at  19  side 2    Res =  0.3287E+00
 MRCHDU: Convergence failed at  20  side 2    Res =  0.3081E+00
 MRCHDU: Convergence failed at  21  side 2    Res =  0.2904E+00
 Side 1 forced transition at x/c =  1.0000   78
 Side 2  free  transition at x/c =  0.0090   10

  77   rms: 0.2496E+01   max: -.2301E+02   C at   19  2   RLX: 0.022
       a = -4.000      CL = -1.0257
      Cm =  0.2329     CD =  0.07709   =>   CDf =  0.00195    CDp =  0.07513

 MRCHDU: Convergence failed at  17  side 2    Res =  0.4204E+00
 MRCHDU: Convergence failed at  18  side 2    Res =  0.3896E+00
 MRCHDU: Convergence failed at  19  side 2    Res =  0.3648E+00
 MRCHDU: Convergence failed at  20  side 2    Res =  0.3440E+00
 MRCHDU: Convergence failed at  21  side 2    Res =  0.3256E+00
 Side 1 forced transition at x/c =  1.0000   78
 Side 2  free  transition at x/c =  0.0090   10

  78   rms: 0.2286E+01   max: -.2438E+02   C at   20  2   RLX: 0.021
       a = -4.000      CL = -1.0074
      Cm =  0.2290     CD =  0.07396   =>   CDf =  0.00195    CDp =  0.07201

 MRCHDU: Convergence failed at  16  side 2    Res =  0.4281E-04
 MRCHDU: Convergence failed at  17  side 2    Res =  0.4538E+00
 MRCHDU: Convergence failed at  18  side 2    Res =  0.4224E+00
 MRCHDU: Convergence failed at  19  side 2    Res =  0.3973E+00
 MRCHDU: Convergence failed at  20  side 2    Res =  0.3761E+00
 MRCHDU: Convergence failed at  21  side 2    Res =  0.3576E+00
 Side 1 forced transition at x/c =  1.0000   78
 Side 2  free  transition at x/c =  0.0089   10

  79   rms: 0.2299E+01   max: -.2529E+02   C at   20  2   RLX: 0.020
       a = -4.000      CL = -0.9890
      Cm =  0.2249     CD =  0.07149   =>   CDf =  0.00195    CDp =  0.06954

 MRCHDU: Convergence failed at  16  side 2    Res =  0.2311E-01
 MRCHDU: Convergence failed at  17  side 2    Res =  0.4617E+00
 MRCHDU: Convergence failed at  18  side 2    Res =  0.4300E+00
 MRCHDU: Convergence failed at  19  side 2    Res =  0.4044E+00
 MRCHDU: Convergence failed at  20  side 2    Res =  0.3827E+00
 MRCHDU: Convergence failed at  21  side 2    Res =  0.3638E+00
 Side 1 forced transition at x/c =  1.0000   78
 Side 2  free  transition at x/c =  0.0089   10

  80   rms: 0.2370E+01   max: -.2581E+02   C at   20  2   RLX: 0.019
       a = -4.000      CL = -0.9686
      Cm =  0.2199     CD =  0.07057   =>   CDf =  0.00194    CDp =  0.06862

 MRCHDU: Convergence failed at  16  side 2    Res =  0.4358E-01
 MRCHDU: Convergence failed at  17  side 2    Res =  0.4685E+00
 MRCHDU: Convergence failed at  18  side 2    Res =  0.4365E+00
 MRCHDU: Convergence failed at  19  side 2    Res =  0.4106E+00
 MRCHDU: Convergence failed at  20  side 2    Res =  0.3887E+00
 MRCHDU: Convergence failed at  21  side 2    Res =  0.3695E+00
 Side 1 forced transition at x/c =  1.0000   78
 Side 2  free  transition at x/c =  0.0089   10

  81   rms: 0.3095E+01   max: -.2913E+02   C at   20  2   RLX: 0.017
       a = -4.000      CL = -0.9495
      Cm =  0.2154     CD =  0.07022   =>   CDf =  0.00194    CDp =  0.06828

 MRCHDU: Convergence failed at  16  side 2    Res =  0.5416E-01
 MRCHDU: Convergence failed at  17  side 2    Res =  0.4731E+00
 MRCHDU: Convergence failed at  18  side 2    Res =  0.4407E+00
 MRCHDU: Convergence failed at  19  side 2    Res =  0.4145E+00
 MRCHDU: Convergence failed at  20  side 2    Res =  0.3924E+00
 MRCHDU: Convergence failed at  21  side 2    Res =  0.3733E+00
 Side 1 forced transition at x/c =  1.0000   78
 Side 2  free  transition at x/c =  0.0089   10

  82   rms: 0.7810E+01   max: 0.3658E+02   C at   13  2   RLX: 0.041
       a = -4.000      CL = -0.9319
      Cm =  0.2055     CD =  0.06579   =>   CDf =  0.00194    CDp =  0.06385

 MRCHDU: Convergence failed at  20  side 2    Res =  0.1703E+00
 MRCHDU: Convergence failed at  21  side 2    Res =  0.1587E+00
 Side 1 forced transition at x/c =  1.0000   78
 Side 2  free  transition at x/c =  0.0090   10

  83   rms: 0.1408E+01   max: -.1522E+02   C at   21  2   RLX: 0.033
       a = -4.000      CL = -0.9171
      Cm =  0.2143     CD =  0.03755   =>   CDf =  0.00195    CDp =  0.03560

 MRCHDU: Convergence failed at  20  side 2    Res =  0.2117E+00
 MRCHDU: Convergence failed at  21  side 2    Res =  0.1992E+00
 Side 1 forced transition at x/c =  1.0000   78
 Side 2  free  transition at x/c =  0.0090   10

  84   rms: 0.2277E+01   max: -.1900E+02   C at   21  2   RLX: 0.026
       a = -4.000      CL = -0.8895
      Cm =  0.2077     CD =  0.03711   =>   CDf =  0.00196    CDp =  0.03515

 MRCHDU: Convergence failed at  19  side 2    Res =  0.4618E-02
 MRCHDU: Convergence failed at  20  side 2    Res =  0.2442E+00
 MRCHDU: Convergence failed at  21  side 2    Res =  0.2313E+00
 Side 1 forced transition at x/c =  1.0000   78
 Side 2  free  transition at x/c =  0.0090   10

  85   rms: 0.2654E+02   max: 0.9881E+02   C at   64  2   RLX: 0.015
       a = -4.000      CL = -0.9238
      Cm =  0.2126     CD =  0.03692   =>   CDf =  0.00196    CDp =  0.03496

 MRCHDU: Convergence failed at  21  side 2    Res =  0.1543E+00
 Side 1 forced transition at x/c =  1.0000   78
 Side 2  free  transition at x/c =  0.0090   10

  86   rms: 0.1218E+01   max: -.1335E+02   C at   21  2   RLX: 0.037
       a = -4.000      CL = -0.8857
      Cm =  0.2030     CD =  0.03401   =>   CDf =  0.00200    CDp =  0.03200

 MRCHDU: Convergence failed at  21  side 2    Res =  0.1992E+00
 Side 1 forced transition at x/c =  1.0000   78
 Side 2  free  transition at x/c =  0.0090   10

  87   rms: 0.1191E+01   max: -.1299E+02   C at   21  2   RLX: 0.038
       a = -4.000      CL = -0.8579
      Cm =  0.1958     CD =  0.03386   =>   CDf =  0.00201    CDp =  0.03185

 MRCHDU: Convergence failed at  20  side 2    Res =  0.2746E-01
 MRCHDU: Convergence failed at  21  side 2    Res =  0.2196E+00
 Side 1 forced transition at x/c =  1.0000   78
 Side 2  free  transition at x/c =  0.0090   10

  88   rms: 0.1298E+01   max: -.1482E+02   C at   21  2   RLX: 0.034
       a = -4.000      CL = -0.8334
      Cm =  0.1894     CD =  0.03503   =>   CDf =  0.00202    CDp =  0.03301

 MRCHDU: Convergence failed at  20  side 2    Res =  0.6784E-01
 MRCHDU: Convergence failed at  21  side 2    Res =  0.2252E+00
 Side 1 forced transition at x/c =  1.0000   78
 Side 2  free  transition at x/c =  0.0090   10

  89   rms: 0.1283E+01   max: -.1493E+02   C at   21  2   RLX: 0.033
       a = -4.000      CL = -0.8091
      Cm =  0.1831     CD =  0.03681   =>   CDf =  0.00203    CDp =  0.03478

 MRCHDU: Convergence failed at  20  side 2    Res =  0.1106E+00
 MRCHDU: Convergence failed at  21  side 2    Res =  0.9813E-01
 Side 1 forced transition at x/c =  1.0000   78
 Side 2  free  transition at x/c =  0.0090   10

  90   rms: 0.1260E+01   max: -.1446E+02   C at   21  2   RLX: 0.035
       a = -4.000      CL = -0.7838
      Cm =  0.1763     CD =  0.04046   =>   CDf =  0.00207    CDp =  0.03839

 MRCHDU: Convergence failed at  19  side 2    Res =  0.1887E+00
 MRCHDU: Convergence failed at  20  side 2    Res =  0.1761E+00
 Side 1 forced transition at x/c =  1.0000   79
 Side 2  free  transition at x/c =  0.0090    9

  91   rms: 0.2505E+01   max: -.2840E+02   D at    2  1   RLX: 0.018
       a = -4.000      CL = -0.7742
      Cm =  0.1738     CD =  0.04263   =>   CDf =  0.00205    CDp =  0.04058

 MRCHDU: Convergence failed at  19  side 2    Res =  0.2189E+00
 MRCHDU: Convergence failed at  20  side 2    Res =  0.2061E+00
 Side 1 forced transition at x/c =  1.0000   79
 Side 2  free  transition at x/c =  0.0090    9

  92   rms: 0.2295E+01   max: -.2125E+02   C at   20  2   RLX: 0.024
       a = -4.000      CL = -0.7555
      Cm =  0.1695     CD =  0.04131   =>   CDf =  0.00205    CDp =  0.03926

 MRCHDU: Convergence failed at  18  side 2    Res =  0.2763E-02
 MRCHDU: Convergence failed at  19  side 2    Res =  0.2528E+00
 MRCHDU: Convergence failed at  20  side 2    Res =  0.2394E+00
 Side 1 forced transition at x/c =  1.0000   79
 Side 2  free  transition at x/c =  0.0090    9

  93   rms: 0.3366E+01   max: -.2226E+02   C at   20  2   RLX: 0.022
       a = -4.000      CL = -0.7352
      Cm =  0.1651     CD =  0.04009   =>   CDf =  0.00205    CDp =  0.03805

 MRCHDU: Convergence failed at  18  side 2    Res =  0.2907E-01
 MRCHDU: Convergence failed at  19  side 2    Res =  0.2582E+00
 MRCHDU: Convergence failed at  20  side 2    Res =  0.2447E+00
 Side 1 forced transition at x/c =  1.0000   79
 Side 2  free  transition at x/c =  0.0090    9

  94   rms: 0.7881E+01   max: -.3141E+02   C at   20  2   RLX: 0.016
       a = -4.000      CL = -0.7141
      Cm =  0.1605     CD =  0.04090   =>   CDf =  0.00205    CDp =  0.03885

 MRCHDU: Convergence failed at  18  side 2    Res =  0.4539E-01
 MRCHDU: Convergence failed at  19  side 2    Res =  0.2620E+00
 MRCHDU: Convergence failed at  20  side 2    Res =  0.2485E+00
 Side 1 forced transition at x/c =  1.0000   79
 Side 2  free  transition at x/c =  0.0090    9

  95   rms: 0.3511E+02   max: 0.1379E+03   C at   57  2   RLX: 0.011
       a = -4.000      CL = -0.7378
      Cm =  0.1638     CD =  0.04350   =>   CDf =  0.00205    CDp =  0.04145

 MRCHDU: Convergence failed at  19  side 2    Res =  0.2380E+00
 MRCHDU: Convergence failed at  20  side 2    Res =  0.2256E+00
 Side 1 forced transition at x/c =  1.0000   79
 Side 2  free  transition at x/c =  0.0090    9

  96   rms: 0.2808E+01   max: -.2245E+02   C at   20  2   RLX: 0.022
       a = -4.000      CL = -0.7188
      Cm =  0.1595     CD =  0.04190   =>   CDf =  0.00205    CDp =  0.03985

 MRCHDU: Convergence failed at  18  side 2    Res =  0.1736E-01
 MRCHDU: Convergence failed at  19  side 2    Res =  0.2572E+00
 MRCHDU: Convergence failed at  20  side 2    Res =  0.2439E+00
 Side 1 forced transition at x/c =  1.0000   79
 Side 2  free  transition at x/c =  0.0090    9

  97   rms: 0.3986E+01   max: -.2500E+02   C at   20  2   RLX: 0.020
       a = -4.000      CL = -0.7015
      Cm =  0.1557     CD =  0.04158   =>   CDf =  0.00205    CDp =  0.03952

 MRCHDU: Convergence failed at  18  side 2    Res =  0.4748E-01
 MRCHDU: Convergence failed at  19  side 2    Res =  0.2629E+00
 MRCHDU: Convergence failed at  20  side 2    Res =  0.2493E+00
 Side 1 forced transition at x/c =  1.0000   79
 Side 2  free  transition at x/c =  0.0091    9

  98   rms: 0.7676E+01   max: -.3144E+02   C at   21  2   RLX: 0.016
       a = -4.000      CL = -0.6827
      Cm =  0.1516     CD =  0.04244   =>   CDf =  0.00206    CDp =  0.04038

 MRCHDU: Convergence failed at  18  side 2    Res =  0.6687E-01
 MRCHDU: Convergence failed at  19  side 2    Res =  0.2675E+00
 MRCHDU: Convergence failed at  20  side 2    Res =  0.2538E+00
 Side 1 forced transition at x/c =  1.0000   79
 Side 2  free  transition at x/c =  0.0091    9

  99   rms: 0.1945E+04   max: 0.7695E+04   C at   52  2   RLX: 0.000
       a = -4.000      CL = -0.7093
      Cm =  0.1555     CD =  0.04499   =>   CDf =  0.00206    CDp =  0.04294

 MRCHDU: Convergence failed at  19  side 2    Res =  0.1645E+00
 MRCHDU: Convergence failed at  20  side 2    Res =  0.1530E+00
 Side 1 forced transition at x/c =  1.0000   79
 Side 2  free  transition at x/c =  0.0091    9

 100   rms: 0.2520E+01   max: -.2130E+02   C at   20  2   RLX: 0.023
       a = -4.000      CL = -0.6911
      Cm =  0.1515     CD =  0.04383   =>   CDf =  0.00206    CDp =  0.04178

 MRCHDU: Convergence failed at  19  side 2    Res =  0.1984E+00
 MRCHDU: Convergence failed at  20  side 2    Res =  0.1855E+00
 Side 1 forced transition at x/c =  1.0000   79
 Side 2  free  transition at x/c =  0.0091    9

 101   rms: 0.3701E+01   max: -.2433E+02   C at   20  2   RLX: 0.021
       a = -4.000      CL = -0.6750
      Cm =  0.1483     CD =  0.04233   =>   CDf =  0.00206    CDp =  0.04027

 MRCHDU: Convergence failed at  18  side 2    Res =  0.1794E-01
 MRCHDU: Convergence failed at  19  side 2    Res =  0.2602E+00
 MRCHDU: Convergence failed at  20  side 2    Res =  0.2467E+00
 Side 1 forced transition at x/c =  1.0000   79
 Side 2  free  transition at x/c =  0.0091    9

 102   rms: 0.6195E+01   max: -.2935E+02   C at   20  2   RLX: 0.017
       a = -4.000      CL = -0.6569
      Cm =  0.1446     CD =  0.04136   =>   CDf =  0.00206    CDp =  0.03930

 MRCHDU: Convergence failed at  18  side 2    Res =  0.6678E-01
 MRCHDU: Convergence failed at  19  side 2    Res =  0.2686E+00
 MRCHDU: Convergence failed at  20  side 2    Res =  0.2548E+00
 Side 1 forced transition at x/c =  1.0000   79
 Side 2  free  transition at x/c =  0.0091    9

 103   rms: 0.6953E+02   max: -.2784E+03   C at   49  2   RLX: 0.002
       a = -4.000      CL = -0.6444
      Cm =  0.1422     CD =  0.04346   =>   CDf =  0.00206    CDp =  0.04140

 MRCHDU: Convergence failed at  19  side 2    Res =  0.2110E+00
 MRCHDU: Convergence failed at  20  side 2    Res =  0.1985E+00
 Side 1 forced transition at x/c =  1.0000   79
 Side 2  free  transition at x/c =  0.0091   10

 104   rms: 0.6434E+01   max: 0.2742E+02   C at   61  2   RLX: 0.055
       a = -4.000      CL = -0.6563
      Cm =  0.1417     CD =  0.04432   =>   CDf =  0.00206    CDp =  0.04226

 MRCHDU: Convergence failed at  19  side 2    Res =  0.2067E+00
 MRCHDU: Convergence failed at  20  side 2    Res =  0.1923E+00
 Side 1 forced transition at x/c =  1.0000   79
 Side 2  free  transition at x/c =  0.0093   10

 105   rms: 0.1530E+01   max: -.1941E+02   C at   20  2   RLX: 0.026
       a = -4.000      CL = -0.6469
      Cm =  0.1389     CD =  0.04387   =>   CDf =  0.00207    CDp =  0.04180

 MRCHDU: Convergence failed at  19  side 2    Res =  0.2522E+00
 MRCHDU: Convergence failed at  20  side 2    Res =  0.2386E+00
 Side 1 forced transition at x/c =  1.0000   79
 Side 2  free  transition at x/c =  0.0093   10

 106   rms: 0.1639E+01   max: -.2015E+02   C at   20  2   RLX: 0.025
       a = -4.000      CL = -0.6388
      Cm =  0.1369     CD =  0.04200   =>   CDf =  0.00207    CDp =  0.03992

 MRCHDU: Convergence failed at  18  side 2    Res =  0.3281E-01
 MRCHDU: Convergence failed at  19  side 2    Res =  0.2636E+00
 MRCHDU: Convergence failed at  20  side 2    Res =  0.2498E+00
 Side 1 forced transition at x/c =  1.0000   79
 Side 2  free  transition at x/c =  0.0093   10

 107   rms: 0.1631E+01   max: -.1988E+02   C at   20  2   RLX: 0.025
       a = -4.000      CL = -0.6313
      Cm =  0.1343     CD =  0.04269   =>   CDf =  0.00208    CDp =  0.04061

 MRCHDU: Convergence failed at  18  side 2    Res =  0.7127E-01
 MRCHDU: Convergence failed at  19  side 2    Res =  0.2699E+00
 MRCHDU: Convergence failed at  20  side 2    Res =  0.2558E+00
 Side 1 forced transition at x/c =  1.0000   79
 Side 2  free  transition at x/c =  0.0093   10

 108   rms: 0.1707E+01   max: -.1867E+02   C at   20  2   RLX: 0.027
       a = -4.000      CL = -0.6243
      Cm =  0.1317     CD =  0.04357   =>   CDf =  0.00208    CDp =  0.04149

 MRCHDU: Convergence failed at  18  side 2    Res =  0.1094E+00
 MRCHDU: Convergence failed at  19  side 2    Res =  0.9365E-01
 MRCHDU: Convergence failed at  20  side 2    Res =  0.2595E+00
 Side 1 forced transition at x/c =  1.0000   79
 Side 2  free  transition at x/c =  0.0094   10

 109   rms: 0.1848E+01   max: -.1812E+02   C at   20  2   RLX: 0.028
       a = -4.000      CL = -0.6170
      Cm =  0.1287     CD =  0.04545   =>   CDf =  0.00208    CDp =  0.04337

 MRCHDU: Convergence failed at  18  side 2    Res =  0.1469E+00
 MRCHDU: Convergence failed at  19  side 2    Res =  0.1344E+00
 MRCHDU: Convergence failed at  20  side 2    Res =  0.1203E+00
 Side 1 forced transition at x/c =  1.0000   79
 Side 2  free  transition at x/c =  0.0094   10

 110   rms: 0.2985E+01   max: -.1878E+02   C at   19  2   RLX: 0.027
       a = -4.000      CL = -0.6066
      Cm =  0.1233     CD =  0.05331   =>   CDf =  0.00209    CDp =  0.05123

 MRCHDU: Convergence failed at  18  side 2    Res =  0.1937E+00
 MRCHDU: Convergence failed at  19  side 2    Res =  0.1774E+00
 MRCHDU: Convergence failed at  20  side 2    Res =  0.1635E+00
 Side 1 forced transition at x/c =  1.0000   79
 Side 2  free  transition at x/c =  0.0094   10

 111   rms: 0.2218E+01   max: -.2083E+02   C at   20  2   RLX: 0.024
       a = -4.000      CL = -0.6052
      Cm =  0.1227     CD =  0.04983   =>   CDf =  0.00208    CDp =  0.04775

 MRCHDU: Convergence failed at  18  side 2    Res =  0.2390E+00
 MRCHDU: Convergence failed at  19  side 2    Res =  0.2226E+00
 MRCHDU: Convergence failed at  20  side 2    Res =  0.2082E+00
 Side 1 forced transition at x/c =  1.0000   79
 Side 2  free  transition at x/c =  0.0094   10

 112   rms: 0.2160E+01   max: -.2254E+02   C at   20  2   RLX: 0.022
       a = -4.000      CL = -0.6057
      Cm =  0.1224     CD =  0.04692   =>   CDf =  0.00209    CDp =  0.04484

 MRCHDU: Convergence failed at  18  side 2    Res =  0.2850E+00
 MRCHDU: Convergence failed at  19  side 2    Res =  0.2681E+00
 MRCHDU: Convergence failed at  20  side 2    Res =  0.2535E+00
 Side 1 forced transition at x/c =  1.0000   79
 Side 2  free  transition at x/c =  0.0095   10

 113   rms: 0.2036E+01   max: -.2524E+02   C at   20  2   RLX: 0.020
       a = -4.000      CL = -0.6067
      Cm =  0.1225     CD =  0.04420   =>   CDf =  0.00209    CDp =  0.04211

 MRCHDU: Convergence failed at  17  side 2    Res =  0.1976E-01
 MRCHDU: Convergence failed at  18  side 2    Res =  0.3101E+00
 MRCHDU: Convergence failed at  19  side 2    Res =  0.2928E+00
 MRCHDU: Convergence failed at  20  side 2    Res =  0.2781E+00
 Side 1 forced transition at x/c =  1.0000   79
 Side 2  free  transition at x/c =  0.0095   10

 114   rms: 0.2360E+01   max: -.2785E+02   C at   20  2   RLX: 0.018
       a = -4.000      CL = -0.6080
      Cm =  0.1222     CD =  0.04323   =>   CDf =  0.00209    CDp =  0.04113

 MRCHDU: Convergence failed at  17  side 2    Res =  0.5762E-01
 MRCHDU: Convergence failed at  18  side 2    Res =  0.3178E+00
 MRCHDU: Convergence failed at  19  side 2    Res =  0.3002E+00
 MRCHDU: Convergence failed at  20  side 2    Res =  0.2850E+00
 Side 1 forced transition at x/c =  1.0000   79
 Side 2  free  transition at x/c =  0.0095   10

 115   rms: 0.3166E+01   max: -.3168E+02   C at   20  2   RLX: 0.016
       a = -4.000      CL = -0.6090
      Cm =  0.1217     CD =  0.04321   =>   CDf =  0.00210    CDp =  0.04111

 MRCHDU: Convergence failed at  17  side 2    Res =  0.9466E-01
 MRCHDU: Convergence failed at  18  side 2    Res =  0.3254E+00
 MRCHDU: Convergence failed at  19  side 2    Res =  0.3075E+00
 MRCHDU: Convergence failed at  20  side 2    Res =  0.2919E+00
 Side 1 forced transition at x/c =  1.0000   79
 Side 2  free  transition at x/c =  0.0096   10

 116   rms: 0.4875E+01   max: -.3596E+02   C at   20  2   RLX: 0.014
       a = -4.000      CL = -0.6113
      Cm =  0.1217     CD =  0.04321   =>   CDf =  0.00211    CDp =  0.04110

 MRCHDU: Convergence failed at  17  side 2    Res =  0.1307E+00
 MRCHDU: Convergence failed at  18  side 2    Res =  0.1108E+00
 MRCHDU: Convergence failed at  19  side 2    Res =  0.9410E-01
 MRCHDU: Convergence failed at  20  side 2    Res =  0.2942E+00
 Side 1 forced transition at x/c =  1.0000   79
 Side 2  free  transition at x/c =  0.0096   10

 117   rms: 0.1132E+02   max: -.5682E+02   C at   20  2   RLX: 0.009
       a = -4.000      CL = -0.6162
      Cm =  0.1223     CD =  0.04373   =>   CDf =  0.00212    CDp =  0.04161

 MRCHDU: Convergence failed at  17  side 2    Res =  0.1597E+00
 MRCHDU: Convergence failed at  18  side 2    Res =  0.1401E+00
 MRCHDU: Convergence failed at  19  side 2    Res =  0.1290E+00
 MRCHDU: Convergence failed at  20  side 2    Res =  0.1143E+00
 Side 1 forced transition at x/c =  1.0000   79
 Side 2  free  transition at x/c =  0.0096   10

 118   rms: 0.3512E+01   max: -.3617E+02   C at   20  2   RLX: 0.014
       a = -4.000      CL = -0.6098
      Cm =  0.1175     CD =  0.05442   =>   CDf =  0.00214    CDp =  0.05228

 MRCHDU: Convergence failed at  17  side 2    Res =  0.2006E+00
 MRCHDU: Convergence failed at  18  side 2    Res =  0.1803E+00
 MRCHDU: Convergence failed at  19  side 2    Res =  0.1632E+00
 MRCHDU: Convergence failed at  20  side 2    Res =  0.1483E+00
 Side 1 forced transition at x/c =  1.0000   79
 Side 2  free  transition at x/c =  0.0096   10

 119   rms: 0.2417E+01   max: -.2899E+02   C at   19  2   RLX: 0.017
       a = -4.000      CL = -0.6123
      Cm =  0.1177     CD =  0.05169   =>   CDf =  0.00215    CDp =  0.04954

 MRCHDU: Convergence failed at  17  side 2    Res =  0.2447E+00
 MRCHDU: Convergence failed at  18  side 2    Res =  0.2237E+00
 MRCHDU: Convergence failed at  19  side 2    Res =  0.2060E+00
 MRCHDU: Convergence failed at  20  side 2    Res =  0.1907E+00
 Side 1 forced transition at x/c =  1.0000   79
 Side 2  free  transition at x/c =  0.0097   10

 120   rms: 0.3917E+01   max: -.3623E+02   C at   20  2   RLX: 0.014
       a = -4.000      CL = -0.6166
      Cm =  0.1188     CD =  0.04874   =>   CDf =  0.00216    CDp =  0.04658

 MRCHDU: Convergence failed at  17  side 2    Res =  0.2875E+00
 MRCHDU: Convergence failed at  18  side 2    Res =  0.2661E+00
 MRCHDU: Convergence failed at  19  side 2    Res =  0.2482E+00
 MRCHDU: Convergence failed at  20  side 2    Res =  0.2326E+00
 Side 1 forced transition at x/c =  1.0000   79
 Side 2  free  transition at x/c =  0.0097   10

 121   rms: 0.6466E+01   max: -.4570E+02   C at   20  2   RLX: 0.011
       a = -4.000      CL = -0.6217
      Cm =  0.1201     CD =  0.04626   =>   CDf =  0.00217    CDp =  0.04409

 MRCHDU: Convergence failed at  17  side 2    Res =  0.3282E+00
 MRCHDU: Convergence failed at  18  side 2    Res =  0.3065E+00
 MRCHDU: Convergence failed at  19  side 2    Res =  0.2883E+00
 MRCHDU: Convergence failed at  20  side 2    Res =  0.2723E+00
 Side 1 forced transition at x/c =  1.0000   79
 Side 2  free  transition at x/c =  0.0097   10

 122   rms: 0.5839E+01   max: -.4270E+02   C at   20  2   RLX: 0.012
       a = -4.000      CL = -0.6257
      Cm =  0.1208     CD =  0.04443   =>   CDf =  0.00218    CDp =  0.04226

 MRCHDU: Convergence failed at  16  side 2    Res =  0.5537E-03
 MRCHDU: Convergence failed at  17  side 2    Res =  0.3687E+00
 MRCHDU: Convergence failed at  18  side 2    Res =  0.3464E+00
 MRCHDU: Convergence failed at  19  side 2    Res =  0.3277E+00
 MRCHDU: Convergence failed at  20  side 2    Res =  0.3114E+00
 Side 1 forced transition at x/c =  1.0000   79
 Side 2  free  transition at x/c =  0.0098   10

 123   rms: 0.2518E+01   max: -.2804E+02   C at   19  2   RLX: 0.018
       a = -4.000      CL = -0.6272
      Cm =  0.1206     CD =  0.04279   =>   CDf =  0.00219    CDp =  0.04060

 MRCHDU: Convergence failed at  16  side 2    Res =  0.3657E-01
 MRCHDU: Convergence failed at  17  side 2    Res =  0.3778E+00
 MRCHDU: Convergence failed at  18  side 2    Res =  0.3548E+00
 MRCHDU: Convergence failed at  19  side 2    Res =  0.3354E+00
 MRCHDU: Convergence failed at  20  side 2    Res =  0.3185E+00
 Side 1 forced transition at x/c =  1.0000   79
 Side 2  free  transition at x/c =  0.0098   10

 124   rms: 0.3391E+01   max: -.3259E+02   C at   19  2   RLX: 0.015
       a = -4.000      CL = -0.6286
      Cm =  0.1201     CD =  0.04303   =>   CDf =  0.00219    CDp =  0.04083

 MRCHDU: Convergence failed at  16  side 2    Res =  0.7125E-01
 MRCHDU: Convergence failed at  17  side 2    Res =  0.3870E+00
 MRCHDU: Convergence failed at  18  side 2    Res =  0.3634E+00
 MRCHDU: Convergence failed at  19  side 2    Res =  0.3437E+00
 MRCHDU: Convergence failed at  20  side 2    Res =  0.3264E+00
 Side 1 forced transition at x/c =  1.0000   79
 Side 2  free  transition at x/c =  0.0098   10
 idif Ue xi dudx           1  0.28132445      2.56395340E-03   109.72292    
 Uenew xinew           2  5.23199633E-05  4.76837158E-07

 125   rms: 0.8152E+01   max: 0.3902E+02   C at   45  2   RLX: 0.038
       a = -4.000      CL = -0.6141
      Cm =  0.1131     CD =  0.04412   =>   CDf =  0.00217    CDp =  0.04195

 MRCHDU: Convergence failed at  17  side 2    Res =  0.8614E-01
 MRCHDU: Convergence failed at  18  side 2    Res =  0.3902E+00
 MRCHDU: Convergence failed at  19  side 2    Res =  0.3661E+00
 MRCHDU: Convergence failed at  20  side 2    Res =  0.3454E+00
 MRCHDU: Convergence failed at  21  side 2    Res =  0.3277E+00
 Side 1 forced transition at x/c =  1.0000   78
 Side 2  free  transition at x/c =  0.0099   11

 126   rms: 0.1035E+02   max: -.1789E+03   D at    2  2   RLX: 0.003
       a = -4.000      CL = -0.6150
      Cm =  0.1132     CD =  0.04349   =>   CDf =  0.00220    CDp =  0.04129

 MRCHDU: Convergence failed at  16  side 2    Res =  0.9682E-01
 MRCHDU: Convergence failed at  17  side 2    Res =  0.3949E+00
 MRCHDU: Convergence failed at  18  side 2    Res =  0.3720E+00
 MRCHDU: Convergence failed at  19  side 2    Res =  0.3525E+00
 MRCHDU: Convergence failed at  20  side 2    Res =  0.3354E+00
 Side 1 forced transition at x/c =  1.0000   79
 Side 2  free  transition at x/c =  0.0099   10
 idif Ue xi dudx           1  0.28541547      2.56478786E-03   111.28230    
 Uenew xinew           2  1.45924714E-04  1.31130219E-06

 127   rms: 0.1010E+02   max: 0.1740E+03   T at    2  1   RLX: 0.007
       a = -4.000      CL = -0.6117
      Cm =  0.1120     CD =  0.04335   =>   CDf =  0.00216    CDp =  0.04120

 MRCHDU: Convergence failed at  17  side 2    Res =  0.1131E+00
 MRCHDU: Convergence failed at  18  side 2    Res =  0.8642E-01
 MRCHDU: Convergence failed at  19  side 2    Res =  0.3717E+00
 MRCHDU: Convergence failed at  20  side 2    Res =  0.3520E+00
 MRCHDU: Convergence failed at  21  side 2    Res =  0.3346E+00
 Side 1 forced transition at x/c =  1.0000   78
 Side 2  free  transition at x/c =  0.0099   11

 128   rms: 0.1015E+02   max: -.1692E+03   T at    2  2   RLX: 0.003
       a = -4.000      CL = -0.6120
      Cm =  0.1118     CD =  0.04363   =>   CDf =  0.00220    CDp =  0.04143

 MRCHDU: Convergence failed at  16  side 2    Res =  0.1135E+00
 MRCHDU: Convergence failed at  17  side 2    Res =  0.9645E-01
 MRCHDU: Convergence failed at  18  side 2    Res =  0.3733E+00
[...]
 MRCHDU: Convergence failed at  97  side 2    Res =  0.1007E-01
 Side 1  free  transition at x/c =  0.5449   49
 Side 2  free  transition at x/c =  0.0142    7

  47   rms: 0.1669E+03   max: -.7603E+03   C at   65  2   RLX: 0.001
       a = 10.250      CL =  0.3805
      Cm = -0.0359     CD =  0.05258   =>   CDf =  0.00343    CDp =  0.04916

 MRCHDU: Convergence failed at  82  side 2    Res =  0.6977E-04
 MRCHDU: Convergence failed at  97  side 2    Res =  0.1017E-01
 Side 1  free  transition at x/c =  0.5445   49
 Side 2  free  transition at x/c =  0.0142    7

  48   rms: 0.1978E+03   max: -.1044E+04   C at   56  2   RLX: 0.000
       a = 10.250      CL =  0.3807
      Cm = -0.0359     CD =  0.05234   =>   CDf =  0.00343    CDp =  0.04892

 MRCHDU: Convergence failed at  88  side 2    Res =  0.1098E-04
 MRCHDU: Convergence failed at  97  side 2    Res =  0.2383E-01
 Side 1  free  transition at x/c =  0.5442   49
 Side 2  free  transition at x/c =  0.0142    7

  49   rms: 0.1946E+03   max: -.8876E+03   C at   73  2   RLX: 0.001
       a = 10.250      CL =  0.3810
      Cm = -0.0359     CD =  0.05188   =>   CDf =  0.00343    CDp =  0.04845

 MRCHDU: Convergence failed at  82  side 2    Res =  0.5764E-04
 MRCHDU: Convergence failed at  97  side 2    Res =  0.1014E-01
 Side 1  free  transition at x/c =  0.5439   49
 Side 2  free  transition at x/c =  0.0142    7

  50   rms: 0.2280E+03   max: -.1045E+04   C at   56  2   RLX: 0.000
       a = 10.250      CL =  0.3813
      Cm = -0.0359     CD =  0.05211   =>   CDf =  0.00343    CDp =  0.04868

 MRCHDU: Convergence failed at  52  side 2    Res =  0.1990E-01
 MRCHDU: Convergence failed at  57  side 2    Res =  0.3134E-02
 MRCHDU: Convergence failed at  82  side 2    Res =  0.4513E-04
 MRCHDU: Convergence failed at  97  side 2    Res =  0.1020E-01
 Side 1  free  transition at x/c =  0.5437   49
 Side 2  free  transition at x/c =  0.0142    7

  51   rms: 0.2615E+03   max: -.1190E+04   C at   56  2   RLX: 0.000
       a = 10.250      CL =  0.3815
      Cm = -0.0359     CD =  0.05210   =>   CDf =  0.00343    CDp =  0.04867

 MRCHDU: Convergence failed at  50  side 2    Res =  0.2311E-01
 MRCHDU: Convergence failed at  51  side 2    Res =  0.2395E-01
 MRCHDU: Convergence failed at  52  side 2    Res =  0.2535E-01
 MRCHDU: Convergence failed at  57  side 2    Res =  0.3139E-02
 MRCHDU: Convergence failed at  82  side 2    Res =  0.4325E-04
 MRCHDU: Convergence failed at  97  side 2    Res =  0.1025E-01
 Side 1  free  transition at x/c =  0.5434   49
 Side 2  free  transition at x/c =  0.0142    7

  52   rms: 0.2350E+03   max: -.1071E+04   C at   79  2   RLX: 0.000
       a = 10.250      CL =  0.3818
      Cm = -0.0359     CD =  0.05207   =>   CDf =  0.00343    CDp =  0.04864

 MRCHDU: Convergence failed at  47  side 2    Res =  0.1540E-01
 MRCHDU: Convergence failed at  48  side 2    Res =  0.1623E-01
 MRCHDU: Convergence failed at  49  side 2    Res =  0.1939E-01
 MRCHDU: Convergence failed at  50  side 2    Res =  0.2407E-01
 MRCHDU: Convergence failed at  51  side 2    Res =  0.2396E-01
 MRCHDU: Convergence failed at  52  side 2    Res =  0.2536E-01
 MRCHDU: Convergence failed at  57  side 2    Res =  0.3143E-02
 MRCHDU: Convergence failed at  82  side 2    Res =  0.4936E-04
 MRCHDU: Convergence failed at  97  side 2    Res =  0.1033E-01
 Side 1  free  transition at x/c =  0.5432   49
 Side 2  free  transition at x/c =  0.0142    7

  53   rms: 0.2427E+03   max: -.1111E+04   C at   79  2   RLX: 0.000
       a = 10.250      CL =  0.3820
      Cm = -0.0359     CD =  0.05206   =>   CDf =  0.00343    CDp =  0.04863

 MRCHDU: Convergence failed at  47  side 2    Res =  0.6686E-01
 MRCHDU: Convergence failed at  48  side 2    Res =  0.1625E-01
 MRCHDU: Convergence failed at  49  side 2    Res =  0.1940E-01
 MRCHDU: Convergence failed at  50  side 2    Res =  0.2408E-01
 MRCHDU: Convergence failed at  51  side 2    Res =  0.2396E-01
 MRCHDU: Convergence failed at  52  side 2    Res =  0.2535E-01
 MRCHDU: Convergence failed at  57  side 2    Res =  0.3151E-02
 MRCHDU: Convergence failed at  82  side 2    Res =  0.4717E-04
 MRCHDU: Convergence failed at  97  side 2    Res =  0.1039E-01
 Side 1  free  transition at x/c =  0.5429   49
 Side 2  free  transition at x/c =  0.0142    7

  54   rms: 0.3404E+03   max: -.1553E+04   C at   56  2   RLX: 0.000
       a = 10.250      CL =  0.3822
      Cm = -0.0360     CD =  0.05208   =>   CDf =  0.00343    CDp =  0.04864

 MRCHDU: Convergence failed at  47  side 2    Res =  0.1189E+00
 MRCHDU: Convergence failed at  50  side 2    Res =  0.1793E-01
 MRCHDU: Convergence failed at  51  side 2    Res =  0.2367E-01
 MRCHDU: Convergence failed at  52  side 2    Res =  0.2507E-01
 MRCHDU: Convergence failed at  57  side 2    Res =  0.3166E-02
 MRCHDU: Convergence failed at  82  side 2    Res =  0.2316E-04
 MRCHDU: Convergence failed at  97  side 2    Res =  0.1044E-01
 Side 1  free  transition at x/c =  0.5428   49
 Side 2  free  transition at x/c =  0.0142    7

  55   rms: 0.4343E+03   max: -.1978E+04   C at   80  2   RLX: 0.000
       a = 10.250      CL =  0.3824
      Cm = -0.0360     CD =  0.05254   =>   CDf =  0.00343    CDp =  0.04911

 MRCHDU: Convergence failed at  46  side 2    Res =  0.9683E-02
 MRCHDU: Convergence failed at  47  side 2    Res =  0.2026E+00
 MRCHDU: Convergence failed at  48  side 2    Res =  0.1587E-01
 MRCHDU: Convergence failed at  49  side 2    Res =  0.1919E-01
 MRCHDU: Convergence failed at  50  side 2    Res =  0.2381E-01
 MRCHDU: Convergence failed at  51  side 2    Res =  0.2369E-01
 MRCHDU: Convergence failed at  52  side 2    Res =  0.2514E-01
 MRCHDU: Convergence failed at  57  side 2    Res =  0.3184E-02
 MRCHDU: Convergence failed at  82  side 2    Res =  0.2619E-04
 MRCHDU: Convergence failed at  97  side 2    Res =  0.1047E-01
 Side 1  free  transition at x/c =  0.5426   49
 Side 2  free  transition at x/c =  0.0142    7

  56   rms: 0.4070E+03   max: -.1850E+04   C at   64  2   RLX: 0.000
       a = 10.250      CL =  0.3825
      Cm = -0.0360     CD =  0.05253   =>   CDf =  0.00343    CDp =  0.04909

 MRCHDU: Convergence failed at  46  side 2    Res =  0.6034E-01
 MRCHDU: Convergence failed at  47  side 2    Res =  0.2036E+00
 MRCHDU: Convergence failed at  48  side 2    Res =  0.1589E-01
 MRCHDU: Convergence failed at  49  side 2    Res =  0.1920E-01
 MRCHDU: Convergence failed at  50  side 2    Res =  0.2382E-01
 MRCHDU: Convergence failed at  51  side 2    Res =  0.2370E-01
 MRCHDU: Convergence failed at  52  side 2    Res =  0.2519E-01
 MRCHDU: Convergence failed at  57  side 2    Res =  0.3191E-02
 MRCHDU: Convergence failed at  82  side 2    Res =  0.2744E-04
 MRCHDU: Convergence failed at  97  side 2    Res =  0.1051E-01
 Side 1  free  transition at x/c =  0.5425   49
 Side 2  free  transition at x/c =  0.0142    7

  57   rms: 0.4299E+03   max: -.1958E+04   C at   56  2   RLX: 0.000
       a = 10.250      CL =  0.3826
      Cm = -0.0360     CD =  0.05251   =>   CDf =  0.00344    CDp =  0.04907

 MRCHDU: Convergence failed at  46  side 2    Res =  0.1110E+00
 MRCHDU: Convergence failed at  47  side 2    Res =  0.1059E+00
 MRCHDU: Convergence failed at  82  side 2    Res =  0.1535E-04
 MRCHDU: Convergence failed at  97  side 2    Res =  0.1055E-01
 Side 1  free  transition at x/c =  0.5424   49
 Side 2  free  transition at x/c =  0.0142    7

  58   rms: 0.1209E+05   max: -.5605E+05   C at   69  2   RLX: 0.000
       a = 10.250      CL =  0.3827
      Cm = -0.0360     CD =  0.05305   =>   CDf =  0.00344    CDp =  0.04961

 MRCHDU: Convergence failed at  46  side 2    Res =  0.5537E+01
 MRCHDU: Convergence failed at  47  side 2    Res =  0.5409E+01
 MRCHDU: Convergence failed at  88  side 2    Res =  0.1116E-04
 MRCHDU: Convergence failed at  97  side 2    Res =  0.2522E-01
 Side 1  free  transition at x/c =  0.5424   49
 Side 2  free  transition at x/c =  0.0142    7

  59   rms: 0.1437E+05   max: -.6659E+05   C at   77  2   RLX: 0.000
       a = 10.250      CL =  0.3827
      Cm = -0.0360     CD =  0.05274   =>   CDf =  0.00344    CDp =  0.04930

 MRCHDU: Convergence failed at  46  side 2    Res =  0.5565E+01
 MRCHDU: Convergence failed at  47  side 2    Res =  0.5436E+01
 MRCHDU: Convergence failed at  88  side 2    Res =  0.1115E-04
 MRCHDU: Convergence failed at  97  side 2    Res =  0.2522E-01
 Side 1  free  transition at x/c =  0.5424   49
 Side 2  free  transition at x/c =  0.0142    7

  60   rms: 0.1383E+05   max: -.6407E+05   C at   64  2   RLX: 0.000
       a = 10.250      CL =  0.3827
      Cm = -0.0360     CD =  0.05274   =>   CDf =  0.00344    CDp =  0.04930

 MRCHDU: Convergence failed at  46  side 2    Res =  0.5592E+01
 MRCHDU: Convergence failed at  47  side 2    Res =  0.5462E+01
 MRCHDU: Convergence failed at  88  side 2    Res =  0.1120E-04
 MRCHDU: Convergence failed at  97  side 2    Res =  0.2522E-01
 Side 1  free  transition at x/c =  0.5424   49
 Side 2  free  transition at x/c =  0.0142    7

  61   rms: 0.1060E+05   max: -.4910E+05   C at   71  2   RLX: 0.000
       a = 10.250      CL =  0.3827
      Cm = -0.0360     CD =  0.05274   =>   CDf =  0.00344    CDp =  0.04930

 MRCHDU: Convergence failed at  46  side 2    Res =  0.5620E+01
 MRCHDU: Convergence failed at  47  side 2    Res =  0.5490E+01
 MRCHDU: Convergence failed at  88  side 2    Res =  0.1121E-04
 MRCHDU: Convergence failed at  97  side 2    Res =  0.2523E-01
 Side 1  free  transition at x/c =  0.5424   49
 Side 2  free  transition at x/c =  0.0142    7

  62   rms: 0.1167E+05   max: -.5403E+05   C at   59  2   RLX: 0.000
       a = 10.250      CL =  0.3827
      Cm = -0.0360     CD =  0.05274   =>   CDf =  0.00344    CDp =  0.04930

 MRCHDU: Convergence failed at  46  side 2    Res =  0.5649E+01
 MRCHDU: Convergence failed at  47  side 2    Res =  0.5517E+01
 MRCHDU: Convergence failed at  88  side 2    Res =  0.1121E-04
 MRCHDU: Convergence failed at  97  side 2    Res =  0.2523E-01
 Side 1  free  transition at x/c =  0.5424   49
 Side 2  free  transition at x/c =  0.0142    7

  63   rms: 0.1187E+05   max: -.5500E+05   C at   52  2   RLX: 0.000
       a = 10.250      CL =  0.3827
      Cm = -0.0360     CD =  0.05273   =>   CDf =  0.00344    CDp =  0.04930

 MRCHDU: Convergence failed at  46  side 2    Res =  0.5679E+01
 MRCHDU: Convergence failed at  47  side 2    Res =  0.5547E+01
 MRCHDU: Convergence failed at  88  side 2    Res =  0.1120E-04
 MRCHDU: Convergence failed at  97  side 2    Res =  0.2523E-01
 Side 1  free  transition at x/c =  0.5424   49
 Side 2  free  transition at x/c =  0.0142    7

  64   rms: 0.8866E+04   max: -.4107E+05   C at   77  2   RLX: 0.000
       a = 10.250      CL =  0.3828
      Cm = -0.0360     CD =  0.05273   =>   CDf =  0.00344    CDp =  0.04930

 MRCHDU: Convergence failed at  46  side 2    Res =  0.5709E+01
 MRCHDU: Convergence failed at  47  side 2    Res =  0.5576E+01
 MRCHDU: Convergence failed at  88  side 2    Res =  0.1120E-04
 MRCHDU: Convergence failed at  97  side 2    Res =  0.2524E-01
 Side 1  free  transition at x/c =  0.5423   49
 Side 2  free  transition at x/c =  0.0142    7

  65   rms: 0.8998E+04   max: -.4168E+05   C at   56  2   RLX: 0.000
       a = 10.250      CL =  0.3828
      Cm = -0.0360     CD =  0.05273   =>   CDf =  0.00344    CDp =  0.04930

 MRCHDU: Convergence failed at  46  side 2    Res =  0.5740E+01
 MRCHDU: Convergence failed at  47  side 2    Res =  0.5605E+01
 MRCHDU: Convergence failed at  88  side 2    Res =  0.1118E-04
 MRCHDU: Convergence failed at  97  side 2    Res =  0.2524E-01
 Side 1  free  transition at x/c =  0.5423   49
 Side 2  free  transition at x/c =  0.0142    7

  66   rms: 0.1210E+05   max: -.5607E+05   C at   49  2   RLX: 0.000
       a = 10.250      CL =  0.3828
      Cm = -0.0360     CD =  0.05273   =>   CDf =  0.00344    CDp =  0.04930

 MRCHDU: Convergence failed at  46  side 2    Res =  0.5771E+01
 MRCHDU: Convergence failed at  47  side 2    Res =  0.5636E+01
 MRCHDU: Convergence failed at  88  side 2    Res =  0.1119E-04
 MRCHDU: Convergence failed at  97  side 2    Res =  0.2524E-01
 Side 1  free  transition at x/c =  0.5423   49
 Side 2  free  transition at x/c =  0.0142    7

  67   rms: 0.1525E+05   max: -.7066E+05   C at   71  2   RLX: 0.000
       a = 10.250      CL =  0.3828
      Cm = -0.0360     CD =  0.05273   =>   CDf =  0.00344    CDp =  0.04930

 MRCHDU: Convergence failed at  46  side 2    Res =  0.5799E+01
 MRCHDU: Convergence failed at  47  side 2    Res =  0.5663E+01
 MRCHDU: Convergence failed at  88  side 2    Res =  0.1117E-04
 MRCHDU: Convergence failed at  97  side 2    Res =  0.2524E-01
 Side 1  free  transition at x/c =  0.5423   49
 Side 2  free  transition at x/c =  0.0142    7

  68   rms: 0.1285E+05   max: -.5955E+05   C at   56  2   RLX: 0.000
       a = 10.250      CL =  0.3828
      Cm = -0.0360     CD =  0.05273   =>   CDf =  0.00344    CDp =  0.04930

 MRCHDU: Convergence failed at  46  side 2    Res =  0.5829E+01
 MRCHDU: Convergence failed at  47  side 2    Res =  0.5693E+01
 MRCHDU: Convergence failed at  88  side 2    Res =  0.1125E-04
 MRCHDU: Convergence failed at  97  side 2    Res =  0.2525E-01
 Side 1  free  transition at x/c =  0.5423   48
 Side 2  free  transition at x/c =  0.0142    7

  69   rms: 0.1079E+05   max: -.4999E+05   C at   80  2   RLX: 0.000
       a = 10.250      CL =  0.3828
      Cm = -0.0360     CD =  0.05273   =>   CDf =  0.00344    CDp =  0.04930

 MRCHDU: Convergence failed at  46  side 2    Res =  0.5859E+01
 MRCHDU: Convergence failed at  47  side 2    Res =  0.5720E+01
 MRCHDU: Convergence failed at  88  side 2    Res =  0.1115E-04
 MRCHDU: Convergence failed at  97  side 2    Res =  0.2525E-01
 Side 1  free  transition at x/c =  0.5423   48
 Side 2  free  transition at x/c =  0.0142    7

  70   rms: 0.1257E+05   max: -.5824E+05   C at   58  2   RLX: 0.000
       a = 10.250      CL =  0.3828
      Cm = -0.0360     CD =  0.05273   =>   CDf =  0.00344    CDp =  0.04930

 MRCHDU: Convergence failed at  46  side 2    Res =  0.5887E+01
 MRCHDU: Convergence failed at  47  side 2    Res =  0.5750E+01
 MRCHDU: Convergence failed at  88  side 2    Res =  0.1114E-04
 MRCHDU: Convergence failed at  97  side 2    Res =  0.2526E-01
 Side 1  free  transition at x/c =  0.5423   48
 Side 2  free  transition at x/c =  0.0142    7

  71   rms: 0.1244E+05   max: -.5765E+05   C at   78  2   RLX: 0.000
       a = 10.250      CL =  0.3828
      Cm = -0.0360     CD =  0.05273   =>   CDf =  0.00344    CDp =  0.04930

 MRCHDU: Convergence failed at  46  side 2    Res =  0.5918E+01
 MRCHDU: Convergence failed at  47  side 2    Res =  0.5778E+01
 MRCHDU: Convergence failed at  88  side 2    Res =  0.1117E-04
 MRCHDU: Convergence failed at  97  side 2    Res =  0.2526E-01
 Side 1  free  transition at x/c =  0.5423   48
 Side 2  free  transition at x/c =  0.0142    7

  72   rms: 0.1304E+05   max: -.6043E+05   C at   57  2   RLX: 0.000
       a = 10.250      CL =  0.3828
      Cm = -0.0360     CD =  0.05273   =>   CDf =  0.00344    CDp =  0.04930

 MRCHDU: Convergence failed at  46  side 2    Res =  0.5945E+01
 MRCHDU: Convergence failed at  47  side 2    Res =  0.5804E+01
 MRCHDU: Convergence failed at  88  side 2    Res =  0.1115E-04
 MRCHDU: Convergence failed at  97  side 2    Res =  0.2527E-01
 Side 1  free  transition at x/c =  0.5423   48
 Side 2  free  transition at x/c =  0.0142    7

  73   rms: 0.1137E+05   max: -.5268E+05   C at   56  2   RLX: 0.000
       a = 10.250      CL =  0.3828
      Cm = -0.0360     CD =  0.05273   =>   CDf =  0.00344    CDp =  0.04929

 MRCHDU: Convergence failed at  46  side 2    Res =  0.5976E+01
 MRCHDU: Convergence failed at  47  side 2    Res =  0.5834E+01
 MRCHDU: Convergence failed at  88  side 2    Res =  0.1115E-04
 MRCHDU: Convergence failed at  97  side 2    Res =  0.2527E-01
 Side 1  free  transition at x/c =  0.5423   48
 Side 2  free  transition at x/c =  0.0142    7

  74   rms: 0.1390E+05   max: -.6439E+05   C at   61  2   RLX: 0.000
       a = 10.250      CL =  0.3828
      Cm = -0.0360     CD =  0.05273   =>   CDf =  0.00344    CDp =  0.04929

 MRCHDU: Convergence failed at  46  side 2    Res =  0.6006E+01
 MRCHDU: Convergence failed at  47  side 2    Res =  0.5862E+01
 MRCHDU: Convergence failed at  88  side 2    Res =  0.1115E-04
 MRCHDU: Convergence failed at  97  side 2    Res =  0.2528E-01
 Side 1  free  transition at x/c =  0.5423   48
 Side 2  free  transition at x/c =  0.0142    7

  75   rms: 0.9860E+04   max: -.4568E+05   C at   63  2   RLX: 0.000
       a = 10.250      CL =  0.3828
      Cm = -0.0360     CD =  0.05273   =>   CDf =  0.00344    CDp =  0.04929

 MRCHDU: Convergence failed at  46  side 2    Res =  0.6034E+01
 MRCHDU: Convergence failed at  47  side 2    Res =  0.5890E+01
 MRCHDU: Convergence failed at  88  side 2    Res =  0.1116E-04
 MRCHDU: Convergence failed at  97  side 2    Res =  0.2528E-01
 Side 1  free  transition at x/c =  0.5423   48
 Side 2  free  transition at x/c =  0.0142    7

  76   rms: 0.1322E+05   max: -.6126E+05   C at   63  2   RLX: 0.000
       a = 10.250      CL =  0.3828
      Cm = -0.0360     CD =  0.05273   =>   CDf =  0.00344    CDp =  0.04929

 MRCHDU: Convergence failed at  46  side 2    Res =  0.6065E+01
 MRCHDU: Convergence failed at  47  side 2    Res =  0.5920E+01
 MRCHDU: Convergence failed at  88  side 2    Res =  0.1117E-04
 MRCHDU: Convergence failed at  97  side 2    Res =  0.2529E-01
 Side 1  free  transition at x/c =  0.5423   48
 Side 2  free  transition at x/c =  0.0142    7

  77   rms: 0.1115E+05   max: -.5165E+05   C at   62  2   RLX: 0.000
       a = 10.250      CL =  0.3828
      Cm = -0.0360     CD =  0.05273   =>   CDf =  0.00344    CDp =  0.04929

 MRCHDU: Convergence failed at  46  side 2    Res =  0.6096E+01
 MRCHDU: Convergence failed at  47  side 2    Res =  0.5948E+01
 MRCHDU: Convergence failed at  88  side 2    Res =  0.1120E-04
 MRCHDU: Convergence failed at  97  side 2    Res =  0.2529E-01
 Side 1  free  transition at x/c =  0.5423   48
 Side 2  free  transition at x/c =  0.0142    7

  78   rms: 0.1076E+05   max: -.4982E+05   C at   67  2   RLX: 0.000
       a = 10.250      CL =  0.3828
      Cm = -0.0360     CD =  0.05273   =>   CDf =  0.00344    CDp =  0.04929

 MRCHDU: Convergence failed at  46  side 2    Res =  0.6126E+01
 MRCHDU: Convergence failed at  47  side 2    Res =  0.5978E+01
 MRCHDU: Convergence failed at  88  side 2    Res =  0.1115E-04
 MRCHDU: Convergence failed at  97  side 2    Res =  0.2530E-01
 Side 1  free  transition at x/c =  0.5423   48
 Side 2  free  transition at x/c =  0.0142    7

  79   rms: 0.1045E+05   max: -.4838E+05   C at   70  2   RLX: 0.000
       a = 10.250      CL =  0.3828
      Cm = -0.0360     CD =  0.05272   =>   CDf =  0.00344    CDp =  0.04929

 MRCHDU: Convergence failed at  46  side 2    Res =  0.6158E+01
 MRCHDU: Convergence failed at  47  side 2    Res =  0.6010E+01
 MRCHDU: Convergence failed at  88  side 2    Res =  0.1118E-04
 MRCHDU: Convergence failed at  97  side 2    Res =  0.2531E-01
 Side 1  free  transition at x/c =  0.5423   48
 Side 2  free  transition at x/c =  0.0142    7

  80   rms: 0.9953E+04   max: -.4610E+05   C at   67  2   RLX: 0.000
       a = 10.250      CL =  0.3828
      Cm = -0.0360     CD =  0.05272   =>   CDf =  0.00344    CDp =  0.04929

 MRCHDU: Convergence failed at  46  side 2    Res =  0.6190E+01
 MRCHDU: Convergence failed at  47  side 2    Res =  0.6041E+01
 MRCHDU: Convergence failed at  88  side 2    Res =  0.1117E-04
 MRCHDU: Convergence failed at  97  side 2    Res =  0.2531E-01
 Side 1  free  transition at x/c =  0.5423   48
 Side 2  free  transition at x/c =  0.0142    7

  81   rms: 0.1290E+05   max: -.5974E+05   C at   64  2   RLX: 0.000
       a = 10.250      CL =  0.3828
      Cm = -0.0360     CD =  0.05272   =>   CDf =  0.00344    CDp =  0.04929

 MRCHDU: Convergence failed at  46  side 2    Res =  0.6223E+01

[TIMEOUT]
