  
       XFOIL         Version 6.99
  
 Calculated polar for: NYU/GRUMMAN K-1 AIRFOIL                         
  
 1 1 Reynolds number fixed          Mach number fixed         
  
 xtrf =   1.000 (top)        1.000 (bottom)  
 Mach =   0.000     Re =     0.300 e 6     Ncrit =   9.000
  
   alpha    CL        CD       CDp       CM     Top_Xtr  Bot_Xtr
  ------ -------- --------- --------- -------- -------- --------
  -4.000  -0.1855   0.01091   0.00554  -0.0867   0.9594   0.4851
  -3.500  -0.1170   0.01098   0.00571  -0.0893   0.9556   0.5355
  -3.000  -0.0467   0.01116   0.00587  -0.0921   0.9526   0.5682
  -2.500   0.0061   0.01139   0.00613  -0.0915   0.9446   0.5903
  -1.500   0.1290   0.01191   0.00671  -0.0933   0.9332   0.6309
  -1.000   0.1922   0.01192   0.00676  -0.0940   0.9240   0.6464
  -0.500   0.2491   0.01168   0.00659  -0.0928   0.9093   0.6592
   0.000   0.3035   0.01113   0.00604  -0.0906   0.8912   0.6725
   0.500   0.3556   0.01073   0.00570  -0.0883   0.8740   0.6838
   1.000   0.4095   0.01039   0.00541  -0.0868   0.8574   0.6947
   1.500   0.4640   0.01015   0.00525  -0.0855   0.8399   0.7058
   2.000   0.5181   0.00982   0.00498  -0.0840   0.8144   0.7157
   2.500   0.5722   0.00962   0.00480  -0.0826   0.7738   0.7265
   3.000   0.6215   0.00977   0.00454  -0.0800   0.6506   0.7357
   3.500   0.6518   0.01256   0.00546  -0.0759   0.2801   0.7461
   4.000   0.6998   0.01365   0.00611  -0.0749   0.1978   0.7552
   4.500   0.7515   0.01439   0.00674  -0.0743   0.1688   0.7659
   5.000   0.8023   0.01502   0.00734  -0.0735   0.1470   0.7751
   6.000   0.9055   0.01620   0.00843  -0.0722   0.0822   0.7957
   6.500   0.9510   0.01774   0.00971  -0.0707   0.0501   0.8065
   7.000   0.9959   0.01915   0.01113  -0.0690   0.0427   0.8176
   7.500   1.0396   0.02064   0.01267  -0.0671   0.0387   0.8293
   8.000   1.0833   0.02224   0.01434  -0.0653   0.0357   0.8419
   8.500   1.1265   0.02413   0.01640  -0.0634   0.0333   0.8570
   9.000   1.1693   0.02637   0.01870  -0.0615   0.0313   0.8743
  10.000   1.2437   0.03031   0.02332  -0.0560   0.0269   1.0000
  10.000   1.2437   0.03031   0.02332  -0.0560   0.0269   1.0000
  10.250   1.2642   0.03172   0.02487  -0.0553   0.0262   1.0000
  10.500   1.2846   0.03309   0.02630  -0.0547   0.0255   1.0000
  10.750   1.3058   0.03490   0.02808  -0.0544   0.0249   1.0000
  11.000   1.3164   0.03688   0.03043  -0.0523   0.0244   1.0000
  11.250   1.3241   0.03905   0.03295  -0.0501   0.0238   1.0000
  11.500   1.3298   0.04124   0.03543  -0.0477   0.0233   1.0000
  11.750   1.3335   0.04312   0.03749  -0.0451   0.0228   1.0000
  12.000   1.3411   0.04470   0.03912  -0.0432   0.0224   1.0000
  12.250   1.3513   0.04651   0.04091  -0.0418   0.0219   1.0000
  12.500   1.3435   0.04950   0.04413  -0.0388   0.0216   1.0000
  12.750   1.3250   0.05265   0.04765  -0.0354   0.0215   1.0000
  13.000   1.3045   0.05647   0.05182  -0.0330   0.0213   1.0000
  13.250   1.2841   0.06078   0.05642  -0.0316   0.0212   1.0000
  13.500   1.2609   0.06589   0.06181  -0.0313   0.0211   1.0000
  13.750   1.2372   0.07167   0.06785  -0.0323   0.0211   1.0000
  14.000   1.2119   0.07845   0.07486  -0.0349   0.0212   1.0000
  14.250   1.1862   0.08621   0.08284  -0.0392   0.0213   1.0000
  14.500   1.1626   0.09474   0.09155  -0.0446   0.0214   1.0000
  14.750   1.1395   0.10416   0.10111  -0.0510   0.0216   1.0000
  15.000   1.1193   0.11358   0.11063  -0.0572   0.0217   1.0000
  15.250   0.6651   0.17508   0.17274  -0.0732   0.0406   1.0000
  15.500   0.6712   0.17714   0.17480  -0.0736   0.0396   1.0000
  15.750   0.6859   0.17861   0.17627  -0.0723   0.0390   1.0000
  16.000   0.6668   0.18425   0.18190  -0.0772   0.0368   1.0000
