
 ===================================================
  XFOIL Version 6.99
  Copyright (C) 2000   Mark Drela, Harold Youngren

  This software comes with ABSOLUTELY NO WARRANTY,
    subject to the GNU General Public License.

  Caveat computor
 ===================================================

 File  xfoil.def  not found

   QUIT    Exit program

  .OPER    Direct operating point(s)
  .MDES    Complex mapping design routine
  .QDES    Surface speed design routine
  .GDES    Geometry design routine

   SAVE f  Write airfoil to labeled coordinate file
   PSAV f  Write airfoil to plain coordinate file
   ISAV f  Write airfoil to ISES coordinate file
   MSAV f  Write airfoil to MSES coordinate file
   REVE    Reverse written-airfoil node ordering

   LOAD f  Read buffer airfoil from coordinate file
   NACA i  Set NACA 4,5-digit airfoil and buffer airfoil
   INTE    Set buffer airfoil by interpolating two airfoils
   NORM    Buffer airfoil normalization toggle
   XYCM rr Change CM reference location, currently  0.25000 0.00000

   BEND    Display structural properties of current airfoil

   PCOP    Set current-airfoil panel nodes directly from buffer airfoil points
   PANE    Set current-airfoil panel nodes ( 160 ) based on curvature
  .PPAR    Show/change paneling

  .PLOP    Plotting options

   WDEF f  Write  current-settings file
   RDEF f  Reread current-settings file
   NAME s  Specify new airfoil name
   NINC    Increment name version number

   Z       Zoom    | (available in all menus)
   U       Unzoom  | 

 XFOIL   c>  
 Labeled airfoil file.  Name:  GRUMMAN K-2 AIRFOIL                             

 Number of input coordinate points: 178
 Counterclockwise ordering
 Max thickness =     0.102955  at x =   0.390
 Max camber    =     0.012826  at x =   0.883

  LE  x,y  =  -0.00000   0.00012  |   Chord =   1.00009
  TE  x,y  =   1.00000   0.01321  |

 Current airfoil nodes set from buffer airfoil nodes ( 178 )

 XFOIL   c>  
 XFOIL   c>  
 Blunt trailing edge.  Gap =  0.00100

 Paneling parameters used...
   Number of panel nodes       160
   Panel bunching parameter    1.000
   TE/LE panel density ratio   0.150
   Refined-area/LE panel density ratio    0.200
   Top    side refined area x/c limits  1.000 1.000
   Bottom side refined area x/c limits  1.000 1.000

 XFOIL   c>  
.OPERi   c>  
 Xtr/c     =  1.0000    top    side
 Xtr/c     =  1.0000    bottom side
 Ncrit     =    9.00   ( 0.070 % turb. level )
 Vacc      =  0.0100

 Klag  =  5.6000     Uxwt  =    1.00
 A     =  6.7000     B     =  0.7500       KCt = 0.01485
 CtiniK=  1.8000     CtiniX=  3.3000

..VPAR   c>  
..VPAR   c>  
.OPERi   c>  
 M  =    0.0000
 Re =    600000

.OPERv   c>  
.OPERv   c>  
.OPERv   c>  
 Polar  1 newly created for accumulation
 Airfoil archived with polar: GRUMMAN K-2 AIRFOIL                             

Enter  polar save filename  OR  <return> for no file   s>  
 New polar save file available

Enter  polar dump filename  OR  <return> for no file   s>  
 Polar dump file will NOT be written

 Polar accumulation enabled

.OPERva   c>   Calculating unit vorticity distributions ...
 Calculating wake trajectory ...
 Calculating source influence matrix ...

 Solving BL system ...

 Initializing BL ...
    side            1  ...
 MRCHUE: Inverse mode at  70     Hk =   3.800
 MRCHUE: Inverse mode at  71     Hk =   4.336
 MRCHUE: Inverse mode at  72     Hk =   4.832
 MRCHUE: Convergence failed at  73  side 1    Res =  0.2700E+01
 MRCHUE: Inverse mode at  74     Hk =   5.229
 MRCHUE: Inverse mode at  75     Hk =   5.464
    side            2  ...
 MRCHUE: Inverse mode at  18     Hk =   4.641
 MRCHUE: Inverse mode at  19     Hk =   5.588
 MRCHUE: Inverse mode at  20     Hk =   6.534
 MRCHUE: Inverse mode at  21     Hk =   7.509
 MRCHUE: Inverse mode at  22     Hk =   8.536
 MRCHUE: Inverse mode at  23     Hk =   9.638
 MRCHUE: Inverse mode at  24     Hk =   5.168
 MRCHUE: Inverse mode at  25     Hk =   2.500
 MRCHUE: Inverse mode at  73     Hk =   2.500
 MRCHUE: Inverse mode at  74     Hk =   2.500
 MRCHUE: Inverse mode at  75     Hk =   2.500
 MRCHUE: Inverse mode at  76     Hk =   2.500
 MRCHUE: Inverse mode at  77     Hk =   2.500
 MRCHUE: Inverse mode at  78     Hk =   2.500
 MRCHUE: Inverse mode at  79     Hk =   2.500
 MRCHUE: Inverse mode at  80     Hk =   2.500
 MRCHUE: Inverse mode at  81     Hk =   2.500
 MRCHUE: Inverse mode at  82     Hk =   2.500
 MRCHUE: Inverse mode at  83     Hk =   2.500
 MRCHUE: Inverse mode at  84     Hk =   2.500
 MRCHUE: Inverse mode at  85     Hk =   2.500
 MRCHUE: Inverse mode at  86     Hk =   2.500

 Side 1 forced transition at x/c =  1.0000   75
 Side 2  free  transition at x/c =  0.0374   24

   1   rms: 0.3310E+00   max: 0.2591E+01   C at   75  1   RLX: 0.423
       a = -4.000      CL = -0.3910
      Cm = -0.0506     CD =  0.01035   =>   CDf =  0.00646    CDp =  0.00389

 MRCHDU: Convergence failed at  24  side 2    Res =  0.3231E+01
 MRCHDU: Convergence failed at  25  side 2    Res =  0.3258E+01
 MRCHDU: Convergence failed at  26  side 2    Res =  0.4805E+01
 MRCHDU: Convergence failed at  27  side 2    Res =  0.3252E+01
 MRCHDU: Convergence failed at  28  side 2    Res =  0.2615E+01
 MRCHDU: Convergence failed at  29  side 2    Res =  0.1890E+01
 MRCHDU: Convergence failed at  30  side 2    Res =  0.1894E+01
 MRCHDU: Convergence failed at  31  side 2    Res =  0.1973E+01
 MRCHDU: Convergence failed at  32  side 2    Res =  0.2111E+01
 MRCHDU: Convergence failed at  33  side 2    Res =  0.2298E+01
 MRCHDU: Convergence failed at  34  side 2    Res =  0.2541E+01
 MRCHDU: Convergence failed at  35  side 2    Res =  0.2950E+01
 MRCHDU: Convergence failed at  36  side 2    Res =  0.3265E+01
 MRCHDU: Convergence failed at  37  side 2    Res =  0.3627E+01
 MRCHDU: Convergence failed at  38  side 2    Res =  0.4035E+01
 MRCHDU: Convergence failed at  39  side 2    Res =  0.4472E+01
 MRCHDU: Convergence failed at  40  side 2    Res =  0.4967E+01
 MRCHDU: Convergence failed at  41  side 2    Res =  0.5551E+01
 MRCHDU: Convergence failed at  42  side 2    Res =  0.6156E+01
 MRCHDU: Convergence failed at  43  side 2    Res =  0.6822E+01
 MRCHDU: Convergence failed at  44  side 2    Res =  0.7558E+01
 MRCHDU: Convergence failed at  45  side 2    Res =  0.8413E+01
 MRCHDU: Convergence failed at  46  side 2    Res =  0.9378E+01
 MRCHDU: Convergence failed at  47  side 2    Res =  0.1053E+02
 MRCHDU: Convergence failed at  48  side 2    Res =  0.1187E+02
 MRCHDU: Convergence failed at  49  side 2    Res =  0.1399E+02
 MRCHDU: Convergence failed at  50  side 2    Res =  0.2040E+02
 MRCHDU: Convergence failed at  51  side 2    Res =  0.2481E+02
 MRCHDU: Convergence failed at  52  side 2    Res =  0.3137E+02
 MRCHDU: Convergence failed at  53  side 2    Res =  0.5710E+02
 MRCHDU: Convergence failed at  54  side 2    Res =  0.7983E+02
 MRCHDU: Convergence failed at  55  side 2    Res =  0.1138E+02
 MRCHDU: Convergence failed at  56  side 2    Res =  0.1165E+02
 MRCHDU: Convergence failed at  57  side 2    Res =  0.1204E+02
 MRCHDU: Convergence failed at  58  side 2    Res =  0.1696E+02
 MRCHDU: Convergence failed at  59  side 2    Res =  0.1767E+02
 MRCHDU: Convergence failed at  60  side 2    Res =  0.1891E+02
 MRCHDU: Convergence failed at  61  side 2    Res =  0.1981E+02
 MRCHDU: Convergence failed at  62  side 2    Res =  0.2457E+02
 MRCHDU: Convergence failed at  63  side 2    Res =  0.6126E+02
 MRCHDU: Convergence failed at  64  side 2    Res =  0.3578E+02
 MRCHDU: Convergence failed at  65  side 2    Res =  0.1969E+02
 MRCHDU: Convergence failed at  66  side 2    Res =  0.3355E+02
 MRCHDU: Convergence failed at  67  side 2    Res =  0.3783E+02
 MRCHDU: Convergence failed at  68  side 2    Res =  0.2694E+02
 MRCHDU: Convergence failed at  69  side 2    Res =  0.5848E+02
 MRCHDU: Convergence failed at  70  side 2    Res =  0.1310E+03
 MRCHDU: Convergence failed at  71  side 2    Res =  0.4707E+02
 MRCHDU: Convergence failed at  72  side 2    Res =  0.1681E+02
 MRCHDU: Convergence failed at  73  side 2    Res =  0.4074E+02
 MRCHDU: Convergence failed at  74  side 2    Res =  0.4540E+02
 MRCHDU: Convergence failed at  75  side 2    Res =  0.3233E+02
 MRCHDU: Convergence failed at  76  side 2    Res =  0.2688E+02
 MRCHDU: Convergence failed at  77  side 2    Res =  0.2901E+02
 MRCHDU: Convergence failed at  78  side 2    Res =  0.3095E+02
 MRCHDU: Convergence failed at  79  side 2    Res =  0.3284E+02
 MRCHDU: Convergence failed at  80  side 2    Res =  0.3462E+02
 MRCHDU: Convergence failed at  81  side 2    Res =  0.3585E+02
 MRCHDU: Convergence failed at  82  side 2    Res =  0.3828E+02
 MRCHDU: Convergence failed at  83  side 2    Res =  0.6399E+02
 MRCHDU: Convergence failed at  84  side 2    Res =  0.2441E+02
 MRCHDU: Convergence failed at  85  side 2    Res =  0.2751E+02
 MRCHDU: Convergence failed at  86  side 2    Res =  0.2669E+02
 MRCHDU: Convergence failed at  87  side 2    Res =  0.9320E+02
 Side 1 forced transition at x/c =  1.0000   75
 Side 2  free  transition at x/c =  0.0340   23

   2   rms: 0.1221E+01   max: 0.5585E+01   D at   89  2   RLX: 0.269
       a = -4.000      CL = -1.1899
      Cm =  0.2332     CD =  0.00463   =>   CDf =  0.00202    CDp =  0.00261

 MRCHDU: Convergence failed at  62  side 2    Res =  0.2231E+00
 MRCHDU: Convergence failed at  63  side 2    Res =  0.2034E+00
 MRCHDU: Convergence failed at  64  side 2    Res =  0.1789E+00
 MRCHDU: Convergence failed at  65  side 2    Res =  0.1393E+00
 MRCHDU: Convergence failed at  90  side 2    Res =  0.1809E+02
 Side 1 forced transition at x/c =  1.0000   75
 Side 2  free  transition at x/c =  0.0328   23
 idif Ue xi dudx           1  0.26780909      2.70450115E-03   99.023468    
 Uenew xinew           2  5.24002537E-02  5.29170036E-04

   3   rms: 0.3975E+00   max: -.5854E+00   D at   88  2   RLX: 0.435
       a = -4.000      CL = -0.7623
      Cm =  0.0705     CD =  0.02189   =>   CDf =  0.00597    CDp =  0.01592

 MRCHDU: Convergence failed at  67  side 2    Res =  0.2198E+00
 MRCHDU: Convergence failed at  68  side 2    Res =  0.3597E+00
 MRCHDU: Convergence failed at  69  side 2    Res =  0.5198E-01
 MRCHDU: Convergence failed at  70  side 2    Res =  0.2531E+01
 Side 1 forced transition at x/c =  1.0000   74
 Side 2  free  transition at x/c =  0.0314   24

   4   rms: 0.7338E+00   max: -.5304E+01   D at   69  2   RLX: 0.094
       a = -4.000      CL = -0.6308
      Cm =  0.0083     CD =  0.02398   =>   CDf =  0.00563    CDp =  0.01835

 MRCHDU: Convergence failed at  69  side 2    Res =  0.2415E+00
 MRCHDU: Convergence failed at  70  side 2    Res =  0.1860E+00
 Side 1 forced transition at x/c =  1.0000   74
 Side 2  free  transition at x/c =  0.0315   24

   5   rms: 0.3844E+01   max: -.1636E+02   D at   52  2   RLX: 0.031
       a = -4.000      CL = -0.5990
      Cm = -0.0362     CD =  0.02419   =>   CDf =  0.00532    CDp =  0.01887

 Side 1 forced transition at x/c =  1.0000   74
 Side 2  free  transition at x/c =  0.0304   23

   6   rms: 0.1664E+02   max: 0.7545E+02   D at   62  2   RLX: 0.008
       a = -4.000      CL = -0.5334
      Cm = -0.0388     CD =  0.03327   =>   CDf =  0.00544    CDp =  0.02783

 MRCHDU: Convergence failed at  25  side 2    Res =  0.3022E+01
 MRCHDU: Convergence failed at  26  side 2    Res =  0.2187E+02
 Side 1 forced transition at x/c =  1.0000   74
 Side 2  free  transition at x/c =  0.0354   24

   7   rms: 0.2839E+01   max: 0.1391E+02   T at   24  2   RLX: 0.041
       a = -4.000      CL = -0.5540
      Cm = -0.0585     CD =  0.02581   =>   CDf =  0.00511    CDp =  0.02071

 Side 1 forced transition at x/c =  1.0000   74
 Side 2  free  transition at x/c =  0.0315   24

   8   rms: 0.3658E+01   max: -.1589E+02   D at   62  2   RLX: 0.031
       a = -4.000      CL = -0.6148
      Cm = -0.0491     CD =  0.02292   =>   CDf =  0.00552    CDp =  0.01740

 MRCHDU: Convergence failed at  24  side 2    Res =  0.4103E+01
 Side 1 forced transition at x/c =  1.0000   74
 Side 2  free  transition at x/c =  0.0299   23
 idif Ue xi dudx           1  0.21773051      2.44796276E-03   88.943550    
 Uenew xinew           2  1.51409376E-02  1.70230865E-04

   9   rms: 0.4509E+01   max: 0.2255E+02   T at   23  2   RLX: 0.024
       a = -4.000      CL = -0.6750
      Cm = -0.0520     CD =  0.02038   =>   CDf =  0.00580    CDp =  0.01458

 Side 1 forced transition at x/c =  1.0000   73
 Side 2  free  transition at x/c =  0.0267   24

  10   rms: 0.8142E+00   max: 0.6367E+01   T at    2  2   RLX: 0.146
       a = -4.000      CL = -0.7282
      Cm = -0.0290     CD =  0.01860   =>   CDf =  0.00687    CDp =  0.01173

 Side 1 forced transition at x/c =  1.0000   73
 Side 2  free  transition at x/c =  0.0259   23

  11   rms: 0.3110E+00   max: -.1166E+01   D at   68  2   RLX: 0.429
       a = -4.000      CL = -0.7152
      Cm = -0.0121     CD =  0.01685   =>   CDf =  0.00693    CDp =  0.00992

 Side 1 forced transition at x/c =  1.0000   73
 Side 2  free  transition at x/c =  0.0250   23

  12   rms: 0.2000E+00   max: -.9522E+00   D at   89  2   RLX: 0.525
       a = -4.000      CL = -0.7081
      Cm =  0.0011     CD =  0.01695   =>   CDf =  0.00661    CDp =  0.01034

 Side 1  free  transition at x/c =  0.9849   72
 Side 2  free  transition at x/c =  0.0243   23

  13   rms: 0.1857E+00   max: -.7076E+00   D at   73  2   RLX: 0.707
       a = -4.000      CL = -0.5967
      Cm = -0.0140     CD =  0.01567   =>   CDf =  0.00642    CDp =  0.00925

 Side 1  free  transition at x/c =  0.9914   72
 Side 2  free  transition at x/c =  0.0260   23

  14   rms: 0.1031E+00   max: -.9721E+00   T at   72  1   RLX: 0.514
       a = -4.000      CL = -0.5593
      Cm = -0.0191     CD =  0.01445   =>   CDf =  0.00665    CDp =  0.00780

 Side 1  free  transition at x/c =  0.9962   74
 Side 2  free  transition at x/c =  0.0270   23

  15   rms: 0.4426E-01   max: -.2550E+00   D at   72  2
       a = -4.000      CL = -0.5340
      Cm = -0.0210     CD =  0.01287   =>   CDf =  0.00657    CDp =  0.00630

 Side 1  free  transition at x/c =  0.9993   74
 Side 2  free  transition at x/c =  0.0280   23

  16   rms: 0.9787E-02   max: 0.9910E-01   D at   23  2
       a = -4.000      CL = -0.5346
      Cm = -0.0208     CD =  0.01300   =>   CDf =  0.00656    CDp =  0.00644

 Side 1  free  transition at x/c =  0.9989   74
 Side 2  free  transition at x/c =  0.0278   23

  17   rms: 0.1376E-03   max: 0.1793E-02   D at   93  2
       a = -4.000      CL = -0.5347
      Cm = -0.0208     CD =  0.01301   =>   CDf =  0.00656    CDp =  0.00645

 Side 1  free  transition at x/c =  0.9989   74
 Side 2  free  transition at x/c =  0.0278   23

  18   rms: 0.1174E-05   max: -.1198E-04   T at   74  1
       a = -4.000      CL = -0.5347
      Cm = -0.0208     CD =  0.01301   =>   CDf =  0.00656    CDp =  0.00645
 plradd ia,ip,cpol            1           0  4.12384281E-03

 Point added to stored polar  1
 Point written to save file  k2_Re600k.base.pol                              
 Dump file unspecified or not available
 Calculating wake trajectory ...
 Calculating source influence matrix ...

 Solving BL system ...

 Side 1  free  transition at x/c =  0.9989   74
 Side 2  free  transition at x/c =  0.0278   23

   1   rms: 0.1019E+00   max: -.6774E+00   T at   23  2   RLX: 0.738
       a = -3.500      CL = -0.4864
      Cm = -0.0228     CD =  0.01257   =>   CDf =  0.00655    CDp =  0.00602

 Side 1  free  transition at x/c =  0.9976   74
 Side 2  free  transition at x/c =  0.0305   23

   2   rms: 0.4677E-01   max: -.2949E+00   T at   23  2
       a = -3.500      CL = -0.4686
      Cm = -0.0233     CD =  0.01270   =>   CDf =  0.00653    CDp =  0.00616

 Side 1  free  transition at x/c =  0.9970   74
 Side 2  free  transition at x/c =  0.0325   24

   3   rms: 0.1434E-01   max: 0.2872E+00   D at   24  2
       a = -3.500      CL = -0.4675
      Cm = -0.0238     CD =  0.01229   =>   CDf =  0.00655    CDp =  0.00574

 Side 1  free  transition at x/c =  0.9974   74
 Side 2  free  transition at x/c =  0.0330   24

   4   rms: 0.4090E-02   max: 0.5412E-01   D at   24  2
       a = -3.500      CL = -0.4676
      Cm = -0.0238     CD =  0.01233   =>   CDf =  0.00653    CDp =  0.00580

 Side 1  free  transition at x/c =  0.9974   74
 Side 2  free  transition at x/c =  0.0328   24

   5   rms: 0.4283E-04   max: 0.3798E-03   T at   24  2
       a = -3.500      CL = -0.4676
      Cm = -0.0238     CD =  0.01233   =>   CDf =  0.00652    CDp =  0.00580
 plradd ia,ip,cpol            2           0  4.12384281E-03

 Point added to stored polar  1
 Point written to save file  k2_Re600k.base.pol                              
 Dump file unspecified or not available
 Calculating wake trajectory ...
 Calculating source influence matrix ...

 Solving BL system ...

 Side 1  free  transition at x/c =  0.9973   74
 Side 2  free  transition at x/c =  0.0328   24

   1   rms: 0.1079E+00   max: -.8099E+00   T at   24  2   RLX: 0.617
       a = -3.000      CL = -0.4260
      Cm = -0.0257     CD =  0.01206   =>   CDf =  0.00660    CDp =  0.00545

 Side 1  free  transition at x/c =  0.9962   75
 Side 2  free  transition at x/c =  0.0367   24

   2   rms: 0.1409E+00   max: -.7571E+00   T at   24  2   RLX: 0.660
       a = -3.000      CL = -0.4059
      Cm = -0.0275     CD =  0.01138   =>   CDf =  0.00650    CDp =  0.00488

 Side 1  free  transition at x/c =  0.9965   75
 Side 2  free  transition at x/c =  0.0435   25

   3   rms: 0.2020E-01   max: -.1392E+00   D at   25  2
       a = -3.000      CL = -0.3995
      Cm = -0.0269     CD =  0.01187   =>   CDf =  0.00646    CDp =  0.00542

 Side 1  free  transition at x/c =  0.9957   75
 Side 2  free  transition at x/c =  0.0419   24

   4   rms: 0.3713E-02   max: -.4633E-01   D at   25  2
       a = -3.000      CL = -0.3996
      Cm = -0.0269     CD =  0.01184   =>   CDf =  0.00648    CDp =  0.00536

 Side 1  free  transition at x/c =  0.9957   75
 Side 2  free  transition at x/c =  0.0417   24

   5   rms: 0.8194E-04   max: 0.1111E-02   D at   24  2
       a = -3.000      CL = -0.3996
      Cm = -0.0269     CD =  0.01184   =>   CDf =  0.00648    CDp =  0.00536
 plradd ia,ip,cpol            3           0  4.12384281E-03

 Point added to stored polar  1
 Point written to save file  k2_Re600k.base.pol                              
 Dump file unspecified or not available
 Calculating wake trajectory ...
 Calculating source influence matrix ...

 Solving BL system ...

 Side 1  free  transition at x/c =  0.9957   75
 Side 2  free  transition at x/c =  0.0417   24

   1   rms: 0.1089E+00   max: -.8706E+00   T at   24  2   RLX: 0.574
       a = -2.500      CL = -0.3613
      Cm = -0.0284     CD =  0.01174   =>   CDf =  0.00648    CDp =  0.00526

 Side 1  free  transition at x/c =  0.9948   75
 Side 2  free  transition at x/c =  0.0495   26

   2   rms: 0.9823E-01   max: -.6449E+00   C at   26  2   RLX: 0.775
       a = -2.500      CL = -0.3361
      Cm = -0.0305     CD =  0.01103   =>   CDf =  0.00646    CDp =  0.00456

 Side 1  free  transition at x/c =  0.9949   76
 Side 2  free  transition at x/c =  0.0808   28

   3   rms: 0.1740E-01   max: -.2241E+00   D at   27  2
       a = -2.500      CL = -0.3296
      Cm = -0.0307     CD =  0.01111   =>   CDf =  0.00624    CDp =  0.00487

 Side 1  free  transition at x/c =  0.9948   76
 Side 2  free  transition at x/c =  0.0769   27

   4   rms: 0.1564E-01   max: 0.3701E+00   C at   27  2
       a = -2.500      CL = -0.3298
      Cm = -0.0306     CD =  0.01115   =>   CDf =  0.00624    CDp =  0.00490

 Side 1  free  transition at x/c =  0.9947   76
 Side 2  free  transition at x/c =  0.0712   27

   5   rms: 0.8803E-03   max: -.1696E-01   C at   27  2
       a = -2.500      CL = -0.3299
      Cm = -0.0306     CD =  0.01116   =>   CDf =  0.00627    CDp =  0.00488

 Side 1  free  transition at x/c =  0.9947   76
 Side 2  free  transition at x/c =  0.0714   27

   6   rms: 0.7331E-05   max: 0.5895E-04   C at   27  2
       a = -2.500      CL = -0.3299
      Cm = -0.0306     CD =  0.01116   =>   CDf =  0.00627    CDp =  0.00489
 plradd ia,ip,cpol            4           0  5.82596054E-03

 Point added to stored polar  1
 Point written to save file  k2_Re600k.base.pol                              
 Dump file unspecified or not available
 Calculating wake trajectory ...
 Calculating source influence matrix ...

 Solving BL system ...

 Side 1  free  transition at x/c =  0.9947   76
 Side 2  free  transition at x/c =  0.0714   27

   1   rms: 0.2727E+00   max: -.4927E+01   C at   27  2   RLX: 0.101
       a = -2.000      CL = -0.3225
      Cm = -0.0311     CD =  0.01105   =>   CDf =  0.00627    CDp =  0.00478

 Side 1  free  transition at x/c =  0.9947   76
 Side 2  free  transition at x/c =  0.0780   28

   2   rms: 0.2022E+00   max: -.2303E+01   C at   28  2   RLX: 0.217
       a = -2.000      CL = -0.3075
      Cm = -0.0320     CD =  0.01089   =>   CDf =  0.00625    CDp =  0.00464

 Side 1  free  transition at x/c =  0.9946   76
 Side 2  free  transition at x/c =  0.1125   30

   3   rms: 0.3409E+00   max: -.7953E+01   C at   30  2   RLX: 0.063
       a = -2.000      CL = -0.3047
      Cm = -0.0324     CD =  0.01073   =>   CDf =  0.00606    CDp =  0.00467

 Side 1  free  transition at x/c =  0.9946   76
 Side 2  free  transition at x/c =  0.1176   30

   4   rms: 0.2520E+00   max: -.5929E+01   C at   30  2   RLX: 0.084
       a = -2.000      CL = -0.3000
      Cm = -0.0326     CD =  0.01071   =>   CDf =  0.00604    CDp =  0.00467

 Side 1  free  transition at x/c =  0.9946   76
 Side 2  free  transition at x/c =  0.1244   31

   5   rms: 0.3147E+00   max: -.6951E+01   C at   31  2   RLX: 0.072
       a = -2.000      CL = -0.2962
      Cm = -0.0328     CD =  0.01062   =>   CDf =  0.00600    CDp =  0.00462

 Side 1  free  transition at x/c =  0.9946   76
 Side 2  free  transition at x/c =  0.1328   31

   6   rms: 0.6092E+00   max: -.1438E+02   C at   31  2   RLX: 0.035
       a = -2.000      CL = -0.2946
      Cm = -0.0330     CD =  0.01058   =>   CDf =  0.00595    CDp =  0.00463

 Side 1  free  transition at x/c =  0.9946   76
 Side 2  free  transition at x/c =  0.1351   32

   7   rms: 0.3008E+00   max: -.5952E+01   C at   32  2   RLX: 0.084
       a = -2.000      CL = -0.2902
      Cm = -0.0333     CD =  0.01051   =>   CDf =  0.00595    CDp =  0.00456

 Side 1  free  transition at x/c =  0.9947   76
 Side 2  free  transition at x/c =  0.1585   33

   8   rms: 0.1849E+01   max: -.4412E+02   C at   33  2   RLX: 0.011
       a = -2.000      CL = -0.2897
      Cm = -0.0335     CD =  0.01039   =>   CDf =  0.00582    CDp =  0.00456

 Side 1  free  transition at x/c =  0.9947   76
 Side 2  free  transition at x/c =  0.1617   33

   9   rms: 0.3161E+00   max: -.7383E+01   C at   33  2   RLX: 0.068
       a = -2.000      CL = -0.2870
      Cm = -0.0337     CD =  0.01038   =>   CDf =  0.00581    CDp =  0.00457

 Side 1  free  transition at x/c =  0.9947   76
 Side 2  free  transition at x/c =  0.1891   35

  10   rms: 0.3921E+00   max: -.8996E+01   C at   35  2   RLX: 0.056
       a = -2.000      CL = -0.2856
      Cm = -0.0340     CD =  0.01021   =>   CDf =  0.00570    CDp =  0.00450

 Side 1  free  transition at x/c =  0.9948   76
 Side 2  free  transition at x/c =  0.2012   36

  11   rms: 0.3856E+00   max: -.7990E+01   C at   36  2   RLX: 0.063
       a = -2.000      CL = -0.2829
      Cm = -0.0344     CD =  0.01010   =>   CDf =  0.00565    CDp =  0.00445

 Side 1  free  transition at x/c =  0.9949   76
 Side 2  free  transition at x/c =  0.2132   36

  12   rms: 0.3787E+00   max: -.8807E+01   C at   36  2   RLX: 0.057
       a = -2.000      CL = -0.2807
      Cm = -0.0346     CD =  0.01007   =>   CDf =  0.00559    CDp =  0.00448

 Side 1  free  transition at x/c =  0.9949   76
 Side 2  free  transition at x/c =  0.2236   37

  13   rms: 0.3134E+00   max: -.7086E+01   C at   37  2   RLX: 0.071
       a = -2.000      CL = -0.2783
      Cm = -0.0349     CD =  0.00998   =>   CDf =  0.00555    CDp =  0.00444

 Side 1  free  transition at x/c =  0.9950   76
 Side 2  free  transition at x/c =  0.2339   38

  14   rms: 0.2499E+00   max: -.4956E+01   C at   38  2   RLX: 0.101
       a = -2.000      CL = -0.2749
      Cm = -0.0353     CD =  0.00989   =>   CDf =  0.00551    CDp =  0.00438

 Side 1  free  transition at x/c =  0.9951   76
 Side 2  free  transition at x/c =  0.2487   38

  15   rms: 0.2973E+00   max: -.6796E+01   C at   38  2   RLX: 0.074
       a = -2.000      CL = -0.2726
      Cm = -0.0356     CD =  0.00985   =>   CDf =  0.00543    CDp =  0.00442

 Side 1  free  transition at x/c =  0.9952   76
 Side 2  free  transition at x/c =  0.2596   39

  16   rms: 0.2554E+00   max: -.5758E+01   C at   39  2   RLX: 0.087
       a = -2.000      CL = -0.2704
      Cm = -0.0359     CD =  0.00976   =>   CDf =  0.00538    CDp =  0.00438

 Side 1  free  transition at x/c =  0.9952   76
 Side 2  free  transition at x/c =  0.2707   40

  17   rms: 0.2205E+00   max: -.4674E+01   C at   40  2   RLX: 0.107
       a = -2.000      CL = -0.2676
      Cm = -0.0363     CD =  0.00968   =>   CDf =  0.00534    CDp =  0.00434

 MRCHDU: Convergence failed at  76  side 1    Res =  0.7630E-05
 Side 1  free  transition at x/c =  0.9954   76
 Side 2  free  transition at x/c =  0.2831   40

  18   rms: 0.1980E+00   max: -.4466E+01   C at   40  2   RLX: 0.112
       a = -2.000      CL = -0.2651
      Cm = -0.0365     CD =  0.00964   =>   CDf =  0.00528    CDp =  0.00436

 Side 1  free  transition at x/c =  0.9954   76
 Side 2  free  transition at x/c =  0.2963   41

  19   rms: 0.1812E+00   max: -.4050E+01   C at   41  2   RLX: 0.123
       a = -2.000      CL = -0.2629
      Cm = -0.0368     CD =  0.00955   =>   CDf =  0.00522    CDp =  0.00432

 Side 1  free  transition at x/c =  0.9955   76
 Side 2  free  transition at x/c =  0.3096   42

  20   rms: 0.1605E+00   max: -.3520E+01   C at   42  2   RLX: 0.142
       a = -2.000      CL = -0.2605
      Cm = -0.0372     CD =  0.00946   =>   CDf =  0.00516    CDp =  0.00429

 Side 1  free  transition at x/c =  0.9956   76
 Side 2  free  transition at x/c =  0.3211   43

  21   rms: 0.1236E+00   max: -.2480E+01   C at   43  2   RLX: 0.202
       a = -2.000      CL = -0.2573
      Cm = -0.0376     CD =  0.00937   =>   CDf =  0.00512    CDp =  0.00425

 Side 1  free  transition at x/c =  0.9957   76
 Side 2  free  transition at x/c =  0.3350   43

  22   rms: 0.1184E+00   max: -.2615E+01   C at   43  2   RLX: 0.191
       a = -2.000      CL = -0.2550
      Cm = -0.0379     CD =  0.00932   =>   CDf =  0.00506    CDp =  0.00427

 Side 1  free  transition at x/c =  0.9958   76
 Side 2  free  transition at x/c =  0.3471   44

  23   rms: 0.9942E-01   max: -.2182E+01   C at   44  2   RLX: 0.229
       a = -2.000      CL = -0.2529
      Cm = -0.0382     CD =  0.00924   =>   CDf =  0.00500    CDp =  0.00424

 Side 1  free  transition at x/c =  0.9959   76
 Side 2  free  transition at x/c =  0.3593   45

  24   rms: 0.7921E-01   max: -.1693E+01   C at   45  2   RLX: 0.295
       a = -2.000      CL = -0.2506
      Cm = -0.0386     CD =  0.00915   =>   CDf =  0.00495    CDp =  0.00420

 Side 1  free  transition at x/c =  0.9961   76
 Side 2  free  transition at x/c =  0.3722   45

  25   rms: 0.6083E-01   max: -.1320E+01   C at   45  2   RLX: 0.379
       a = -2.000      CL = -0.2488
      Cm = -0.0388     CD =  0.00911   =>   CDf =  0.00490    CDp =  0.00421

 Side 1  free  transition at x/c =  0.9962   76
 Side 2  free  transition at x/c =  0.3863   46

  26   rms: 0.3821E-01   max: -.8295E+00   C at   46  2   RLX: 0.603
       a = -2.000      CL = -0.2471
      Cm = -0.0391     CD =  0.00902   =>   CDf =  0.00484    CDp =  0.00418

 Side 1  free  transition at x/c =  0.9963   76
 Side 2  free  transition at x/c =  0.4009   47

  27   rms: 0.1551E-01   max: -.3344E+00   C at   47  2
       a = -2.000      CL = -0.2458
      Cm = -0.0393     CD =  0.00895   =>   CDf =  0.00478    CDp =  0.00418

 Side 1  free  transition at x/c =  0.9964   76
 Side 2  free  transition at x/c =  0.4098   48

  28   rms: 0.1740E-02   max: -.3619E-01   C at   48  2
       a = -2.000      CL = -0.2458
      Cm = -0.0393     CD =  0.00895   =>   CDf =  0.00475    CDp =  0.00420

 Side 1  free  transition at x/c =  0.9964   76
 Side 2  free  transition at x/c =  0.4107   48

  29   rms: 0.2586E-04   max: -.4344E-03   C at   48  2
       a = -2.000      CL = -0.2458
      Cm = -0.0393     CD =  0.00895   =>   CDf =  0.00474    CDp =  0.00421
 plradd ia,ip,cpol            5           0  5.82596054E-03

 Point added to stored polar  1
 Point written to save file  k2_Re600k.base.pol                              
 Dump file unspecified or not available
 Calculating wake trajectory ...
 Calculating source influence matrix ...

 Solving BL system ...

 Side 1  free  transition at x/c =  0.9964   76
 Side 2  free  transition at x/c =  0.4107   48

   1   rms: 0.8380E+00   max: -.1740E+02   C at   48  2   RLX: 0.029
       a = -1.500      CL = -0.2427
      Cm = -0.0397     CD =  0.00885   =>   CDf =  0.00474    CDp =  0.00411

 Side 1  free  transition at x/c =  0.9966   76
 Side 2  free  transition at x/c =  0.4240   48

   2   rms: 0.8409E+00   max: -.1780E+02   C at   48  2   RLX: 0.028
       a = -1.500      CL = -0.2397
      Cm = -0.0401     CD =  0.00880   =>   CDf =  0.00468    CDp =  0.00412

 Side 1  free  transition at x/c =  0.9967   76
 Side 2  free  transition at x/c =  0.4381   49

   3   rms: 0.8459E+00   max: -.1791E+02   C at   49  2   RLX: 0.028
       a = -1.500      CL = -0.2370
      Cm = -0.0405     CD =  0.00871   =>   CDf =  0.00462    CDp =  0.00409

 Side 1  free  transition at x/c =  0.9968   76
 Side 2  free  transition at x/c =  0.4529   50

   4   rms: 0.8207E+00   max: -.1735E+02   C at   50  2   RLX: 0.029
       a = -1.500      CL = -0.2341
      Cm = -0.0409     CD =  0.00862   =>   CDf =  0.00452    CDp =  0.00410

 Side 1  free  transition at x/c =  0.9970   77
 Side 2  free  transition at x/c =  0.4685   50

   5   rms: 0.9914E+00   max: -.1654E+02   C at   50  2   RLX: 0.030
       a = -1.500      CL = -0.2312
      Cm = -0.0413     CD =  0.00853   =>   CDf =  0.00450    CDp =  0.00403

 Side 1  free  transition at x/c =  0.9972   77
 Side 2  free  transition at x/c =  0.4820   51

   6   rms: 0.7181E+00   max: -.1473E+02   C at   51  2   RLX: 0.034
       a = -1.500      CL = -0.2277
      Cm = -0.0418     CD =  0.00845   =>   CDf =  0.00445    CDp =  0.00400

 Side 1  free  transition at x/c =  0.9974   77
 Side 2  free  transition at x/c =  0.4953   51

   7   rms: 0.6424E+00   max: -.1321E+02   C at   51  2   RLX: 0.038
       a = -1.500      CL = -0.2243
      Cm = -0.0422     CD =  0.00840   =>   CDf =  0.00439    CDp =  0.00401

 Side 1  free  transition at x/c =  0.9975   77
 Side 2  free  transition at x/c =  0.5110   52

   8   rms: 0.6373E+00   max: -.1308E+02   C at   52  2   RLX: 0.038
       a = -1.500      CL = -0.2212
      Cm = -0.0426     CD =  0.00831   =>   CDf =  0.00432    CDp =  0.00399

 Side 1  free  transition at x/c =  0.9977   77
 Side 2  free  transition at x/c =  0.5276   53

   9   rms: 0.5813E+00   max: -.1188E+02   C at   53  2   RLX: 0.042
       a = -1.500      CL = -0.2180
      Cm = -0.0430     CD =  0.00822   =>   CDf =  0.00425    CDp =  0.00397

 Side 1  free  transition at x/c =  0.9978   77
 Side 2  free  transition at x/c =  0.5457   54

  10   rms: 0.4468E+00   max: -.9041E+01   C at   54  2   RLX: 0.055
       a = -1.500      CL = -0.2143
      Cm = -0.0434     CD =  0.00814   =>   CDf =  0.00418    CDp =  0.00396

 Side 1  free  transition at x/c =  0.9980   77
 Side 2  free  transition at x/c =  0.5681   56

  11   rms: 0.4607E+00   max: -.9172E+01   C at   56  2   RLX: 0.055
       a = -1.500      CL = -0.2107
      Cm = -0.0437     CD =  0.00802   =>   CDf =  0.00408    CDp =  0.00393

 MRCHDU: Convergence failed at  77  side 1    Res =  0.6330E-05
 Side 1  free  transition at x/c =  0.9982   77
 Side 2  free  transition at x/c =  0.5816   56

  12   rms: 0.2510E+00   max: -.4923E+01   C at   56  2   RLX: 0.102
       a = -1.500      CL = -0.2047
      Cm = -0.0443     CD =  0.00799   =>   CDf =  0.00403    CDp =  0.00396

 Side 1  free  transition at x/c =  0.9983   77
 Side 2  free  transition at x/c =  0.6083   58

  13   rms: 0.2112E+00   max: -.4079E+01   C at   58  2   RLX: 0.123
       a = -1.500      CL = -0.1994
      Cm = -0.0445     CD =  0.00790   =>   CDf =  0.00391    CDp =  0.00398

 Side 1  free  transition at x/c =  0.9984   77
 Side 2  free  transition at x/c =  0.6284   59

  14   rms: 0.9595E-01   max: -.1512E+01   C at   59  2   RLX: 0.331
       a = -1.500      CL = -0.1865
      Cm = -0.0453     CD =  0.00788   =>   CDf =  0.00384    CDp =  0.00404

 Side 1  free  transition at x/c =  0.9982   77
 Side 2  free  transition at x/c =  0.6683   62

  15   rms: 0.5136E-01   max: -.5258E+00   C at   62  2   RLX: 0.951
       a = -1.500      CL = -0.1642
      Cm = -0.0459     CD =  0.00791   =>   CDf =  0.00368    CDp =  0.00423

 Side 1  free  transition at x/c =  0.9977   77
 Side 2  free  transition at x/c =  0.6780   62

  16   rms: 0.2353E-01   max: -.4224E+00   D at   63  2
       a = -1.500      CL = -0.1624
      Cm = -0.0462     CD =  0.00791   =>   CDf =  0.00375    CDp =  0.00415

 Side 1  free  transition at x/c =  0.9975   77
 Side 2  free  transition at x/c =  0.6922   63

  17   rms: 0.1565E-01   max: 0.2497E+00   C at   63  2
       a = -1.500      CL = -0.1625
      Cm = -0.0462     CD =  0.00790   =>   CDf =  0.00359    CDp =  0.00431

 Side 1  free  transition at x/c =  0.9976   77
 Side 2  free  transition at x/c =  0.6852   63

  18   rms: 0.7776E-03   max: -.9789E-02   D at   63  2
       a = -1.500      CL = -0.1625
      Cm = -0.0462     CD =  0.00791   =>   CDf =  0.00366    CDp =  0.00425

 Side 1  free  transition at x/c =  0.9975   77
 Side 2  free  transition at x/c =  0.6852   63

  19   rms: 0.5957E-05   max: 0.5838E-04   C at   63  2
       a = -1.500      CL = -0.1625
      Cm = -0.0462     CD =  0.00791   =>   CDf =  0.00366    CDp =  0.00425
 plradd ia,ip,cpol            6           0  5.82596054E-03

 Point added to stored polar  1
 Point written to save file  k2_Re600k.base.pol                              
 Dump file unspecified or not available
 Calculating wake trajectory ...
 Calculating source influence matrix ...

 Solving BL system ...

 Side 1  free  transition at x/c =  0.9975   77
 Side 2  free  transition at x/c =  0.6852   63

   1   rms: 0.1257E+00   max: -.9428E+00   C at   63  2   RLX: 0.530
       a = -1.000      CL = -0.1278
      Cm = -0.0470     CD =  0.00801   =>   CDf =  0.00362    CDp =  0.00439

 Side 1  free  transition at x/c =  0.9958   78
 Side 2  free  transition at x/c =  0.7001   63

   2   rms: 0.7026E-01   max: -.7071E+00   T at   63  2   RLX: 0.707
       a = -1.000      CL = -0.1034
      Cm = -0.0486     CD =  0.00797   =>   CDf =  0.00381    CDp =  0.00416

 Side 1  free  transition at x/c =  0.9945   78
 Side 2  free  transition at x/c =  0.7139   63

   3   rms: 0.4409E-01   max: -.4729E+00   D at   63  2
       a = -1.000      CL = -0.0839
      Cm = -0.0512     CD =  0.00820   =>   CDf =  0.00383    CDp =  0.00438

 MRCHDU: Convergence failed at  65  side 2    Res =  0.2700E+01
 MRCHDU: Convergence failed at  66  side 2    Res =  0.2118E+01
 MRCHDU: Convergence failed at  67  side 2    Res =  0.3944E+01
 MRCHDU: Convergence failed at  68  side 2    Res =  0.6330E+01
 MRCHDU: Convergence failed at  69  side 2    Res =  0.7948E+01
 MRCHDU: Convergence failed at  70  side 2    Res =  0.8122E+01
 MRCHDU: Convergence failed at  71  side 2    Res =  0.7699E+01
 MRCHDU: Convergence failed at  72  side 2    Res =  0.7073E+01
 MRCHDU: Convergence failed at  73  side 2    Res =  0.6546E+01
 MRCHDU: Convergence failed at  74  side 2    Res =  0.6216E+01
 MRCHDU: Convergence failed at  75  side 2    Res =  0.6103E+01
 MRCHDU: Convergence failed at  76  side 2    Res =  0.6965E+01
 MRCHDU: Convergence failed at  77  side 2    Res =  0.7085E+01
 MRCHDU: Convergence failed at  78  side 2    Res =  0.6932E+01
 MRCHDU: Convergence failed at  79  side 2    Res =  0.7079E+01
 MRCHDU: Convergence failed at  80  side 2    Res =  0.7181E+01
 MRCHDU: Convergence failed at  81  side 2    Res =  0.1015E+02
 MRCHDU: Convergence failed at  82  side 2    Res =  0.1278E+02
 MRCHDU: Convergence failed at  83  side 2    Res =  0.5237E+02
 MRCHDU: Convergence failed at  84  side 2    Res =  0.1546E+02
 Side 1  free  transition at x/c =  0.9943   78
 Side 2  free  transition at x/c =  0.7394   65

   4   rms: 0.2783E+00   max: -.1689E+01   D at   84  2   RLX: 0.296
       a = -1.000      CL = -0.1902
      Cm =  0.0029     CD =  0.00737   =>   CDf =  0.00313    CDp =  0.00424

 Side 1  free  transition at x/c =  0.9905   77
 Side 2  free  transition at x/c =  0.7270   64

   5   rms: 0.1666E+00   max: -.3621E+00   D at   84  2
       a = -1.000      CL = -0.0816
      Cm = -0.0518     CD =  0.00770   =>   CDf =  0.00421    CDp =  0.00349

 Side 1  free  transition at x/c =  0.9981   78
 Side 2  free  transition at x/c =  0.7328   64

   6   rms: 0.3407E-01   max: 0.2620E+00   T at   78  1
       a = -1.000      CL = -0.0914
      Cm = -0.0491     CD =  0.00816   =>   CDf =  0.00357    CDp =  0.00459

 Side 1  free  transition at x/c =  0.9937   77
 Side 2  free  transition at x/c =  0.7259   64

   7   rms: 0.1349E-01   max: -.1731E+00   T at   77  1
       a = -1.000      CL = -0.0865
      Cm = -0.0502     CD =  0.00827   =>   CDf =  0.00359    CDp =  0.00468

 Side 1  free  transition at x/c =  0.9960   78
 Side 2  free  transition at x/c =  0.7275   64

   8   rms: 0.2203E-01   max: 0.1615E+00   D at   78  1
       a = -1.000      CL = -0.0903
      Cm = -0.0494     CD =  0.00817   =>   CDf =  0.00359    CDp =  0.00458

 Side 1  free  transition at x/c =  0.9942   78
 Side 2  free  transition at x/c =  0.7269   64

   9   rms: 0.2039E-02   max: -.2068E-01   D at   78  1
       a = -1.000      CL = -0.0900
      Cm = -0.0494     CD =  0.00820   =>   CDf =  0.00358    CDp =  0.00461

 Side 1  free  transition at x/c =  0.9943   78
 Side 2  free  transition at x/c =  0.7270   64

  10   rms: 0.4589E-05   max: -.4629E-04   D at   78  1
       a = -1.000      CL = -0.0900
      Cm = -0.0494     CD =  0.00820   =>   CDf =  0.00358    CDp =  0.00461
 plradd ia,ip,cpol            7           0  5.82596054E-03

 Point added to stored polar  1
 Point written to save file  k2_Re600k.base.pol                              
 Dump file unspecified or not available
 Calculating wake trajectory ...
 Calculating source influence matrix ...

 Solving BL system ...

 Side 1  free  transition at x/c =  0.9943   78
 Side 2  free  transition at x/c =  0.7270   64

   1   rms: 0.1242E+00   max: -.4399E+00   T at   64  2
       a = -0.500      CL = -0.0010
      Cm = -0.0561     CD =  0.00855   =>   CDf =  0.00354    CDp =  0.00501

 MRCHDU: Convergence failed at  66  side 2    Res =  0.9838E+01
 MRCHDU: Convergence failed at  67  side 2    Res =  0.3633E+01
 MRCHDU: Convergence failed at  68  side 2    Res =  0.3909E+01
 MRCHDU: Convergence failed at  69  side 2    Res =  0.4625E+01
 MRCHDU: Convergence failed at  70  side 2    Res =  0.5552E+01
 MRCHDU: Convergence failed at  71  side 2    Res =  0.6579E+01
 MRCHDU: Convergence failed at  72  side 2    Res =  0.7771E+01
 MRCHDU: Convergence failed at  73  side 2    Res =  0.8771E+01
 MRCHDU: Convergence failed at  74  side 2    Res =  0.9592E+01
 MRCHDU: Convergence failed at  75  side 2    Res =  0.1004E+02
 MRCHDU: Convergence failed at  76  side 2    Res =  0.9966E+01
 MRCHDU: Convergence failed at  77  side 2    Res =  0.9411E+01
 MRCHDU: Convergence failed at  78  side 2    Res =  0.9428E+01
 MRCHDU: Convergence failed at  79  side 2    Res =  0.7644E+01
 MRCHDU: Convergence failed at  80  side 2    Res =  0.9962E+01
 MRCHDU: Convergence failed at  81  side 2    Res =  0.1216E+02
 MRCHDU: Convergence failed at  82  side 2    Res =  0.2489E+02
 MRCHDU: Convergence failed at  83  side 2    Res =  0.6009E+01
 Side 1  free  transition at x/c =  0.9784   77
 Side 2  free  transition at x/c =  0.7721   66

   2   rms: 0.2992E+00   max: -.1443E+01   D at   83  2   RLX: 0.347
       a = -0.500      CL = -0.1299
      Cm = -0.0010     CD =  0.00771   =>   CDf =  0.00314    CDp =  0.00457

 Side 1  free  transition at x/c =  0.9715   76
 Side 2  free  transition at x/c =  0.7518   65

   3   rms: 0.5785E+00   max: -.5252E+01   T at   76  1   RLX: 0.095
       a = -0.500      CL = -0.0847
      Cm = -0.0152     CD =  0.00976   =>   CDf =  0.00416    CDp =  0.00559

 Side 1  free  transition at x/c =  0.9824   77
 Side 2  free  transition at x/c =  0.7558   65

   4   rms: 0.1534E+00   max: -.2181E+00   D at   83  2
       a = -0.500      CL =  0.0184
      Cm = -0.0599     CD =  0.00830   =>   CDf =  0.00408    CDp =  0.00422

 Side 1  free  transition at x/c =  0.9875   78
 Side 2  free  transition at x/c =  0.7617   65

   5   rms: 0.4602E-01   max: 0.3204E+00   D at   79  1
       a = -0.500      CL =  0.0005
      Cm = -0.0555     CD =  0.00851   =>   CDf =  0.00349    CDp =  0.00502

 Side 1  free  transition at x/c =  0.9832   77
 Side 2  free  transition at x/c =  0.7586   65

   6   rms: 0.4648E-02   max: -.4943E-01   D at   78  1
       a = -0.500      CL =  0.0011
      Cm = -0.0557     CD =  0.00858   =>   CDf =  0.00350    CDp =  0.00507

 Side 1  free  transition at x/c =  0.9831   77
 Side 2  free  transition at x/c =  0.7590   65

   7   rms: 0.1091E-02   max: 0.1377E-01   T at   77  1
       a = -0.500      CL =  0.0004
      Cm = -0.0555     CD =  0.00857   =>   CDf =  0.00350    CDp =  0.00507

 Side 1  free  transition at x/c =  0.9829   77
 Side 2  free  transition at x/c =  0.7590   65

   8   rms: 0.8361E-04   max: -.8995E-03   T at   77  1
       a = -0.500      CL =  0.0005
      Cm = -0.0555     CD =  0.00857   =>   CDf =  0.00350    CDp =  0.00507
 plradd ia,ip,cpol            8           0  1.01707708E-02

 Point added to stored polar  1
 Point written to save file  k2_Re600k.base.pol                              
 Dump file unspecified or not available
 Calculating wake trajectory ...
 Calculating source influence matrix ...

 Solving BL system ...

 Side 1  free  transition at x/c =  0.9830   77
 Side 2  free  transition at x/c =  0.7590   65

   1   rms: 0.1901E+00   max: 0.2941E+01   T at   77  1   RLX: 0.236
       a =  0.000      CL = -0.0033
      Cm = -0.0517     CD =  0.00832   =>   CDf =  0.00350    CDp =  0.00482

 Side 1  free  transition at x/c =  0.9716   76
 Side 2  free  transition at x/c =  0.7613   65

   2   rms: 0.1115E+00   max: -.3238E+00   D at   84  2
       a =  0.000      CL =  0.0689
      Cm = -0.0573     CD =  0.00807   =>   CDf =  0.00345    CDp =  0.00462

 Side 1  free  transition at x/c =  0.9634   77
 Side 2  free  transition at x/c =  0.7669   65

   3   rms: 0.4204E-01   max: -.2175E+00   D at   79  1
       a =  0.000      CL =  0.0820
      Cm = -0.0601     CD =  0.00814   =>   CDf =  0.00354    CDp =  0.00461

 Side 1  free  transition at x/c =  0.9671   77
 Side 2  free  transition at x/c =  0.7688   65

   4   rms: 0.7845E-02   max: -.4191E-01   D at   87  2
       a =  0.000      CL =  0.0847
      Cm = -0.0607     CD =  0.00818   =>   CDf =  0.00350    CDp =  0.00468

 Side 1  free  transition at x/c =  0.9678   77
 Side 2  free  transition at x/c =  0.7685   65

   5   rms: 0.1701E-03   max: -.1213E-02   D at   67  2
       a =  0.000      CL =  0.0848
      Cm = -0.0607     CD =  0.00818   =>   CDf =  0.00351    CDp =  0.00467

 Side 1  free  transition at x/c =  0.9678   77
 Side 2  free  transition at x/c =  0.7685   65

   6   rms: 0.1438E-05   max: 0.9210E-05   D at   87  2
       a =  0.000      CL =  0.0848
      Cm = -0.0607     CD =  0.00818   =>   CDf =  0.00351    CDp =  0.00467
 plradd ia,ip,cpol            9           0  5.60348928E-02

 Point added to stored polar  1
 Point written to save file  k2_Re600k.base.pol                              
 Dump file unspecified or not available
 Calculating wake trajectory ...
 Calculating source influence matrix ...

 Solving BL system ...

 Side 1  free  transition at x/c =  0.9678   77
 Side 2  free  transition at x/c =  0.7685   65

   1   rms: 0.1049E+00   max: 0.7053E+00   T at   77  1
       a =  0.500      CL =  0.1430
      Cm = -0.0599     CD =  0.00775   =>   CDf =  0.00346    CDp =  0.00429

 Side 1  free  transition at x/c =  0.9529   77
 Side 2  free  transition at x/c =  0.7759   64

   2   rms: 0.3216E-01   max: -.2183E+00   D at   81  1
       a =  0.500      CL =  0.1635
      Cm = -0.0643     CD =  0.00787   =>   CDf =  0.00344    CDp =  0.00443

 Side 1  free  transition at x/c =  0.9596   78
 Side 2  free  transition at x/c =  0.7748   64

   3   rms: 0.1836E-01   max: 0.1245E+00   D at   79  1
       a =  0.500      CL =  0.1648
      Cm = -0.0647     CD =  0.00792   =>   CDf =  0.00343    CDp =  0.00448

 Side 1  free  transition at x/c =  0.9587   77
 Side 2  free  transition at x/c =  0.7748   64

   4   rms: 0.4442E-01   max: -.3055E+00   T at   77  1
       a =  0.500      CL =  0.1984
      Cm = -0.0719     CD =  0.00778   =>   CDf =  0.00343    CDp =  0.00435

 MRCHDU: Convergence failed at  79  side 1    Res =  0.4959E+01
 MRCHDU: Convergence failed at  80  side 1    Res =  0.3133E+01
 MRCHDU: Convergence failed at  81  side 1    Res =  0.3942E+01
 Side 1  free  transition at x/c =  0.9762   79
 Side 2  free  transition at x/c =  0.7745   64

   5   rms: 0.1475E+00   max: 0.1538E+01   C at   79  1   RLX: 0.975
       a =  0.500      CL =  0.1710
      Cm = -0.0664     CD =  0.00683   =>   CDf =  0.00343    CDp =  0.00340

 Side 1  free  transition at x/c =  0.9581   77
 Side 2  free  transition at x/c =  0.7747   64

   6   rms: 0.2204E-01   max: -.2998E+00   D at   78  1
       a =  0.500      CL =  0.1542
      Cm = -0.0624     CD =  0.00799   =>   CDf =  0.00343    CDp =  0.00456

 Side 1  free  transition at x/c =  0.9554   77
 Side 2  free  transition at x/c =  0.7749   64

   7   rms: 0.6463E-02   max: -.4387E-01   D at   80  1
       a =  0.500      CL =  0.1582
      Cm = -0.0633     CD =  0.00796   =>   CDf =  0.00343    CDp =  0.00453

 Side 1  free  transition at x/c =  0.9567   77
 Side 2  free  transition at x/c =  0.7748   64

   8   rms: 0.1941E-02   max: -.1263E-01   D at   80  1
       a =  0.500      CL =  0.1596
      Cm = -0.0635     CD =  0.00796   =>   CDf =  0.00343    CDp =  0.00452

 Side 1  free  transition at x/c =  0.9571   77
 Side 2  free  transition at x/c =  0.7748   64

   9   rms: 0.2564E-03   max: -.1641E-02   D at   81  1
       a =  0.500      CL =  0.1598
      Cm = -0.0636     CD =  0.00796   =>   CDf =  0.00343    CDp =  0.00452

 Side 1  free  transition at x/c =  0.9572   77
 Side 2  free  transition at x/c =  0.7748   64

  10   rms: 0.8371E-05   max: -.6408E-04   T at   77  1
       a =  0.500      CL =  0.1598
      Cm = -0.0636     CD =  0.00796   =>   CDf =  0.00343    CDp =  0.00452
 plradd ia,ip,cpol           10           0  4.86039259E-02

 Point added to stored polar  1
 Point written to save file  k2_Re600k.base.pol                              
 Dump file unspecified or not available
 Calculating wake trajectory ...
 Calculating source influence matrix ...

 Solving BL system ...

 Side 1  free  transition at x/c =  0.9572   77
 Side 2  free  transition at x/c =  0.7748   64

   1   rms: 0.9244E-01   max: 0.9457E+00   T at   77  1   RLX: 0.643
       a =  1.000      CL =  0.1516
      Cm = -0.0535     CD =  0.00818   =>   CDf =  0.00343    CDp =  0.00474

 Side 1  free  transition at x/c =  0.9337   76
 Side 2  free  transition at x/c =  0.7811   64

   2   rms: 0.1185E+00   max: -.5482E+00   D at   80  1   RLX: 0.912
       a =  1.000      CL =  0.2209
      Cm = -0.0640     CD =  0.00773   =>   CDf =  0.00335    CDp =  0.00437

 Side 1  free  transition at x/c =  0.9518   78
 Side 2  free  transition at x/c =  0.7845   64

   3   rms: 0.3057E-01   max: 0.2448E+00   D at   79  1
       a =  1.000      CL =  0.2287
      Cm = -0.0655     CD =  0.00775   =>   CDf =  0.00340    CDp =  0.00435

 Side 1  free  transition at x/c =  0.9461   78
 Side 2  free  transition at x/c =  0.7849   64

   4   rms: 0.2024E-02   max: -.2823E-01   D at   78  1
       a =  1.000      CL =  0.2283
      Cm = -0.0654     CD =  0.00780   =>   CDf =  0.00338    CDp =  0.00441

 Side 1  free  transition at x/c =  0.9462   78
 Side 2  free  transition at x/c =  0.7847   64

   5   rms: 0.6569E-04   max: 0.5288E-03   D at   81  1
       a =  1.000      CL =  0.2283
      Cm = -0.0654     CD =  0.00780   =>   CDf =  0.00338    CDp =  0.00441
 plradd ia,ip,cpol           11           0  4.86039259E-02

 Point added to stored polar  1
 Point written to save file  k2_Re600k.base.pol                              
 Dump file unspecified or not available
 Calculating wake trajectory ...
 Calculating source influence matrix ...

 Solving BL system ...

 Side 1  free  transition at x/c =  0.9462   78
 Side 2  free  transition at x/c =  0.7847   64

   1   rms: 0.1098E+00   max: -.2196E+00   T at   64  2
       a =  1.500      CL =  0.3045
      Cm = -0.0687     CD =  0.00739   =>   CDf =  0.00339    CDp =  0.00401

 Side 1  free  transition at x/c =  0.9263   76
 Side 2  free  transition at x/c =  0.7856   64

   2   rms: 0.5135E-01   max: 0.5686E+00   D at    2  2
       a =  1.500      CL =  0.2840
      Cm = -0.0643     CD =  0.00759   =>   CDf =  0.00327    CDp =  0.00432

 Side 1  free  transition at x/c =  0.9238   76
 Side 2  free  transition at x/c =  0.7882   64

   3   rms: 0.4169E-02   max: -.2748E-01   D at   64  2
       a =  1.500      CL =  0.2831
      Cm = -0.0641     CD =  0.00758   =>   CDf =  0.00329    CDp =  0.00428

 Side 1  free  transition at x/c =  0.9232   76
 Side 2  free  transition at x/c =  0.7884   64

   4   rms: 0.8708E-04   max: -.6158E-03   D at   77  1
       a =  1.500      CL =  0.2831
      Cm = -0.0641     CD =  0.00757   =>   CDf =  0.00329    CDp =  0.00428
 plradd ia,ip,cpol           12           0  3.88850272E-03

 Point added to stored polar  1
 Point written to save file  k2_Re600k.base.pol                              
 Dump file unspecified or not available
 Calculating wake trajectory ...
 Calculating source influence matrix ...

 Solving BL system ...

 Side 1  free  transition at x/c =  0.9232   76
 Side 2  free  transition at x/c =  0.7884   64

   1   rms: 0.1012E+00   max: -.1510E+00   T at   64  2
       a =  2.000      CL =  0.3408
      Cm = -0.0634     CD =  0.00725   =>   CDf =  0.00325    CDp =  0.00400

 Side 1  free  transition at x/c =  0.7774   68
 Side 2  free  transition at x/c =  0.7916   63

   2   rms: 0.4256E-01   max: 0.6475E+00   C at   68  1
       a =  2.000      CL =  0.3630
      Cm = -0.0678     CD =  0.00760   =>   CDf =  0.00372    CDp =  0.00388

 Side 1  free  transition at x/c =  0.6996   64
 Side 2  free  transition at x/c =  0.7914   63

   3   rms: 0.2945E-01   max: -.5879E+00   C at   64  1   RLX: 0.850
       a =  2.000      CL =  0.3601
      Cm = -0.0671     CD =  0.00777   =>   CDf =  0.00409    CDp =  0.00369

 Side 1  free  transition at x/c =  0.7194   65
 Side 2  free  transition at x/c =  0.7914   63

   4   rms: 0.9037E-03   max: 0.1053E-01   D at   64  1
       a =  2.000      CL =  0.3596
      Cm = -0.0670     CD =  0.00776   =>   CDf =  0.00398    CDp =  0.00377

 Side 1  free  transition at x/c =  0.7240   65
 Side 2  free  transition at x/c =  0.7914   63

   5   rms: 0.2964E-02   max: 0.5834E-01   C at   65  1
       a =  2.000      CL =  0.3598
      Cm = -0.0671     CD =  0.00775   =>   CDf =  0.00396    CDp =  0.00378

 Side 1  free  transition at x/c =  0.7221   65
 Side 2  free  transition at x/c =  0.7914   63

   6   rms: 0.4956E-04   max: -.9870E-03   C at   65  1
       a =  2.000      CL =  0.3598
      Cm = -0.0671     CD =  0.00775   =>   CDf =  0.00397    CDp =  0.00377
 plradd ia,ip,cpol           13           0  2.29614135E-03

 Point added to stored polar  1
 Point written to save file  k2_Re600k.base.pol                              
 Dump file unspecified or not available
 Calculating wake trajectory ...
 Calculating source influence matrix ...

 Solving BL system ...

 Side 1  free  transition at x/c =  0.7221   65
 Side 2  free  transition at x/c =  0.7914   63

   1   rms: 0.7782E+00   max: 0.1548E+02   C at   65  1   RLX: 0.097
       a =  2.500      CL =  0.3608
      Cm = -0.0661     CD =  0.00802   =>   CDf =  0.00397    CDp =  0.00405

 Side 1  free  transition at x/c =  0.6761   62
 Side 2  free  transition at x/c =  0.7919   63

   2   rms: 0.5219E+00   max: 0.1031E+02   C at   62  1   RLX: 0.146
       a =  2.500      CL =  0.3639
      Cm = -0.0651     CD =  0.00829   =>   CDf =  0.00419    CDp =  0.00410

 Side 1  free  transition at x/c =  0.6171   59
 Side 2  free  transition at x/c =  0.7926   63

   3   rms: 0.3602E+00   max: 0.7369E+01   C at   59  1   RLX: 0.204
       a =  2.500      CL =  0.3683
      Cm = -0.0641     CD =  0.00865   =>   CDf =  0.00445    CDp =  0.00421

 Side 1  free  transition at x/c =  0.5546   56
 Side 2  free  transition at x/c =  0.7934   63

   4   rms: 0.2539E+00   max: 0.5258E+01   C at   56  1   RLX: 0.285
       a =  2.500      CL =  0.3735
      Cm = -0.0632     CD =  0.00907   =>   CDf =  0.00470    CDp =  0.00437

 Side 1  free  transition at x/c =  0.4943   53
 Side 2  free  transition at x/c =  0.7943   62

   5   rms: 0.1648E+00   max: 0.3334E+01   C at   53  1   RLX: 0.450
       a =  2.500      CL =  0.3818
      Cm = -0.0627     CD =  0.00932   =>   CDf =  0.00496    CDp =  0.00436

 Side 1  free  transition at x/c =  0.4265   50
 Side 2  free  transition at x/c =  0.7954   62

   6   rms: 0.7146E-01   max: 0.1432E+01   C at   50  1
       a =  2.500      CL =  0.3915
      Cm = -0.0623     CD =  0.00980   =>   CDf =  0.00525    CDp =  0.00455

 Side 1  free  transition at x/c =  0.3611   46
 Side 2  free  transition at x/c =  0.7968   62

   7   rms: 0.1311E-01   max: -.2121E+00   C at   46  1
       a =  2.500      CL =  0.3921
      Cm = -0.0624     CD =  0.00976   =>   CDf =  0.00552    CDp =  0.00424

 Side 1  free  transition at x/c =  0.3670   46
 Side 2  free  transition at x/c =  0.7969   62

   8   rms: 0.4612E-03   max: 0.7075E-02   C at   46  1
       a =  2.500      CL =  0.3920
      Cm = -0.0624     CD =  0.00976   =>   CDf =  0.00549    CDp =  0.00427

 Side 1  free  transition at x/c =  0.3669   46
 Side 2  free  transition at x/c =  0.7969   62

   9   rms: 0.1399E-05   max: -.1521E-04   C at   46  1
       a =  2.500      CL =  0.3920
      Cm = -0.0624     CD =  0.00976   =>   CDf =  0.00549    CDp =  0.00427
 plradd ia,ip,cpol           14           0  2.29614135E-03

 Point added to stored polar  1
 Point written to save file  k2_Re600k.base.pol                              
 Dump file unspecified or not available
 Calculating wake trajectory ...
 Calculating source influence matrix ...

 Solving BL system ...

 Side 1  free  transition at x/c =  0.3669   46
 Side 2  free  transition at x/c =  0.7969   62

   1   rms: 0.4165E+00   max: 0.8941E+01   C at   46  1   RLX: 0.168
       a =  3.000      CL =  0.4001
      Cm = -0.0622     CD =  0.00999   =>   CDf =  0.00549    CDp =  0.00450

 Side 1  free  transition at x/c =  0.3256   44
 Side 2  free  transition at x/c =  0.7979   62

   2   rms: 0.1818E+00   max: 0.2946E+01   C at   44  1   RLX: 0.437
       a =  3.000      CL =  0.4180
      Cm = -0.0620     CD =  0.01052   =>   CDf =  0.00572    CDp =  0.00481

 Side 1  free  transition at x/c =  0.2486   39
 Side 2  free  transition at x/c =  0.7998   62

   3   rms: 0.1186E+00   max: 0.2069E+01   C at   39  1   RLX: 0.564
       a =  3.000      CL =  0.4324
      Cm = -0.0622     CD =  0.01083   =>   CDf =  0.00602    CDp =  0.00480

 Side 1  free  transition at x/c =  0.2032   36
 Side 2  free  transition at x/c =  0.8014   63

   4   rms: 0.4158E-01   max: 0.7137E+00   C at   36  1
       a =  3.000      CL =  0.4431
      Cm = -0.0620     CD =  0.01092   =>   CDf =  0.00623    CDp =  0.00469

 Side 1  free  transition at x/c =  0.1756   34
 Side 2  free  transition at x/c =  0.8019   63

   5   rms: 0.6638E-02   max: -.1397E+00   C at   34  1
       a =  3.000      CL =  0.4428
      Cm = -0.0620     CD =  0.01094   =>   CDf =  0.00637    CDp =  0.00457

 Side 1  free  transition at x/c =  0.1767   35
 Side 2  free  transition at x/c =  0.8018   63

   6   rms: 0.3921E-02   max: -.5486E-01   C at   35  1
       a =  3.000      CL =  0.4428
      Cm = -0.0620     CD =  0.01093   =>   CDf =  0.00636    CDp =  0.00457

 Side 1  free  transition at x/c =  0.1782   35
 Side 2  free  transition at x/c =  0.8018   63

   7   rms: 0.4741E-03   max: 0.8127E-02   C at   35  1
       a =  3.000      CL =  0.4428
      Cm = -0.0620     CD =  0.01093   =>   CDf =  0.00635    CDp =  0.00459

 Side 1  free  transition at x/c =  0.1779   35
 Side 2  free  transition at x/c =  0.8018   63

   8   rms: 0.3143E-05   max: 0.4008E-04   C at   35  1
       a =  3.000      CL =  0.4428
      Cm = -0.0620     CD =  0.01093   =>   CDf =  0.00635    CDp =  0.00458
 plradd ia,ip,cpol           15           0  2.29614135E-03

 Point added to stored polar  1
 Point written to save file  k2_Re600k.base.pol                              
 Dump file unspecified or not available
 Calculating wake trajectory ...
 Calculating source influence matrix ...

 Solving BL system ...

 Side 1  free  transition at x/c =  0.1779   35
 Side 2  free  transition at x/c =  0.8018   63

   1   rms: 0.2088E+00   max: 0.3179E+01   C at   35  1   RLX: 0.258
       a =  3.500      CL =  0.4548
      Cm = -0.0615     CD =  0.01122   =>   CDf =  0.00632    CDp =  0.00490

 Side 1  free  transition at x/c =  0.1537   34
 Side 2  free  transition at x/c =  0.8026   62

   2   rms: 0.1109E+00   max: 0.1933E+01   C at   34  1   RLX: 0.776
       a =  3.500      CL =  0.4844
      Cm = -0.0609     CD =  0.01146   =>   CDf =  0.00645    CDp =  0.00502

 Side 1  free  transition at x/c =  0.1208   32
 Side 2  free  transition at x/c =  0.8042   62

   3   rms: 0.1857E-01   max: -.1600E+00   D at   32  1
       a =  3.500      CL =  0.4932
      Cm = -0.0607     CD =  0.01155   =>   CDf =  0.00659    CDp =  0.00497

 Side 1  free  transition at x/c =  0.1162   32
 Side 2  free  transition at x/c =  0.8046   62

   4   rms: 0.4573E-03   max: -.4773E-02   D at   34  1
       a =  3.500      CL =  0.4931
      Cm = -0.0607     CD =  0.01156   =>   CDf =  0.00661    CDp =  0.00495

 Side 1  free  transition at x/c =  0.1162   32
 Side 2  free  transition at x/c =  0.8046   62

   5   rms: 0.7878E-06   max: -.6108E-05   D at   34  1
       a =  3.500      CL =  0.4931
      Cm = -0.0607     CD =  0.01156   =>   CDf =  0.00661    CDp =  0.00495
 plradd ia,ip,cpol           16           0  2.29614135E-03

 Point added to stored polar  1
 Point written to save file  k2_Re600k.base.pol                              
 Dump file unspecified or not available
 Calculating wake trajectory ...
 Calculating source influence matrix ...

 Solving BL system ...

 Side 1  free  transition at x/c =  0.1162   32
 Side 2  free  transition at x/c =  0.8046   62

   1   rms: 0.1113E+00   max: 0.9288E+00   C at   32  1   RLX: 0.559
       a =  4.000      CL =  0.5216
      Cm = -0.0601     CD =  0.01192   =>   CDf =  0.00661    CDp =  0.00531

 Side 1  free  transition at x/c =  0.0987   31
 Side 2  free  transition at x/c =  0.8061   62

   2   rms: 0.4604E-01   max: -.3066E+00   D at   32  1
       a =  4.000      CL =  0.5454
      Cm = -0.0599     CD =  0.01210   =>   CDf =  0.00664    CDp =  0.00546

 Side 1  free  transition at x/c =  0.0848   30
 Side 2  free  transition at x/c =  0.8078   61

   3   rms: 0.1277E-01   max: 0.1965E+00   D at   31  1
       a =  4.000      CL =  0.5455
      Cm = -0.0599     CD =  0.01207   =>   CDf =  0.00675    CDp =  0.00532

 Side 1  free  transition at x/c =  0.0865   31
 Side 2  free  transition at x/c =  0.8077   61

   4   rms: 0.1077E-02   max: -.1551E-01   D at   30  1
       a =  4.000      CL =  0.5456
      Cm = -0.0599     CD =  0.01206   =>   CDf =  0.00672    CDp =  0.00534

 Side 1  free  transition at x/c =  0.0864   31
 Side 2  free  transition at x/c =  0.8077   61

   5   rms: 0.1890E-04   max: -.2769E-03   D at   31  1
       a =  4.000      CL =  0.5456
      Cm = -0.0599     CD =  0.01206   =>   CDf =  0.00672    CDp =  0.00534
 plradd ia,ip,cpol           17           0  2.29614135E-03

 Point added to stored polar  1
 Point written to save file  k2_Re600k.base.pol                              
 Dump file unspecified or not available
 Calculating wake trajectory ...
 Calculating source influence matrix ...

 Solving BL system ...

 Side 1  free  transition at x/c =  0.0864   31
 Side 2  free  transition at x/c =  0.8077   61

   1   rms: 0.1145E+00   max: -.1003E+01   D at   31  1   RLX: 0.499
       a =  4.500      CL =  0.5713
      Cm = -0.0595     CD =  0.01243   =>   CDf =  0.00672    CDp =  0.00570

 Side 1  free  transition at x/c =  0.0674   29
 Side 2  free  transition at x/c =  0.8095   61

   2   rms: 0.8243E-01   max: -.1136E+01   D at   29  1   RLX: 0.440
       a =  4.500      CL =  0.5829
      Cm = -0.0594     CD =  0.01253   =>   CDf =  0.00679    CDp =  0.00573

 Side 1  free  transition at x/c =  0.0510   27
 Side 2  free  transition at x/c =  0.8104   61

   3   rms: 0.1373E+00   max: 0.2590E+01   C at   27  1   RLX: 0.429
       a =  4.500      CL =  0.5886
      Cm = -0.0592     CD =  0.01278   =>   CDf =  0.00689    CDp =  0.00590

 Side 1  free  transition at x/c =  0.0372   25
 Side 2  free  transition at x/c =  0.8110   61

   4   rms: 0.8916E-01   max: 0.1373E+01   C at   25  1   RLX: 0.641
       a =  4.500      CL =  0.5928
      Cm = -0.0590     CD =  0.01309   =>   CDf =  0.00701    CDp =  0.00608

 Side 1  free  transition at x/c =  0.0304   23
 Side 2  free  transition at x/c =  0.8114   61

   5   rms: 0.2639E-01   max: -.2312E+00   D at   23  1
       a =  4.500      CL =  0.5967
      Cm = -0.0590     CD =  0.01305   =>   CDf =  0.00707    CDp =  0.00598

 Side 1  free  transition at x/c =  0.0274   23
 Side 2  free  transition at x/c =  0.8117   61

   6   rms: 0.3860E-02   max: 0.4166E-01   D at   24  1
       a =  4.500      CL =  0.5966
      Cm = -0.0590     CD =  0.01306   =>   CDf =  0.00709    CDp =  0.00598

 Side 1  free  transition at x/c =  0.0277   23
 Side 2  free  transition at x/c =  0.8117   61

   7   rms: 0.3479E-03   max: -.3038E-02   D at   24  1
       a =  4.500      CL =  0.5966
      Cm = -0.0590     CD =  0.01307   =>   CDf =  0.00708    CDp =  0.00598

 Side 1  free  transition at x/c =  0.0277   23
 Side 2  free  transition at x/c =  0.8117   61

   8   rms: 0.4622E-05   max: -.3174E-04   D at   24  1
       a =  4.500      CL =  0.5966
      Cm = -0.0590     CD =  0.01307   =>   CDf =  0.00708    CDp =  0.00598
 plradd ia,ip,cpol           18           0  2.29614135E-03

 Point added to stored polar  1
 Point written to save file  k2_Re600k.base.pol                              
 Dump file unspecified or not available
 Calculating wake trajectory ...
 Calculating source influence matrix ...

 Solving BL system ...

 Side 1  free  transition at x/c =  0.0277   23
 Side 2  free  transition at x/c =  0.8117   61

   1   rms: 0.1987E+00   max: 0.1541E+01   T at   23  1   RLX: 0.329
       a =  5.000      CL =  0.6129
      Cm = -0.0586     CD =  0.01359   =>   CDf =  0.00708    CDp =  0.00650

 Side 1  free  transition at x/c =  0.0232   22
 Side 2  free  transition at x/c =  0.8130   61

   2   rms: 0.9052E-01   max: -.9734E+00   D at   23  1   RLX: 0.514
       a =  5.000      CL =  0.6329
      Cm = -0.0589     CD =  0.01372   =>   CDf =  0.00687    CDp =  0.00684

 Side 1  free  transition at x/c =  0.0219   22
 Side 2  free  transition at x/c =  0.8145   60

   3   rms: 0.4424E-01   max: -.4128E+00   D at   24  1
       a =  5.000      CL =  0.6527
      Cm = -0.0590     CD =  0.01369   =>   CDf =  0.00706    CDp =  0.00663

 Side 1  free  transition at x/c =  0.0195   22
 Side 2  free  transition at x/c =  0.8160   60

   4   rms: 0.1001E-01   max: -.8505E-01   D at   22  1
       a =  5.000      CL =  0.6519
      Cm = -0.0589     CD =  0.01386   =>   CDf =  0.00710    CDp =  0.00676

 Side 1  free  transition at x/c =  0.0197   22
 Side 2  free  transition at x/c =  0.8161   60

   5   rms: 0.1358E-03   max: -.1150E-02   D at   24  1
       a =  5.000      CL =  0.6518
      Cm = -0.0589     CD =  0.01387   =>   CDf =  0.00711    CDp =  0.00676

 Side 1  free  transition at x/c =  0.0197   22
 Side 2  free  transition at x/c =  0.8161   60

   6   rms: 0.7543E-06   max: 0.7648E-05   D at   22  1
       a =  5.000      CL =  0.6518
      Cm = -0.0589     CD =  0.01387   =>   CDf =  0.00711    CDp =  0.00676
 plradd ia,ip,cpol           19           0  2.29614135E-03

 Point added to stored polar  1
 Point written to save file  k2_Re600k.base.pol                              
 Dump file unspecified or not available
 Calculating wake trajectory ...
 Calculating source influence matrix ...

 Solving BL system ...

 Side 1  free  transition at x/c =  0.0197   22
 Side 2  free  transition at x/c =  0.8161   60

   1   rms: 0.1221E+00   max: 0.7408E+00   T at   22  1
       a =  5.500      CL =  0.7063
      Cm = -0.0589     CD =  0.01516   =>   CDf =  0.00711    CDp =  0.00805

 MRCHDU: Convergence failed at  22  side 1    Res =  0.8384E+01
 MRCHDU: Convergence failed at  23  side 1    Res =  0.1519E+02
 MRCHDU: Convergence failed at  24  side 1    Res =  0.1473E+02
 MRCHDU: Convergence failed at  25  side 1    Res =  0.8362E+01
 MRCHDU: Convergence failed at  26  side 1    Res =  0.5697E+01
 MRCHDU: Convergence failed at  27  side 1    Res =  0.4606E+01
 MRCHDU: Convergence failed at  28  side 1    Res =  0.4255E+01
 MRCHDU: Convergence failed at  29  side 1    Res =  0.4603E+01
 MRCHDU: Convergence failed at  30  side 1    Res =  0.5051E+01
 MRCHDU: Convergence failed at  31  side 1    Res =  0.6634E+01
 MRCHDU: Convergence failed at  32  side 1    Res =  0.8860E+01
 MRCHDU: Convergence failed at  33  side 1    Res =  0.1146E+02
 MRCHDU: Convergence failed at  34  side 1    Res =  0.1369E+02
 MRCHDU: Convergence failed at  35  side 1    Res =  0.1406E+02
 MRCHDU: Convergence failed at  36  side 1    Res =  0.1300E+02
 MRCHDU: Convergence failed at  37  side 1    Res =  0.1201E+02
 MRCHDU: Convergence failed at  38  side 1    Res =  0.2106E+02
 MRCHDU: Convergence failed at  39  side 1    Res =  0.2349E+02
 MRCHDU: Convergence failed at  40  side 1    Res =  0.3228E+02
 MRCHDU: Convergence failed at  41  side 1    Res =  0.3548E+02
 MRCHDU: Convergence failed at  42  side 1    Res =  0.1084E+03
 MRCHDU: Convergence failed at  43  side 1    Res =  0.3972E+02
 MRCHDU: Convergence failed at  44  side 1    Res =  0.3226E+02
 MRCHDU: Convergence failed at  45  side 1    Res =  0.2132E+03
 MRCHDU: Convergence failed at  46  side 1    Res =  0.5725E+02
 MRCHDU: Convergence failed at  47  side 1    Res =  0.2230E+03
 MRCHDU: Convergence failed at  48  side 1    Res =  0.1892E+02
 MRCHDU: Convergence failed at  49  side 1    Res =  0.4906E+02
 MRCHDU: Convergence failed at  50  side 1    Res =  0.2019E+02
 MRCHDU: Convergence failed at  51  side 1    Res =  0.2050E+02
 MRCHDU: Convergence failed at  52  side 1    Res =  0.1770E+02
 MRCHDU: Convergence failed at  53  side 1    Res =  0.1774E+02
 MRCHDU: Convergence failed at  54  side 1    Res =  0.1778E+02
 MRCHDU: Convergence failed at  55  side 1    Res =  0.1787E+02
 MRCHDU: Convergence failed at  56  side 1    Res =  0.1796E+02
 MRCHDU: Convergence failed at  57  side 1    Res =  0.1804E+02
 MRCHDU: Convergence failed at  58  side 1    Res =  0.1811E+02
 MRCHDU: Convergence failed at  59  side 1    Res =  0.1823E+02
 MRCHDU: Convergence failed at  60  side 1    Res =  0.2277E+02
 MRCHDU: Convergence failed at  61  side 1    Res =  0.2347E+02
 MRCHDU: Convergence failed at  62  side 1    Res =  0.2415E+02
 MRCHDU: Convergence failed at  63  side 1    Res =  0.2493E+02
 MRCHDU: Convergence failed at  64  side 1    Res =  0.2568E+02
 MRCHDU: Convergence failed at  65  side 1    Res =  0.2629E+02
 MRCHDU: Convergence failed at  66  side 1    Res =  0.2695E+02
 MRCHDU: Convergence failed at  67  side 1    Res =  0.2766E+02
 MRCHDU: Convergence failed at  68  side 1    Res =  0.2842E+02
 MRCHDU: Convergence failed at  69  side 1    Res =  0.2890E+02
 MRCHDU: Convergence failed at  70  side 1    Res =  0.2906E+02
 MRCHDU: Convergence failed at  71  side 1    Res =  0.2299E+02
 MRCHDU: Convergence failed at  72  side 1    Res =  0.2006E+02
 MRCHDU: Convergence failed at  73  side 1    Res =  0.2768E+02
 MRCHDU: Convergence failed at  74  side 1    Res =  0.2885E+02
 MRCHDU: Convergence failed at  75  side 1    Res =  0.2863E+02
 MRCHDU: Convergence failed at  76  side 1    Res =  0.2559E+02
 MRCHDU: Convergence failed at  77  side 1    Res =  0.2780E+02
 MRCHDU: Convergence failed at  78  side 1    Res =  0.4852E+02
 MRCHDU: Convergence failed at  79  side 1    Res =  0.2605E+02
 MRCHDU: Convergence failed at  80  side 1    Res =  0.3543E+02
 MRCHDU: Convergence failed at  81  side 1    Res =  0.9697E+02
 MRCHDU: Convergence failed at  82  side 1    Res =  0.6673E+02
 MRCHDU: Convergence failed at  83  side 1    Res =  0.1125E+04
 MRCHDU: Convergence failed at  84  side 1    Res =  0.2382E+03
 MRCHDU: Convergence failed at  85  side 1    Res =  0.3680E+02
 MRCHDU: Convergence failed at  86  side 1    Res =  0.3032E+02
 MRCHDU: Convergence failed at  87  side 1    Res =  0.4587E+02
 Side 1  free  transition at x/c =  0.0169   21
 Side 2  free  transition at x/c =  0.8211   61

   2   rms: 0.1240E+01   max: 0.4100E+01   D at   77  2   RLX: 0.366
       a =  5.500      CL =  1.8300
      Cm = -0.4158     CD =  0.00740   =>   CDf =  0.00169    CDp =  0.00571

 MRCHDU: Convergence failed at  28  side 1    Res =  0.2258E+00
 MRCHDU: Convergence failed at  31  side 1    Res =  0.3472E+00
 MRCHDU: Convergence failed at  34  side 1    Res =  0.4401E+00
 MRCHDU: Convergence failed at  36  side 1    Res =  0.4605E+00
 MRCHDU: Convergence failed at  37  side 1    Res =  0.2933E+00
 MRCHDU: Convergence failed at  40  side 1    Res =  0.4832E+00
 MRCHDU: Convergence failed at  41  side 1    Res =  0.4386E+00
 MRCHDU: Convergence failed at  42  side 1    Res =  0.3763E+00
 MRCHDU: Convergence failed at  43  side 1    Res =  0.2401E+00
 MRCHDU: Convergence failed at  77  side 2    Res =  0.5661E+01
 MRCHDU: Convergence failed at  78  side 2    Res =  0.7661E+01
 MRCHDU: Convergence failed at  79  side 2    Res =  0.6730E+01
 MRCHDU: Convergence failed at  80  side 2    Res =  0.6178E+02
 MRCHDU: Convergence failed at  81  side 2    Res =  0.8812E+01
 MRCHDU: Convergence failed at  82  side 2    Res =  0.5452E+01
 MRCHDU: Convergence failed at  83  side 2    Res =  0.1099E+03
 MRCHDU: Convergence failed at  84  side 2    Res =  0.2225E+02
 MRCHDU: Convergence failed at  85  side 2    Res =  0.5896E+01
 MRCHDU: Convergence failed at  86  side 2    Res =  0.3478E+01
 MRCHDU: Convergence failed at  87  side 2    Res =  0.3865E+01
 MRCHDU: Convergence failed at  88  side 2    Res =  0.4351E+01
 MRCHDU: Convergence failed at  89  side 2    Res =  0.1383E+03
 Side 1  free  transition at x/c =  0.0162   21
 Side 2  free  transition at x/c =  0.8216   61

   3   rms: 0.5145E+00   max: -.2354E+01   T at   21  1   RLX: 0.212
       a =  5.500      CL =  1.0605
      Cm = -0.2161     CD =  0.05754   =>   CDf =  0.00214    CDp =  0.05541

 Side 1  free  transition at x/c =  0.0169   21
 Side 2  free  transition at x/c =  0.8234   61

   4   rms: 0.4900E+00   max: -.2904E+01   T at   21  1   RLX: 0.172
       a =  5.500      CL =  0.9332
      Cm = -0.1915     CD =  0.07193   =>   CDf =  0.00212    CDp =  0.06980

 Side 1  free  transition at x/c =  0.0188   21
 Side 2  free  transition at x/c =  0.8248   61
 idif Ue xi dudx           1  0.16245528      2.41446495E-03   67.284172    
 Uenew xinew           2  6.89797278E-04  1.02519989E-05

   5   rms: 0.5264E+00   max: 0.3344E+01   T at   21  1   RLX: 0.163
       a =  5.500      CL =  0.8686
      Cm = -0.1609     CD =  0.07031   =>   CDf =  0.00221    CDp =  0.06809

 Side 1  free  transition at x/c =  0.0179   20
 Side 2  free  transition at x/c =  0.8261   62

   6   rms: 0.1004E+01   max: -.1542E+02   D at    2  2   RLX: 0.032
       a =  5.500      CL =  0.8851
      Cm = -0.1623     CD =  0.07779   =>   CDf =  0.00211    CDp =  0.07568

 Side 1  free  transition at x/c =  0.0182   20
 Side 2  free  transition at x/c =  0.8263   62

   7   rms: 0.6244E+00   max: -.4665E+01   T at   20  1   RLX: 0.107
       a =  5.500      CL =  0.8143
      Cm = -0.1503     CD =  0.07531   =>   CDf =  0.00212    CDp =  0.07319

 Side 1  free  transition at x/c =  0.0211   21
 Side 2  free  transition at x/c =  0.8271   62

   8   rms: 0.2200E+02   max: 0.2654E+03   T at   21  1   RLX: 0.004
       a =  5.500      CL =  0.7834
      Cm = -0.1339     CD =  0.07430   =>   CDf =  0.00221    CDp =  0.07208

 Side 1  free  transition at x/c =  0.0185   20
 Side 2  free  transition at x/c =  0.8272   62

   9   rms: 0.3900E+01   max: -.3467E+02   T at   20  1   RLX: 0.014
       a =  5.500      CL =  0.7788
      Cm = -0.1444     CD =  0.07777   =>   CDf =  0.00214    CDp =  0.07562

 Side 1  free  transition at x/c =  0.0216   21
 Side 2  free  transition at x/c =  0.8273   62

  10   rms: 0.5238E+00   max: -.3343E+01   T at   21  1   RLX: 0.150
       a =  5.500      CL =  0.6836
      Cm = -0.1203     CD =  0.07139   =>   CDf =  0.00223    CDp =  0.06916

 Side 1  free  transition at x/c =  0.0261   22
 Side 2  free  transition at x/c =  0.8279   62

  11   rms: 0.5191E+00   max: 0.3896E+01   T at   22  1   RLX: 0.152
       a =  5.500      CL =  0.6336
      Cm = -0.1009     CD =  0.06652   =>   CDf =  0.00233    CDp =  0.06420

 Side 1  free  transition at x/c =  0.0231   22
 Side 2  free  transition at x/c =  0.8286   62

  12   rms: 0.4786E+00   max: -.2295E+01   D at   43  1   RLX: 0.218
       a =  5.500      CL =  0.6012
      Cm = -0.0935     CD =  0.06353   =>   CDf =  0.00231    CDp =  0.06122

 MRCHDU: Convergence failed at  43  side 1    Res =  0.3301E-01
 Side 1  free  transition at x/c =  0.0248   22
 Side 2  free  transition at x/c =  0.8291   62

  13   rms: 0.1324E+01   max: -.1184E+02   T at   22  1   RLX: 0.042
       a =  5.500      CL =  0.5842
      Cm = -0.0917     CD =  0.06693   =>   CDf =  0.00255    CDp =  0.06437

 Side 1  free  transition at x/c =  0.0298   23
 Side 2  free  transition at x/c =  0.8291   62

  14   rms: 0.8353E+00   max: -.2906E+01   D at   33  1   RLX: 0.172
       a =  5.500      CL =  0.6201
      Cm = -0.0797     CD =  0.05392   =>   CDf =  0.00285    CDp =  0.05107

 Side 1  free  transition at x/c =  0.0270   23
 Side 2  free  transition at x/c =  0.8295   61

  15   rms: 0.1275E+01   max: 0.4057E+01   T at   23  1   RLX: 0.131
       a =  5.500      CL =  0.6872
      Cm = -0.0655     CD =  0.04424   =>   CDf =  0.00317    CDp =  0.04107

 Side 1  free  transition at x/c =  0.0203   22
 Side 2  free  transition at x/c =  0.8295   61

  16   rms: 0.2198E+01   max: 0.1023E+02   T at   22  1   RLX: 0.076
       a =  5.500      CL =  0.7727
      Cm = -0.0566     CD =  0.03381   =>   CDf =  0.00334    CDp =  0.03048

 MRCHDU: Convergence failed at  23  side 1    Res =  0.1318E+02
 MRCHDU: Convergence failed at  24  side 1    Res =  0.5812E+01
 MRCHDU: Convergence failed at  25  side 1    Res =  0.9124E+01
 MRCHDU: Convergence failed at  26  side 1    Res =  0.4963E+01
 MRCHDU: Convergence failed at  27  side 1    Res =  0.5113E+01
 MRCHDU: Convergence failed at  28  side 1    Res =  0.5170E+01
 MRCHDU: Convergence failed at  29  side 1    Res =  0.7875E+01
 MRCHDU: Convergence failed at  30  side 1    Res =  0.7609E+01
 MRCHDU: Convergence failed at  31  side 1    Res =  0.2269E+02
 MRCHDU: Convergence failed at  32  side 1    Res =  0.9551E+01
 MRCHDU: Convergence failed at  33  side 1    Res =  0.8579E+01
 MRCHDU: Convergence failed at  34  side 1    Res =  0.2808E+02
 MRCHDU: Convergence failed at  35  side 1    Res =  0.2730E+02
 MRCHDU: Convergence failed at  36  side 1    Res =  0.8031E+02
 MRCHDU: Convergence failed at  37  side 1    Res =  0.2839E+02
 MRCHDU: Convergence failed at  38  side 1    Res =  0.2044E+02
 MRCHDU: Convergence failed at  39  side 1    Res =  0.1822E+02
 MRCHDU: Convergence failed at  40  side 1    Res =  0.1903E+02
 MRCHDU: Convergence failed at  41  side 1    Res =  0.5869E+02
 MRCHDU: Convergence failed at  42  side 1    Res =  0.7364E+02
 MRCHDU: Convergence failed at  43  side 1    Res =  0.1785E+02
 MRCHDU: Convergence failed at  44  side 1    Res =  0.1240E+04
 MRCHDU: Convergence failed at  45  side 1    Res =  0.6293E+02
 MRCHDU: Convergence failed at  46  side 1    Res =  0.8201E+01
 MRCHDU: Convergence failed at  47  side 1    Res =  0.7675E+02
 MRCHDU: Convergence failed at  48  side 1    Res =  0.1999E+02
 MRCHDU: Convergence failed at  49  side 1    Res =  0.2085E+02
 MRCHDU: Convergence failed at  50  side 1    Res =  0.5339E+02
 MRCHDU: Convergence failed at  51  side 1    Res =  0.4128E+02
 MRCHDU: Convergence failed at  52  side 1    Res =  0.2413E+02
 MRCHDU: Convergence failed at  53  side 1    Res =  0.2174E+02
 MRCHDU: Convergence failed at  54  side 1    Res =  0.1933E+02
 MRCHDU: Convergence failed at  55  side 1    Res =  0.2663E+02
 MRCHDU: Convergence failed at  56  side 1    Res =  0.4315E+02
 MRCHDU: Convergence failed at  57  side 1    Res =  0.8193E+02
 MRCHDU: Convergence failed at  58  side 1    Res =  0.4030E+03
 MRCHDU: Convergence failed at  59  side 1    Res =  0.5738E+02
 MRCHDU: Convergence failed at  60  side 1    Res =  0.3191E+02
 MRCHDU: Convergence failed at  61  side 1    Res =  0.2079E+02
 MRCHDU: Convergence failed at  62  side 1    Res =  0.1582E+02
 MRCHDU: Convergence failed at  63  side 1    Res =  0.2664E+02
 MRCHDU: Convergence failed at  64  side 1    Res =  0.3156E+02
 MRCHDU: Convergence failed at  65  side 1    Res =  0.4436E+02
 MRCHDU: Convergence failed at  66  side 1    Res =  0.9076E+02
 MRCHDU: Convergence failed at  67  side 1    Res =  0.1106E+03
 MRCHDU: Convergence failed at  68  side 1    Res =  0.1127E+03
 MRCHDU: Convergence failed at  69  side 1    Res =  0.5983E+03
 MRCHDU: Convergence failed at  70  side 1    Res =  0.7519E+02
 MRCHDU: Convergence failed at  71  side 1    Res =  0.5600E+02
 MRCHDU: Convergence failed at  72  side 1    Res =  0.4068E+02
 MRCHDU: Convergence failed at  73  side 1    Res =  0.3668E+02
 MRCHDU: Convergence failed at  74  side 1    Res =  0.2285E+02
 MRCHDU: Convergence failed at  75  side 1    Res =  0.1785E+02
 MRCHDU: Convergence failed at  76  side 1    Res =  0.2475E+02
 MRCHDU: Convergence failed at  77  side 1    Res =  0.2480E+02
 MRCHDU: Convergence failed at  78  side 1    Res =  0.2532E+02
 MRCHDU: Convergence failed at  79  side 1    Res =  0.4706E+02
 MRCHDU: Convergence failed at  80  side 1    Res =  0.5324E+02
 MRCHDU: Convergence failed at  81  side 1    Res =  0.5268E+03
 MRCHDU: Convergence failed at  82  side 1    Res =  0.2305E+03
 MRCHDU: Convergence failed at  83  side 1    Res =  0.4166E+02
 MRCHDU: Convergence failed at  84  side 1    Res =  0.3769E+02
 MRCHDU: Convergence failed at  85  side 1    Res =  0.3441E+02
 MRCHDU: Convergence failed at  86  side 1    Res =  0.2499E+02
[...]
 Side 1  free  transition at x/c =  0.0316   24
 Side 2  free  transition at x/c =  0.9084   68

 104   rms: 0.1182E+05   max: 0.2555E+06   T at   98  2   RLX: 0.000
       a = 11.000      CL =  0.6483
      Cm = -0.1108     CD =*********   =>   CDf =  0.00214    CDp =*********

 MRCHDU: Convergence failed at  95  side 2    Res =  0.2800E-01
 MRCHDU: Convergence failed at  96  side 2    Res =  0.8842E-01
 Side 1  free  transition at x/c =  0.0316   24
 Side 2  free  transition at x/c =  0.9085   68

 105   rms: 0.5476E+03   max: 0.9997E+04   T at   98  2   RLX: 0.000
       a = 11.000      CL =  0.6442
      Cm = -0.1103     CD = 20.09930   =>   CDf =  0.00214    CDp = 20.09715

 MRCHDU: Convergence failed at  95  side 2    Res =  0.9896E-02
 Side 1  free  transition at x/c =  0.0316   24
 Side 2  free  transition at x/c =  0.9082   68

 106   rms: 0.9508E+02   max: -.1548E+04   C at   96  2   RLX: 0.000
       a = 11.000      CL =  0.6464
      Cm = -0.1105     CD = 33.66574   =>   CDf =  0.00214    CDp = 33.66360

 MRCHDU: Convergence failed at  95  side 2    Res =  0.8574E-02
 MRCHDU: Convergence failed at  96  side 2    Res =  0.1450E+00
 Side 1  free  transition at x/c =  0.0316   24
 Side 2  free  transition at x/c =  0.9084   68

 107   rms: 0.7345E+02   max: -.1195E+04   T at   98  2   RLX: 0.000
       a = 11.000      CL =  0.6496
      Cm = -0.1109     CD =*********   =>   CDf =  0.00214    CDp =*********

 MRCHDU: Convergence failed at  95  side 2    Res =  0.1831E-01
 MRCHDU: Convergence failed at  96  side 2    Res =  0.1546E-01
 Side 1  free  transition at x/c =  0.0316   24
 Side 2  free  transition at x/c =  0.9086   68

 108   rms: 0.1798E+03   max: -.3428E+04   C at   97  2   RLX: 0.000
       a = 11.000      CL =  0.6505
      Cm = -0.1110     CD =*********   =>   CDf =  0.00214    CDp =*********

 MRCHDU: Convergence failed at  95  side 2    Res =  0.1681E-01
 MRCHDU: Convergence failed at  96  side 2    Res =  0.1397E-01
 MRCHDU: Convergence failed at  97  side 2    Res =  0.1960E+00
 MRCHDU: Convergence failed at  98  side 2    Res =  0.1446E-01
 Side 1  free  transition at x/c =  0.0316   24
 Side 2  free  transition at x/c =  0.9087   68

 109   rms: 0.8629E+02   max: -.1623E+04   T at   98  2   RLX: 0.000
       a = 11.000      CL =  0.6526
      Cm = -0.1112     CD =*********   =>   CDf =  0.00214    CDp =*********

 MRCHDU: Convergence failed at  95  side 2    Res =  0.1375E-01
 MRCHDU: Convergence failed at  96  side 2    Res =  0.1141E-01
 MRCHDU: Convergence failed at  97  side 2    Res =  0.3908E-02
 MRCHDU: Convergence failed at  98  side 2    Res =  0.2888E-02
 Side 1  free  transition at x/c =  0.0316   24
 Side 2  free  transition at x/c =  0.9089   68

 110   rms: 0.1721E+03   max: -.3393E+04   T at   98  2   RLX: 0.000
       a = 11.000      CL =  0.6534
      Cm = -0.1113     CD =*********   =>   CDf =  0.00214    CDp =*********

 MRCHDU: Convergence failed at  95  side 2    Res =  0.9352E-02
 MRCHDU: Convergence failed at  96  side 2    Res =  0.8057E-02
 MRCHDU: Convergence failed at  97  side 2    Res =  0.1856E-02
 MRCHDU: Convergence failed at  98  side 2    Res =  0.5913E-03
 Side 1  free  transition at x/c =  0.0316   24
 Side 2  free  transition at x/c =  0.9090   68

 111   rms: 0.4975E+03   max: -.8960E+04   T at   98  2   RLX: 0.000
       a = 11.000      CL =  0.6536
      Cm = -0.1113     CD =+Infinity   =>   CDf =  0.00214    CDp =+Infinity

 MRCHDU: Convergence failed at  95  side 2    Res =  0.4349E-02
 MRCHDU: Convergence failed at  96  side 2    Res =  0.4974E-02
 MRCHDU: Convergence failed at  97  side 2    Res =  0.4853E-03
 Side 1  free  transition at x/c =  0.0316   24
 Side 2  free  transition at x/c =  0.9090   68

 112   rms: 0.1555E+04   max: 0.2571E+05   T at   97  2   RLX: 0.000
       a = 11.000      CL =  0.6538
      Cm = -0.1113     CD =*********   =>   CDf =  0.00214    CDp =*********

 MRCHDU: Convergence failed at  95  side 2    Res =  0.4224E+00
 Side 1  free  transition at x/c =  0.0316   24
 Side 2  free  transition at x/c =  0.9090   68

 113   rms: 0.3589E+03   max: -.7513E+04   T at   98  2   RLX: 0.000
       a = 11.000      CL =  0.6542
      Cm = -0.1113     CD =+Infinity   =>   CDf =  0.00214    CDp =+Infinity

 MRCHDU: Convergence failed at  95  side 2    Res =  0.2178E-01
 MRCHDU: Convergence failed at  96  side 2    Res =  0.2039E-01
 MRCHDU: Convergence failed at  97  side 2    Res =  0.2447E-02
 MRCHDU: Convergence failed at  98  side 2    Res =  0.8351E-04
 Side 1  free  transition at x/c =  0.0316   24
 Side 2  free  transition at x/c =  0.9090   68

 114   rms: 0.6525E+03   max: -.1191E+05   T at   98  2   RLX: 0.000
       a = 11.000      CL =  0.6541
      Cm = -0.1113     CD =+Infinity   =>   CDf =  0.00214    CDp =+Infinity

 MRCHDU: Convergence failed at  95  side 2    Res =  0.1781E-01
 MRCHDU: Convergence failed at  96  side 2    Res =  0.1355E-01
 MRCHDU: Convergence failed at  97  side 2    Res =  0.8396E-03
 Side 1  free  transition at x/c =  0.0316   24
 Side 2  free  transition at x/c =  0.9090   68

 115   rms: 0.4287E+03   max: -.8270E+04   T at   97  2   RLX: 0.000
       a = 11.000      CL =  0.6538
      Cm = -0.1113     CD =+Infinity   =>   CDf =  0.00214    CDp =+Infinity

 MRCHDU: Convergence failed at  95  side 2    Res =  0.1168E-01
 MRCHDU: Convergence failed at  96  side 2    Res =  0.8091E-02
 MRCHDU: Convergence failed at  97  side 2    Res =  0.1392E-03
 Side 1  free  transition at x/c =  0.0316   24
 Side 2  free  transition at x/c =  0.9090   68

 116   rms: 0.4363E+03   max: -.8064E+04   T at   97  2   RLX: 0.000
       a = 11.000      CL =  0.6536
      Cm = -0.1113     CD =+Infinity   =>   CDf =  0.00214    CDp =+Infinity

 MRCHDU: Convergence failed at  95  side 2    Res =  0.4750E-02
 MRCHDU: Convergence failed at  96  side 2    Res =  0.3931E-02
 Side 1  free  transition at x/c =  0.0316   24
 Side 2  free  transition at x/c =  0.9090   68

 117   rms: 0.1377E+04   max: 0.2186E+05   T at   96  2   RLX: 0.000
       a = 11.000      CL =  0.6540
      Cm = -0.1113     CD =+Infinity   =>   CDf =  0.00214    CDp =+Infinity

 MRCHDU: Convergence failed at  95  side 2    Res =  0.4281E-01
 Side 1  free  transition at x/c =  0.0316   24
 Side 2  free  transition at x/c =  0.9090   68

 118   rms: 0.1463E+02   max: -.2754E+03   T at   97  2   RLX: 0.002
       a = 11.000      CL =  0.6528
      Cm = -0.1111     CD =+Infinity   =>   CDf =  0.00214    CDp =+Infinity

 MRCHDU: Convergence failed at  94  side 2    Res =  0.1080E-02
 MRCHDU: Convergence failed at  95  side 2    Res =  0.1388E+00
 MRCHDU: Convergence failed at  96  side 2    Res =  0.3834E-01
 MRCHDU: Convergence failed at  97  side 2    Res =  0.1662E-03
 Side 1  free  transition at x/c =  0.0316   24
 Side 2  free  transition at x/c =  0.9090   68

 119   rms: 0.8164E+02   max: -.1705E+04   T at   97  2   RLX: 0.000
       a = 11.000      CL =  0.6526
      Cm = -0.1111     CD =+Infinity   =>   CDf =  0.00214    CDp =+Infinity

 MRCHDU: Convergence failed at  94  side 2    Res =  0.2885E-03
 MRCHDU: Convergence failed at  95  side 2    Res =  0.1407E+00
 MRCHDU: Convergence failed at  96  side 2    Res =  0.1937E-01
 MRCHDU: Convergence failed at  97  side 2    Res =  0.2175E-04
 Side 1  free  transition at x/c =  0.0316   24
 Side 2  free  transition at x/c =  0.9090   68

 120   rms: 0.1970E+02   max: 0.3842E+03   T at   97  2   RLX: 0.004
       a = 11.000      CL =  0.6508
      Cm = -0.1106     CD =+Infinity   =>   CDf =  0.00214    CDp =+Infinity

 MRCHDU: Convergence failed at  95  side 2    Res =  0.1317E+00
 MRCHDU: Convergence failed at  96  side 2    Res =  0.2260E+00
 Side 1  free  transition at x/c =  0.0316   24
 Side 2  free  transition at x/c =  0.9091   68

 121   rms: 0.1339E+02   max: -.2795E+03   T at   97  2   RLX: 0.002
       a = 11.000      CL =  0.6498
      Cm = -0.1104     CD =+Infinity   =>   CDf =  0.00214    CDp =+Infinity

 MRCHDU: Convergence failed at  95  side 2    Res =  0.1243E+00
 MRCHDU: Convergence failed at  96  side 2    Res =  0.6722E-01
 MRCHDU: Convergence failed at  97  side 2    Res =  0.1010E-03
 Side 1  free  transition at x/c =  0.0316   24
 Side 2  free  transition at x/c =  0.9092   68

 122   rms: 0.7109E+02   max: -.1470E+04   T at   97  2   RLX: 0.000
       a = 11.000      CL =  0.6495
      Cm = -0.1103     CD =+Infinity   =>   CDf =  0.00214    CDp =+Infinity

 MRCHDU: Convergence failed at  95  side 2    Res =  0.1072E+00
 MRCHDU: Convergence failed at  96  side 2    Res =  0.2212E-01
 MRCHDU: Convergence failed at  97  side 2    Res =  0.3100E-04
 Side 1  free  transition at x/c =  0.0316   24
 Side 2  free  transition at x/c =  0.9092   68

 123   rms: 0.1613E+05   max: 0.3147E+06   T at   97  2   RLX: 0.000
       a = 11.000      CL =  0.6498
      Cm = -0.1104     CD =+Infinity   =>   CDf =  0.00214    CDp =+Infinity

 MRCHDU: Convergence failed at  95  side 2    Res =  0.8307E-01
 Side 1  free  transition at x/c =  0.0316   24
 Side 2  free  transition at x/c =  0.9092   68

 124   rms: 0.3293E+04   max: 0.6013E+05   T at   97  2   RLX: 0.000
       a = 11.000      CL =  0.6501
      Cm = -0.1104     CD =+Infinity   =>   CDf =  0.00214    CDp =+Infinity

 MRCHDU: Convergence failed at  95  side 2    Res =  0.8288E-01
 Side 1  free  transition at x/c =  0.0316   24
 Side 2  free  transition at x/c =  0.9092   68

 125   rms: 0.6503E+02   max: 0.1358E+04   T at   97  2   RLX: 0.001
       a = 11.000      CL =  0.6504
      Cm = -0.1104     CD =+Infinity   =>   CDf =  0.00214    CDp =+Infinity

 MRCHDU: Convergence failed at  95  side 2    Res =  0.1832E+00
 Side 1  free  transition at x/c =  0.0316   24
 Side 2  free  transition at x/c =  0.9093   68

 126   rms: 0.6349E+02   max: 0.1353E+04   T at   97  2   RLX: 0.001
       a = 11.000      CL =  0.6516
      Cm = -0.1105     CD =+Infinity   =>   CDf =  0.00214    CDp =+Infinity

 MRCHDU: Convergence failed at  95  side 2    Res =  0.8130E+00
 MRCHDU: Convergence failed at  97  side 2    Res =  0.4825E-01
 Side 1  free  transition at x/c =  0.0316   24
 Side 2  free  transition at x/c =  0.9095   68

 127   rms: 0.1863E+03   max: -.4229E+04   T at   98  2   RLX: 0.000
       a = 11.000      CL =  0.6517
      Cm = -0.1104     CD =+Infinity   =>   CDf =  0.00214    CDp =+Infinity

 MRCHDU: Convergence failed at  95  side 2    Res =  0.1281E-01
 MRCHDU: Convergence failed at  97  side 2    Res =  0.2857E+00
 Side 1  free  transition at x/c =  0.0316   24
 Side 2  free  transition at x/c =  0.9095   68

 128   rms: 0.2800E+03   max: -.5835E+04   T at   98  2   RLX: 0.000
       a = 11.000      CL =  0.6507
      Cm = -0.1103     CD =+Infinity   =>   CDf =  0.00214    CDp =+Infinity

 Side 1  free  transition at x/c =  0.0316   24
 Side 2  free  transition at x/c =  0.9094   68

 129   rms: 0.5624E+02   max: 0.1144E+04   T at   98  2   RLX: 0.001
       a = 11.000      CL =  0.6516
      Cm = -0.1104     CD =+Infinity   =>   CDf =  0.00214    CDp =+Infinity

 MRCHDU: Convergence failed at  95  side 2    Res =  0.1170E+00
 Side 1  free  transition at x/c =  0.0316   24
 Side 2  free  transition at x/c =  0.9096   68

 130   rms: 0.6178E+02   max: 0.1344E+04   T at   98  2   RLX: 0.001
       a = 11.000      CL =  0.6539
      Cm = -0.1106     CD =*********   =>   CDf =  0.00214    CDp =*********

 MRCHDU: Convergence failed at  95  side 2    Res =  0.1106E+00
 Side 1  free  transition at x/c =  0.0316   24
 Side 2  free  transition at x/c =  0.9098   68

 131   rms: 0.4756E+02   max: 0.1127E+04   T at   98  2   RLX: 0.001
       a = 11.000      CL =  0.6580
      Cm = -0.1110     CD =*********   =>   CDf =  0.00214    CDp =*********

 MRCHDU: Convergence failed at  95  side 2    Res =  0.3020E+00
 MRCHDU: Convergence failed at  98  side 2    Res =  0.1010E+00
 Side 1  free  transition at x/c =  0.0316   24
 Side 2  free  transition at x/c =  0.9103   68

 132   rms: 0.7569E+02   max: -.8691E+03   T at   98  2   RLX: 0.001
       a = 11.000      CL =  0.6616
      Cm = -0.1115     CD =  6.47757   =>   CDf =  0.00214    CDp =  6.47543

 MRCHDU: Convergence failed at  96  side 2    Res =  0.9887E-02
 Side 1  free  transition at x/c =  0.0316   24
 Side 2  free  transition at x/c =  0.9105   68

 133   rms: 0.1719E+04   max: -.2296E+05   T at   98  2   RLX: 0.000
       a = 11.000      CL =  0.6668
      Cm = -0.1120     CD =351.23273   =>   CDf =  0.00211    CDp =351.23062

 Side 1  free  transition at x/c =  0.0316   25
 Side 2  free  transition at x/c =  0.9110   67
 idif Ue xi dudx           1  0.15582186      2.51209736E-03   62.028591    
 Uenew xinew           2  6.69191778E-03  1.07884407E-04

 134   rms: 0.5149E+01   max: 0.7487E+02   T at   94  2   RLX: 0.017
       a = 11.000      CL =  0.6541
      Cm = -0.1099     CD = 12.06998   =>   CDf =  0.00219    CDp = 12.06780

 MRCHDU: Convergence failed at  94  side 2    Res =  0.1281E+00
 MRCHDU: Convergence failed at  95  side 2    Res =  0.7799E-02
 Side 1  free  transition at x/c =  0.0315   23
 Side 2  free  transition at x/c =  0.9108   68

 135   rms: 0.1489E+03   max: 0.1965E+04   T at   98  2   RLX: 0.001
       a = 11.000      CL =  0.6444
      Cm = -0.1088     CD =  2.17827   =>   CDf =  0.00214    CDp =  2.17613

 MRCHDU: Convergence failed at  94  side 2    Res =  0.7221E-02
 Side 1  free  transition at x/c =  0.0315   23
 Side 2  free  transition at x/c =  0.9100   68

 136   rms: 0.1844E+02   max: -.2304E+03   C at   95  2   RLX: 0.002
       a = 11.000      CL =  0.6484
      Cm = -0.1089     CD =  2.05908   =>   CDf =  0.00213    CDp =  2.05695

 MRCHDU: Convergence failed at  95  side 2    Res =  0.9636E-01
 Side 1  free  transition at x/c =  0.0315   23
 Side 2  free  transition at x/c =  0.9104   68

 137   rms: 0.2312E+02   max: -.2678E+03   T at   98  2   RLX: 0.002
       a = 11.000      CL =  0.6536
      Cm = -0.1093     CD = 17.22324   =>   CDf =  0.00213    CDp = 17.22111

 MRCHDU: Convergence failed at  94  side 2    Res =  0.6136E-03
 MRCHDU: Convergence failed at  95  side 2    Res =  0.3464E-01
 Side 1  free  transition at x/c =  0.0315   23
 Side 2  free  transition at x/c =  0.9109   68

 138   rms: 0.3965E+04   max: -.5416E+05   T at   98  2   RLX: 0.000
       a = 11.000      CL =  0.6563
      Cm = -0.1095     CD =965.37140   =>   CDf =  0.00214    CDp =965.36926

 MRCHDU: Convergence failed at  95  side 2    Res =  0.1010E-01
 Side 1  free  transition at x/c =  0.0315   23
 Side 2  free  transition at x/c =  0.9111   68

 139   rms: 0.1577E+04   max: 0.2437E+05   C at   96  2   RLX: 0.000
       a = 11.000      CL =  0.6506
      Cm = -0.1088     CD = 19.52447   =>   CDf =  0.00214    CDp = 19.52233

 MRCHDU: Convergence failed at  94  side 2    Res =  0.1204E-02
 MRCHDU: Convergence failed at  95  side 2    Res =  0.1656E-01
 Side 1  free  transition at x/c =  0.0315   23
 Side 2  free  transition at x/c =  0.9107   68

 140   rms: 0.8863E+02   max: 0.1128E+04   T at   98  2   RLX: 0.001
       a = 11.000      CL =  0.6389
      Cm = -0.1071     CD =  2.99769   =>   CDf =  0.00214    CDp =  2.99556

 MRCHDU: Convergence failed at  94  side 2    Res =  0.3980E-01
 Side 1  free  transition at x/c =  0.0314   23
 Side 2  free  transition at x/c =  0.9099   68

 141   rms: 0.4560E+01   max: -.5471E+02   C at   95  2   RLX: 0.009
       a = 11.000      CL =  0.6373
      Cm = -0.1058     CD =  3.12644   =>   CDf =  0.00213    CDp =  3.12431

 MRCHDU: Convergence failed at  94  side 2    Res =  0.1571E-01
 MRCHDU: Convergence failed at  95  side 2    Res =  0.5316E-01
 Side 1  free  transition at x/c =  0.0314   23
 Side 2  free  transition at x/c =  0.9102   68

 142   rms: 0.7023E+02   max: -.8426E+03   T at   98  2   RLX: 0.001
       a = 11.000      CL =  0.6408
      Cm = -0.1058     CD = 39.82572   =>   CDf =  0.00213    CDp = 39.82360

 MRCHDU: Convergence failed at  94  side 2    Res =  0.1716E-01
 MRCHDU: Convergence failed at  95  side 2    Res =  0.1548E-01
 Side 1  free  transition at x/c =  0.0314   23
 Side 2  free  transition at x/c =  0.9105   68

 143   rms: 0.3564E+02   max: -.4690E+03   C at   96  2   RLX: 0.001
       a = 11.000      CL =  0.6429
      Cm = -0.1058     CD =*********   =>   CDf =  0.00213    CDp =*********

 MRCHDU: Convergence failed at  94  side 2    Res =  0.1290E-01
 MRCHDU: Convergence failed at  95  side 2    Res =  0.9355E-02
 MRCHDU: Convergence failed at  96  side 2    Res =  0.3308E-01
 Side 1  free  transition at x/c =  0.0314   23
 Side 2  free  transition at x/c =  0.9108   68

 144   rms: 0.7221E+02   max: -.1331E+04   T at   98  2   RLX: 0.000
       a = 11.000      CL =  0.6446
      Cm = -0.1060     CD =*********   =>   CDf =  0.00213    CDp =*********

 MRCHDU: Convergence failed at  23  side 1    Res =  0.8998E-05
 MRCHDU: Convergence failed at  94  side 2    Res =  0.1104E-01
 MRCHDU: Convergence failed at  95  side 2    Res =  0.7983E-02
 MRCHDU: Convergence failed at  96  side 2    Res =  0.1742E-01
 Side 1  free  transition at x/c =  0.0314   23
 Side 2  free  transition at x/c =  0.9109   68

 145   rms: 0.1438E+03   max: -.3456E+04   C at   98  2   RLX: 0.000
       a = 11.000      CL =  0.6454
      Cm = -0.1061     CD =*********   =>   CDf =  0.00213    CDp =*********

 MRCHDU: Convergence failed at  94  side 2    Res =  0.1108E-01
 MRCHDU: Convergence failed at  95  side 2    Res =  0.8043E-02
 MRCHDU: Convergence failed at  96  side 2    Res =  0.1778E-01
 MRCHDU: Convergence failed at  98  side 2    Res =  0.1721E-01
 Side 1  free  transition at x/c =  0.0314   23
 Side 2  free  transition at x/c =  0.9110   68

 146   rms: 0.1875E+03   max: -.3739E+04   C at   98  2   RLX: 0.000
       a = 11.000      CL =  0.6464
      Cm = -0.1062     CD =*********   =>   CDf =  0.00214    CDp =*********

 MRCHDU: Convergence failed at  94  side 2    Res =  0.1160E-01
 MRCHDU: Convergence failed at  95  side 2    Res =  0.8421E-02
 MRCHDU: Convergence failed at  96  side 2    Res =  0.2056E-01
 Side 1  free  transition at x/c =  0.0314   23
 Side 2  free  transition at x/c =  0.9111   68

 147   rms: 0.3396E+03   max: 0.8216E+04   T at   98  2   RLX: 0.000
       a = 11.000      CL =  0.6483
      Cm = -0.1064     CD =*********   =>   CDf =  0.00214    CDp =*********

 MRCHDU: Convergence failed at  94  side 2    Res =  0.1606E-01
 MRCHDU: Convergence failed at  95  side 2    Res =  0.1169E-01
 MRCHDU: Convergence failed at  96  side 2    Res =  0.2555E+00
 MRCHDU: Convergence failed at  97  side 2    Res =  0.1434E+00
 MRCHDU: Convergence failed at  98  side 2    Res =  0.1154E-01
 Side 1  free  transition at x/c =  0.0314   23
 Side 2  free  transition at x/c =  0.9113   68

 148   rms: 0.6995E+02   max: -.1458E+04   T at   98  2   RLX: 0.000
       a = 11.000      CL =  0.6501
      Cm = -0.1066     CD =*********   =>   CDf =  0.00214    CDp =*********

 MRCHDU: Convergence failed at  94  side 2    Res =  0.1527E-01
 MRCHDU: Convergence failed at  95  side 2    Res =  0.1097E-01
 MRCHDU: Convergence failed at  96  side 2    Res =  0.5004E-02
 MRCHDU: Convergence failed at  97  side 2    Res =  0.3345E-02
 MRCHDU: Convergence failed at  98  side 2    Res =  0.1935E-02
 Side 1  free  transition at x/c =  0.0314   23
 Side 2  free  transition at x/c =  0.9115   68

 149   rms: 0.7902E+02   max: -.1574E+04   T at   98  2   RLX: 0.000
       a = 11.000      CL =  0.6505
      Cm = -0.1067     CD =*********   =>   CDf =  0.00214    CDp =*********

 MRCHDU: Convergence failed at  23  side 1    Res =  0.6163E-05
 MRCHDU: Convergence failed at  94  side 2    Res =  0.1326E-01
 MRCHDU: Convergence failed at  95  side 2    Res =  0.9146E-02
 MRCHDU: Convergence failed at  96  side 2    Res =  0.3484E-02
 MRCHDU: Convergence failed at  97  side 2    Res =  0.1565E-02
 MRCHDU: Convergence failed at  98  side 2    Res =  0.3218E-03
 Side 1  free  transition at x/c =  0.0314   23

[TIMEOUT]
