
 ===================================================
  XFOIL Version 6.99
  Copyright (C) 2000   Mark Drela, Harold Youngren

  This software comes with ABSOLUTELY NO WARRANTY,
    subject to the GNU General Public License.

  Caveat computor
 ===================================================

 File  xfoil.def  not found

   QUIT    Exit program

  .OPER    Direct operating point(s)
  .MDES    Complex mapping design routine
  .QDES    Surface speed design routine
  .GDES    Geometry design routine

   SAVE f  Write airfoil to labeled coordinate file
   PSAV f  Write airfoil to plain coordinate file
   ISAV f  Write airfoil to ISES coordinate file
   MSAV f  Write airfoil to MSES coordinate file
   REVE    Reverse written-airfoil node ordering

   LOAD f  Read buffer airfoil from coordinate file
   NACA i  Set NACA 4,5-digit airfoil and buffer airfoil
   INTE    Set buffer airfoil by interpolating two airfoils
   NORM    Buffer airfoil normalization toggle
   XYCM rr Change CM reference location, currently  0.25000 0.00000

   BEND    Display structural properties of current airfoil

   PCOP    Set current-airfoil panel nodes directly from buffer airfoil points
   PANE    Set current-airfoil panel nodes ( 160 ) based on curvature
  .PPAR    Show/change paneling

  .PLOP    Plotting options

   WDEF f  Write  current-settings file
   RDEF f  Reread current-settings file
   NAME s  Specify new airfoil name
   NINC    Increment name version number

   Z       Zoom    | (available in all menus)
   U       Unzoom  | 

 XFOIL   c>  
 Labeled airfoil file.  Name:  K3311  (original)                               

 Number of input coordinate points:  49
 Counterclockwise ordering
 Max thickness =     0.110005  at x =   0.300
 Max camber    =     0.031845  at x =   0.400

  LE  x,y  =  -0.00009   0.00113  |   Chord =   1.00009
  TE  x,y  =   1.00000   0.00000  |

 Current airfoil nodes set from buffer airfoil nodes (  49 )

 WARNING: Poor input coordinate distribution
          Excessive panel angle   76.6  at i =  25
          Repaneling with PANE and/or PPAR suggested
           (doing GDES,CADD before repaneling _may_
            improve excessively coarse LE spacing

 XFOIL   c>  
 XFOIL   c>  
 Sharp trailing edge

 Paneling parameters used...
   Number of panel nodes       160
   Panel bunching parameter    1.000
   TE/LE panel density ratio   0.150
   Refined-area/LE panel density ratio    0.200
   Top    side refined area x/c limits  1.000 1.000
   Bottom side refined area x/c limits  1.000 1.000

 XFOIL   c>  
.OPERi   c>  
 Xtr/c     =  1.0000    top    side
 Xtr/c     =  1.0000    bottom side
 Ncrit     =    9.00   ( 0.070 % turb. level )
 Vacc      =  0.0100

 Klag  =  5.6000     Uxwt  =    1.00
 A     =  6.7000     B     =  0.7500       KCt = 0.01485
 CtiniK=  1.8000     CtiniX=  3.3000

..VPAR   c>  
..VPAR   c>  
.OPERi   c>  
 M  =    0.0000
 Re =    500000

.OPERv   c>  
.OPERv   c>  
.OPERv   c>  
 Polar  1 newly created for accumulation
 Airfoil archived with polar: K3311  (original)                               

Enter  polar save filename  OR  <return> for no file   s>  
 New polar save file available

Enter  polar dump filename  OR  <return> for no file   s>  
 Polar dump file will NOT be written

 Polar accumulation enabled

.OPERva   c>   Calculating unit vorticity distributions ...
 Calculating wake trajectory ...
 Calculating source influence matrix ...

 Solving BL system ...

 Initializing BL ...
    side            1  ...
 MRCHUE: Inverse mode at  49     Hk =   3.809
 MRCHUE: Inverse mode at  50     Hk =   4.417
 MRCHUE: Inverse mode at  51     Hk =   5.015
 MRCHUE: Inverse mode at  52     Hk =   5.601
 MRCHUE: Inverse mode at  53     Hk =   6.176
 MRCHUE: Inverse mode at  54     Hk =   6.741
 MRCHUE: Inverse mode at  55     Hk =   7.303
 MRCHUE: Inverse mode at  56     Hk =   7.866
 MRCHUE: Inverse mode at  57     Hk =   8.431
 MRCHUE: Inverse mode at  58     Hk =   8.263
 MRCHUE: Inverse mode at  59     Hk =   5.751
 MRCHUE: Inverse mode at  60     Hk =   4.248
 MRCHUE: Inverse mode at  61     Hk =   3.175
    side            2  ...
 MRCHUE: Inverse mode at  17     Hk =   4.152
 MRCHUE: Convergence failed at  18  side 2    Res =  0.2340E+01
 MRCHUE: Convergence failed at  19  side 2    Res =  0.1215E+01
 MRCHUE: Inverse mode at  20     Hk =   6.319
 MRCHUE: Inverse mode at  21     Hk =   8.343
 MRCHUE: Inverse mode at  22     Hk =   2.500
 MRCHUE: Inverse mode at  86     Hk =   2.500

 MRCHDU: Convergence failed at  18  side 2    Res =  0.3032E+01
 MRCHDU: Convergence failed at  19  side 2    Res =  0.2463E+01
 MRCHDU: Convergence failed at  20  side 2    Res =  0.2567E+01
 MRCHDU: Convergence failed at  21  side 2    Res =  0.9551E+01
 MRCHDU: Convergence failed at  22  side 2    Res =  0.1470E+02
 MRCHDU: Convergence failed at  23  side 2    Res =  0.7964E+01
 MRCHDU: Convergence failed at  24  side 2    Res =  0.9303E+01
 MRCHDU: Convergence failed at  25  side 2    Res =  0.8448E+01
 MRCHDU: Convergence failed at  26  side 2    Res =  0.5098E+01
 MRCHDU: Convergence failed at  27  side 2    Res =  0.4291E+01
 MRCHDU: Convergence failed at  28  side 2    Res =  0.9511E+01
 MRCHDU: Convergence failed at  29  side 2    Res =  0.1171E+02
 MRCHDU: Convergence failed at  30  side 2    Res =  0.1484E+02
 MRCHDU: Convergence failed at  31  side 2    Res =  0.2011E+02
 MRCHDU: Convergence failed at  32  side 2    Res =  0.3092E+02
 MRCHDU: Convergence failed at  33  side 2    Res =  0.3140E+03
 MRCHDU: Convergence failed at  34  side 2    Res =  0.3452E+02
 MRCHDU: Convergence failed at  35  side 2    Res =  0.3628E+02
 MRCHDU: Convergence failed at  36  side 2    Res =  0.2715E+02
 MRCHDU: Convergence failed at  37  side 2    Res =  0.3358E+02
 MRCHDU: Convergence failed at  38  side 2    Res =  0.3090E+02
 MRCHDU: Convergence failed at  39  side 2    Res =  0.2810E+02
 MRCHDU: Convergence failed at  40  side 2    Res =  0.3332E+02
 MRCHDU: Convergence failed at  41  side 2    Res =  0.3332E+02
 MRCHDU: Convergence failed at  42  side 2    Res =  0.3488E+02
 MRCHDU: Convergence failed at  43  side 2    Res =  0.3373E+02
 MRCHDU: Convergence failed at  44  side 2    Res =  0.3058E+02
 MRCHDU: Convergence failed at  45  side 2    Res =  0.4338E+02
 MRCHDU: Convergence failed at  46  side 2    Res =  0.3248E+02
 MRCHDU: Convergence failed at  47  side 2    Res =  0.2818E+02
 MRCHDU: Convergence failed at  48  side 2    Res =  0.3179E+02
 MRCHDU: Convergence failed at  49  side 2    Res =  0.2624E+02
 MRCHDU: Convergence failed at  50  side 2    Res =  0.2960E+02
 MRCHDU: Convergence failed at  51  side 2    Res =  0.3292E+02
 MRCHDU: Convergence failed at  52  side 2    Res =  0.2825E+02
 MRCHDU: Convergence failed at  53  side 2    Res =  0.3153E+02
 MRCHDU: Convergence failed at  54  side 2    Res =  0.3510E+02
 MRCHDU: Convergence failed at  55  side 2    Res =  0.3993E+02
 MRCHDU: Convergence failed at  56  side 2    Res =  0.4762E+02
 MRCHDU: Convergence failed at  57  side 2    Res =  0.5698E+02
 MRCHDU: Convergence failed at  58  side 2    Res =  0.6973E+02
 MRCHDU: Convergence failed at  59  side 2    Res =  0.7770E+02
 MRCHDU: Convergence failed at  60  side 2    Res =  0.8089E+02
 MRCHDU: Convergence failed at  61  side 2    Res =  0.8638E+02
 MRCHDU: Convergence failed at  62  side 2    Res =  0.9415E+02
 MRCHDU: Convergence failed at  63  side 2    Res =  0.1112E+03
 MRCHDU: Convergence failed at  64  side 2    Res =  0.1339E+03
 MRCHDU: Convergence failed at  65  side 2    Res =  0.1120E+03
 MRCHDU: Convergence failed at  66  side 2    Res =  0.9491E+02
 MRCHDU: Convergence failed at  67  side 2    Res =  0.8199E+02
 MRCHDU: Convergence failed at  68  side 2    Res =  0.7181E+02
 MRCHDU: Convergence failed at  69  side 2    Res =  0.6258E+02
 MRCHDU: Convergence failed at  70  side 2    Res =  0.5567E+02
 MRCHDU: Convergence failed at  71  side 2    Res =  0.5072E+02
 MRCHDU: Convergence failed at  72  side 2    Res =  0.4818E+02
 MRCHDU: Convergence failed at  73  side 2    Res =  0.4650E+02
 MRCHDU: Convergence failed at  74  side 2    Res =  0.4513E+02
 MRCHDU: Convergence failed at  75  side 2    Res =  0.4202E+02
 MRCHDU: Convergence failed at  76  side 2    Res =  0.3839E+02
 MRCHDU: Convergence failed at  77  side 2    Res =  0.3530E+02
 MRCHDU: Convergence failed at  78  side 2    Res =  0.3405E+02
 MRCHDU: Convergence failed at  79  side 2    Res =  0.3477E+02
 MRCHDU: Convergence failed at  80  side 2    Res =  0.3595E+02
 MRCHDU: Convergence failed at  81  side 2    Res =  0.3486E+02
 MRCHDU: Convergence failed at  82  side 2    Res =  0.3581E+03
 MRCHDU: Convergence failed at  83  side 2    Res =  0.1747E+03
 MRCHDU: Convergence failed at  84  side 2    Res =  0.4090E+02
 MRCHDU: Convergence failed at  85  side 2    Res =  0.5810E+02
 MRCHDU: Convergence failed at  86  side 2    Res =  0.3732E+02
 Side 1  free  transition at x/c =  0.7530   58
 Side 2  free  transition at x/c =  0.0535   22

   1   rms: 0.1026E+01   max: -.9295E+00   U at   86  2   RLX: 0.396
       a = -4.000      CL = -1.1717
      Cm =  0.2430     CD =  0.00525   =>   CDf =  0.00301    CDp =  0.00224

 MRCHDU: Convergence failed at  60  side 1    Res =  0.5233E+01
 MRCHDU: Convergence failed at  61  side 1    Res =  0.1241E+02
 Side 1  free  transition at x/c =  0.7766   60
 Side 2  free  transition at x/c =  0.0516   22

   2   rms: 0.1614E+01   max: 0.3028E+02   C at   22  2   RLX: 0.050
       a = -4.000      CL = -1.0804
      Cm =  0.2144     CD =  0.00589   =>   CDf =  0.01149    CDp = -0.00560

 Side 1  free  transition at x/c =  0.7786   60
 Side 2  free  transition at x/c =  0.0431   21

   3   rms: 0.6086E+00   max: 0.2696E+01   T at   21  2   RLX: 0.456
       a = -4.000      CL = -0.5853
      Cm =  0.0688     CD =  0.00730   =>   CDf =  0.01174    CDp = -0.00445

 MRCHDU: Convergence failed at  21  side 2    Res =  0.1806E+02
 MRCHDU: Convergence failed at  22  side 2    Res =  0.7646E+01
 MRCHDU: Convergence failed at  23  side 2    Res =  0.9894E+01
 MRCHDU: Convergence failed at  24  side 2    Res =  0.2299E+02
 MRCHDU: Convergence failed at  25  side 2    Res =  0.2620E+02
 MRCHDU: Convergence failed at  26  side 2    Res =  0.6663E+02
 MRCHDU: Convergence failed at  27  side 2    Res =  0.1374E+02
 MRCHDU: Convergence failed at  28  side 2    Res =  0.9732E+01
 MRCHDU: Convergence failed at  29  side 2    Res =  0.7491E+01
 MRCHDU: Convergence failed at  30  side 2    Res =  0.6339E+01
 MRCHDU: Convergence failed at  31  side 2    Res =  0.4708E+01
 MRCHDU: Convergence failed at  32  side 2    Res =  0.5303E+01
 MRCHDU: Convergence failed at  33  side 2    Res =  0.5823E+01
 MRCHDU: Convergence failed at  34  side 2    Res =  0.6330E+01
 MRCHDU: Convergence failed at  35  side 2    Res =  0.7275E+01
 MRCHDU: Convergence failed at  36  side 2    Res =  0.8038E+01
 MRCHDU: Convergence failed at  37  side 2    Res =  0.9181E+01
 MRCHDU: Convergence failed at  38  side 2    Res =  0.1074E+02
 MRCHDU: Convergence failed at  39  side 2    Res =  0.3082E+02
 MRCHDU: Convergence failed at  40  side 2    Res =  0.2930E+02
 MRCHDU: Convergence failed at  41  side 2    Res =  0.2811E+02
 MRCHDU: Convergence failed at  42  side 2    Res =  0.2739E+02
 MRCHDU: Convergence failed at  43  side 2    Res =  0.2722E+02
 MRCHDU: Convergence failed at  44  side 2    Res =  0.2735E+02
 MRCHDU: Convergence failed at  45  side 2    Res =  0.2744E+02
 MRCHDU: Convergence failed at  46  side 2    Res =  0.2720E+02
 MRCHDU: Convergence failed at  47  side 2    Res =  0.2674E+02
 MRCHDU: Convergence failed at  48  side 2    Res =  0.2620E+02
 MRCHDU: Convergence failed at  49  side 2    Res =  0.2611E+02
 MRCHDU: Convergence failed at  50  side 2    Res =  0.2571E+02
 MRCHDU: Convergence failed at  51  side 2    Res =  0.2537E+02
 MRCHDU: Convergence failed at  52  side 2    Res =  0.2513E+02
 MRCHDU: Convergence failed at  53  side 2    Res =  0.2494E+02
 MRCHDU: Convergence failed at  54  side 2    Res =  0.2502E+02
 MRCHDU: Convergence failed at  55  side 2    Res =  0.2501E+02
 MRCHDU: Convergence failed at  56  side 2    Res =  0.2473E+02
 MRCHDU: Convergence failed at  57  side 2    Res =  0.2482E+02
 MRCHDU: Convergence failed at  58  side 2    Res =  0.2512E+02
 MRCHDU: Convergence failed at  59  side 2    Res =  0.3361E+02
 MRCHDU: Convergence failed at  60  side 2    Res =  0.3616E+02
 MRCHDU: Convergence failed at  61  side 2    Res =  0.3897E+02
 MRCHDU: Convergence failed at  62  side 2    Res =  0.4180E+02
 MRCHDU: Convergence failed at  63  side 2    Res =  0.4451E+02
 MRCHDU: Convergence failed at  64  side 2    Res =  0.4712E+02
 MRCHDU: Convergence failed at  65  side 2    Res =  0.4977E+02
 MRCHDU: Convergence failed at  66  side 2    Res =  0.5248E+02
 MRCHDU: Convergence failed at  67  side 2    Res =  0.5515E+02
 MRCHDU: Convergence failed at  68  side 2    Res =  0.5782E+02
 MRCHDU: Convergence failed at  69  side 2    Res =  0.5992E+02
 MRCHDU: Convergence failed at  70  side 2    Res =  0.6223E+02
 MRCHDU: Convergence failed at  71  side 2    Res =  0.6448E+02
 MRCHDU: Convergence failed at  72  side 2    Res =  0.6806E+02
 MRCHDU: Convergence failed at  73  side 2    Res =  0.7232E+02
 MRCHDU: Convergence failed at  74  side 2    Res =  0.7704E+02
 MRCHDU: Convergence failed at  75  side 2    Res =  0.8090E+02
 MRCHDU: Convergence failed at  76  side 2    Res =  0.8282E+02
 MRCHDU: Convergence failed at  77  side 2    Res =  0.7616E+02
 MRCHDU: Convergence failed at  78  side 2    Res =  0.6629E+02
 MRCHDU: Convergence failed at  79  side 2    Res =  0.5009E+02
 MRCHDU: Convergence failed at  80  side 2    Res =  0.3455E+02
 MRCHDU: Convergence failed at  81  side 2    Res =  0.2670E+03
 MRCHDU: Convergence failed at  82  side 2    Res =  0.1931E+03
 MRCHDU: Convergence failed at  83  side 2    Res =  0.4977E+02
 MRCHDU: Convergence failed at  84  side 2    Res =  0.5739E+02
 MRCHDU: Convergence failed at  85  side 2    Res =  0.1962E+03
 MRCHDU: Convergence failed at  86  side 2    Res =  0.6043E+02
 Side 1  free  transition at x/c =  0.7982   61
 Side 2  free  transition at x/c =  0.0360   20

   4   rms: 0.1269E+01   max: 0.4531E+01   D at   88  2   RLX: 0.325
       a = -4.000      CL = -0.9776
      Cm =  0.2219     CD =  0.00471   =>   CDf =  0.00272    CDp =  0.00199

 MRCHDU: Convergence failed at  87  side 2    Res =  0.1261E+02
 MRCHDU: Convergence failed at  88  side 2    Res =  0.9530E+01
 MRCHDU: Convergence failed at  89  side 2    Res =  0.1796E+02
 Side 1  free  transition at x/c =  0.8276   64
 Side 2  free  transition at x/c =  0.0365   19

   5   rms: 0.5466E+00   max: -.7088E+01   C at   64  1   RLX: 0.071
       a = -4.000      CL = -0.2634
      Cm =  0.0131     CD =  0.04945   =>   CDf =  0.00271    CDp =  0.04674

 Side 1  free  transition at x/c =  0.8274   64
 Side 2  free  transition at x/c =  0.0365   19

   6   rms: 0.4175E+00   max: -.1117E+01   T at   64  1   RLX: 0.448
       a = -4.000      CL = -0.0708
      Cm = -0.0436     CD =  0.03704   =>   CDf =  0.00293    CDp =  0.03412

 Side 1  free  transition at x/c =  0.9493   73
 Side 2  free  transition at x/c =  0.0364   19

   7   rms: 0.4607E+00   max: -.1202E+01   D at   25  2   RLX: 0.416
       a = -4.000      CL =  0.1073
      Cm = -0.1056     CD =  0.03321   =>   CDf =  0.00253    CDp =  0.03068

 Side 1  free  transition at x/c =  0.9373   72
 Side 2  free  transition at x/c =  0.0364   19

   8   rms: 0.6306E+00   max: 0.1882E+01   C at   72  1   RLX: 0.284
       a = -4.000      CL =  0.1477
      Cm = -0.1314     CD =  0.03000   =>   CDf =  0.00255    CDp =  0.02745

 Side 1  free  transition at x/c =  0.9134   70
 Side 2  free  transition at x/c =  0.0361   19
 idif Ue xi dudx           1  0.16859555      2.81000137E-03   59.998386    
 Uenew xinew           2  1.64289828E-02  2.73823738E-04

   9   rms: 0.1616E+01   max: -.5102E+01   D at   32  2   RLX: 0.098
       a = -4.000      CL =  0.1664
      Cm = -0.1529     CD =  0.02659   =>   CDf =  0.00249    CDp =  0.02410

 Side 1  free  transition at x/c =  0.8942   68
 Side 2  free  transition at x/c =  0.0356   20

  10   rms: 0.1651E+01   max: -.7055E+01   D at   46  2   RLX: 0.071
       a = -4.000      CL =  0.1585
      Cm = -0.1633     CD =  0.02355   =>   CDf =  0.00282    CDp =  0.02073

 Side 1  free  transition at x/c =  0.8797   67
 Side 2  free  transition at x/c =  0.0353   20

  11   rms: 0.1406E+01   max: -.6204E+01   D at   46  2   RLX: 0.081
       a = -4.000      CL =  0.1253
      Cm = -0.1642     CD =  0.02089   =>   CDf =  0.00302    CDp =  0.01787

 Side 1  free  transition at x/c =  0.8642   66
 Side 2  free  transition at x/c =  0.0350   20

  12   rms: 0.1133E+01   max: -.4912E+01   D at   91  2   RLX: 0.102
       a = -4.000      CL =  0.0871
      Cm = -0.1624     CD =  0.01857   =>   CDf =  0.00326    CDp =  0.01531

 Side 1  free  transition at x/c =  0.8480   65
 Side 2  free  transition at x/c =  0.0347   20

  13   rms: 0.9171E+00   max: -.3468E+01   D at   91  2   RLX: 0.144
       a = -4.000      CL =  0.0361
      Cm = -0.1554     CD =  0.01671   =>   CDf =  0.00353    CDp =  0.01318

 MRCHDU: Convergence failed at  91  side 2    Res =  0.2590E-01
 Side 1  free  transition at x/c =  0.8290   63
 Side 2  free  transition at x/c =  0.0345   20

  14   rms: 0.7593E+00   max: -.3068E+01   D at   64  2   RLX: 0.163
       a = -4.000      CL = -0.0183
      Cm = -0.1446     CD =  0.01616   =>   CDf =  0.00386    CDp =  0.01230

 MRCHDU: Convergence failed at  91  side 2    Res =  0.5867E-01
 Side 1  free  transition at x/c =  0.8187   63
 Side 2  free  transition at x/c =  0.0344   20

  15   rms: 0.6078E+00   max: -.2520E+01   D at   72  2   RLX: 0.198
       a = -4.000      CL = -0.0767
      Cm = -0.1299     CD =  0.01652   =>   CDf =  0.00419    CDp =  0.01233

 MRCHDU: Convergence failed at  91  side 2    Res =  0.1286E+00
 Side 1  free  transition at x/c =  0.8116   62
 Side 2  free  transition at x/c =  0.0346   20
 idif Ue xi dudx           1  0.21116394      3.73709202E-03   56.504879    
 Uenew xinew           2  3.55184339E-02  6.28590584E-04

  16   rms: 0.4589E+00   max: -.1845E+01   D at   79  2   RLX: 0.271
       a = -4.000      CL = -0.1591
      Cm = -0.1043     CD =  0.01851   =>   CDf =  0.00439    CDp =  0.01412

 Side 1  free  transition at x/c =  0.8014   61
 Side 2  free  transition at x/c =  0.0348   21

  17   rms: 0.3563E+00   max: -.1443E+01   D at   81  2   RLX: 0.346
       a = -4.000      CL = -0.1730
      Cm = -0.0892     CD =  0.01593   =>   CDf =  0.00479    CDp =  0.01114

 Side 1  free  transition at x/c =  0.8046   61
 Side 2  free  transition at x/c =  0.0351   21

  18   rms: 0.2926E+00   max: -.1071E+01   D at   82  2   RLX: 0.467
       a = -4.000      CL = -0.1463
      Cm = -0.0811     CD =  0.01466   =>   CDf =  0.00532    CDp =  0.00934

 Side 1  free  transition at x/c =  0.8129   62
 Side 2  free  transition at x/c =  0.0353   20

  19   rms: 0.2082E+00   max: -.7856E+00   D at    2  1   RLX: 0.636
       a = -4.000      CL = -0.0937
      Cm = -0.0800     CD =  0.01358   =>   CDf =  0.00575    CDp =  0.00783

 Side 1  free  transition at x/c =  0.8321   64
 Side 2  free  transition at x/c =  0.0358   20

  20   rms: 0.8331E-01   max: -.3276E+00   D at   86  2
       a = -4.000      CL = -0.0408
      Cm = -0.0837     CD =  0.01327   =>   CDf =  0.00606    CDp =  0.00720

 Side 1  free  transition at x/c =  0.8369   64
 Side 2  free  transition at x/c =  0.0364   20

  21   rms: 0.1090E-01   max: -.7754E-01   D at   75  1
       a = -4.000      CL = -0.0312
      Cm = -0.0857     CD =  0.01324   =>   CDf =  0.00628    CDp =  0.00696

 Side 1  free  transition at x/c =  0.8399   64
 Side 2  free  transition at x/c =  0.0365   20

  22   rms: 0.1138E-02   max: -.7595E-02   T at   20  2
       a = -4.000      CL = -0.0310
      Cm = -0.0858     CD =  0.01326   =>   CDf =  0.00627    CDp =  0.00699

 Side 1  free  transition at x/c =  0.8400   64
 Side 2  free  transition at x/c =  0.0365   20

  23   rms: 0.9512E-04   max: -.6520E-03   T at   20  2
       a = -4.000      CL = -0.0310
      Cm = -0.0858     CD =  0.01326   =>   CDf =  0.00627    CDp =  0.00699
 plradd ia,ip,cpol            1           0  4.28969739E-03

 Point added to stored polar  1
 Point written to save file  k3311_Re500k.base.pol                           
 Dump file unspecified or not available
 Calculating wake trajectory ...
 Calculating source influence matrix ...

 Solving BL system ...

 Side 1  free  transition at x/c =  0.8400   64
 Side 2  free  transition at x/c =  0.0365   20

   1   rms: 0.1734E+00   max: 0.5943E+00   T at   20  2   RLX: 0.910
       a = -3.500      CL =  0.0124
      Cm = -0.0843     CD =  0.01047   =>   CDf =  0.00633    CDp =  0.00415

 Side 1  free  transition at x/c =  0.8140   63
 Side 2  free  transition at x/c =  0.0364   19

   2   rms: 0.7393E-01   max: -.3089E+00   D at   21  2
       a = -3.500      CL =  0.0196
      Cm = -0.0845     CD =  0.01163   =>   CDf =  0.00649    CDp =  0.00514

 Side 1  free  transition at x/c =  0.8157   64
 Side 2  free  transition at x/c =  0.0364   19

   3   rms: 0.2711E-02   max: -.3677E-01   D at   63  1
       a = -3.500      CL =  0.0190
      Cm = -0.0844     CD =  0.01176   =>   CDf =  0.00647    CDp =  0.00529

 Side 1  free  transition at x/c =  0.8147   63
 Side 2  free  transition at x/c =  0.0364   19

   4   rms: 0.1392E-03   max: 0.1688E-02   C at   63  1
       a = -3.500      CL =  0.0190
      Cm = -0.0844     CD =  0.01176   =>   CDf =  0.00646    CDp =  0.00530

 Side 1  free  transition at x/c =  0.8147   63
 Side 2  free  transition at x/c =  0.0364   19

   5   rms: 0.1115E-05   max: -.1255E-04   C at   63  1
       a = -3.500      CL =  0.0190
      Cm = -0.0844     CD =  0.01176   =>   CDf =  0.00646    CDp =  0.00530
 plradd ia,ip,cpol            2           0  6.20198669E-03

 Point added to stored polar  1
 Point written to save file  k3311_Re500k.base.pol                           
 Dump file unspecified or not available
 Calculating wake trajectory ...
 Calculating source influence matrix ...

 Solving BL system ...

 Side 1  free  transition at x/c =  0.8147   63
 Side 2  free  transition at x/c =  0.0364   19

   1   rms: 0.1003E+00   max: -.2605E+00   D at   22  2
       a = -3.000      CL =  0.0685
      Cm = -0.0830     CD =  0.01064   =>   CDf =  0.00651    CDp =  0.00413

 Side 1  free  transition at x/c =  0.7854   62
 Side 2  free  transition at x/c =  0.0369   19

   2   rms: 0.1705E-01   max: -.3158E+00   D at   63  1
       a = -3.000      CL =  0.0686
      Cm = -0.0829     CD =  0.01076   =>   CDf =  0.00669    CDp =  0.00407

 Side 1  free  transition at x/c =  0.7927   63
 Side 2  free  transition at x/c =  0.0367   19

   3   rms: 0.6053E-02   max: 0.8247E-01   C at   63  1
       a = -3.000      CL =  0.0686
      Cm = -0.0830     CD =  0.01073   =>   CDf =  0.00660    CDp =  0.00413

 Side 1  free  transition at x/c =  0.7905   63
 Side 2  free  transition at x/c =  0.0367   19

   4   rms: 0.7815E-03   max: 0.1151E-01   C at   63  1
       a = -3.000      CL =  0.0686
      Cm = -0.0830     CD =  0.01073   =>   CDf =  0.00662    CDp =  0.00411

 Side 1  free  transition at x/c =  0.7902   63
 Side 2  free  transition at x/c =  0.0367   19

   5   rms: 0.5127E-05   max: -.9461E-04   D at   65  1
       a = -3.000      CL =  0.0686
      Cm = -0.0830     CD =  0.01073   =>   CDf =  0.00662    CDp =  0.00411
 plradd ia,ip,cpol            3           0  8.61611962E-03

 Point added to stored polar  1
 Point written to save file  k3311_Re500k.base.pol                           
 Dump file unspecified or not available
 Calculating wake trajectory ...
 Calculating source influence matrix ...

 Solving BL system ...

 Side 1  free  transition at x/c =  0.7902   63
 Side 2  free  transition at x/c =  0.0367   19

   1   rms: 0.1094E+00   max: -.3362E+00   D at   20  2
       a = -2.500      CL =  0.1181
      Cm = -0.0816     CD =  0.00982   =>   CDf =  0.00662    CDp =  0.00320

 Side 1  free  transition at x/c =  0.7685   61
 Side 2  free  transition at x/c =  0.0377   19

   2   rms: 0.1644E-01   max: -.2969E+00   D at   62  1
       a = -2.500      CL =  0.1186
      Cm = -0.0817     CD =  0.00993   =>   CDf =  0.00681    CDp =  0.00312

 Side 1  free  transition at x/c =  0.7700   61
 Side 2  free  transition at x/c =  0.0376   19

   3   rms: 0.2336E-02   max: 0.3294E-01   C at   61  1
       a = -2.500      CL =  0.1186
      Cm = -0.0817     CD =  0.00995   =>   CDf =  0.00680    CDp =  0.00315

 Side 1  free  transition at x/c =  0.7688   61
 Side 2  free  transition at x/c =  0.0376   19

   4   rms: 0.4952E-04   max: -.8275E-03   C at   61  1
       a = -2.500      CL =  0.1186
      Cm = -0.0817     CD =  0.00995   =>   CDf =  0.00681    CDp =  0.00314
 plradd ia,ip,cpol            4           0  8.61611962E-03

 Point added to stored polar  1
 Point written to save file  k3311_Re500k.base.pol                           
 Dump file unspecified or not available
 Calculating wake trajectory ...
 Calculating source influence matrix ...

 Solving BL system ...

 Side 1  free  transition at x/c =  0.7688   61
 Side 2  free  transition at x/c =  0.0376   19

   1   rms: 0.1085E+00   max: -.3643E+00   D at   20  2
       a = -2.000      CL =  0.1690
      Cm = -0.0806     CD =  0.00921   =>   CDf =  0.00684    CDp =  0.00237

 Side 1  free  transition at x/c =  0.7456   61
 Side 2  free  transition at x/c =  0.0393   18

   2   rms: 0.1550E-01   max: -.1863E+00   D at   61  1
       a = -2.000      CL =  0.1702
      Cm = -0.0807     CD =  0.00947   =>   CDf =  0.00701    CDp =  0.00246

 Side 1  free  transition at x/c =  0.7496   61
 Side 2  free  transition at x/c =  0.0393   18

   3   rms: 0.2686E-02   max: 0.4056E-01   C at   61  1
       a = -2.000      CL =  0.1704
      Cm = -0.0808     CD =  0.00948   =>   CDf =  0.00695    CDp =  0.00253

 Side 1  free  transition at x/c =  0.7485   61
 Side 2  free  transition at x/c =  0.0393   18

   4   rms: 0.5486E-04   max: -.8979E-03   D at   63  1
       a = -2.000      CL =  0.1704
      Cm = -0.0808     CD =  0.00948   =>   CDf =  0.00696    CDp =  0.00252
 plradd ia,ip,cpol            5           0  8.61611962E-03

 Point added to stored polar  1
 Point written to save file  k3311_Re500k.base.pol                           
 Dump file unspecified or not available
 Calculating wake trajectory ...
 Calculating source influence matrix ...

 Solving BL system ...

 Side 1  free  transition at x/c =  0.7485   61
 Side 2  free  transition at x/c =  0.0393   18

   1   rms: 0.9523E-01   max: -.2703E+00   D at   18  2
       a = -1.500      CL =  0.2229
      Cm = -0.0799     CD =  0.00913   =>   CDf =  0.00696    CDp =  0.00217

 Side 1  free  transition at x/c =  0.7267   60
 Side 2  free  transition at x/c =  0.0421   18

   2   rms: 0.1638E-01   max: -.2819E+00   D at   60  1
       a = -1.500      CL =  0.2231
      Cm = -0.0799     CD =  0.00920   =>   CDf =  0.00714    CDp =  0.00206

 Side 1  free  transition at x/c =  0.7301   60
 Side 2  free  transition at x/c =  0.0422   18

   3   rms: 0.4959E-02   max: 0.7685E-01   C at   60  1
       a = -1.500      CL =  0.2232
      Cm = -0.0800     CD =  0.00921   =>   CDf =  0.00707    CDp =  0.00214

 Side 1  free  transition at x/c =  0.7284   60
 Side 2  free  transition at x/c =  0.0422   18

   4   rms: 0.1724E-03   max: -.2785E-02   D at   62  1
       a = -1.500      CL =  0.2232
      Cm = -0.0800     CD =  0.00921   =>   CDf =  0.00709    CDp =  0.00212

 Side 1  free  transition at x/c =  0.7284   60
 Side 2  free  transition at x/c =  0.0422   18

   5   rms: 0.1047E-05   max: -.5783E-05   C at   60  1
       a = -1.500      CL =  0.2232
      Cm = -0.0800     CD =  0.00921   =>   CDf =  0.00709    CDp =  0.00212
 plradd ia,ip,cpol            6           0  8.61611962E-03

 Point added to stored polar  1
 Point written to save file  k3311_Re500k.base.pol                           
 Dump file unspecified or not available
 Calculating wake trajectory ...
 Calculating source influence matrix ...

 Solving BL system ...

 Side 1  free  transition at x/c =  0.7284   60
 Side 2  free  transition at x/c =  0.0422   18

   1   rms: 0.9573E-01   max: -.3275E+00   T at   18  2
       a = -1.000      CL =  0.2758
      Cm = -0.0791     CD =  0.00904   =>   CDf =  0.00710    CDp =  0.00194

 Side 1  free  transition at x/c =  0.7057   59
 Side 2  free  transition at x/c =  0.0474   18

   2   rms: 0.3118E-01   max: -.5253E+00   D at   17  2   RLX: 0.952
       a = -1.000      CL =  0.2759
      Cm = -0.0791     CD =  0.00903   =>   CDf =  0.00725    CDp =  0.00179

 Side 1  free  transition at x/c =  0.7060   59
 Side 2  free  transition at x/c =  0.0660   19

   3   rms: 0.9369E-02   max: -.1875E+00   D at   18  2
       a = -1.000      CL =  0.2756
      Cm = -0.0791     CD =  0.00896   =>   CDf =  0.00713    CDp =  0.00183

 Side 1  free  transition at x/c =  0.7056   59
 Side 2  free  transition at x/c =  0.0564   18

   4   rms: 0.2046E-02   max: 0.2877E-01   C at   18  2
       a = -1.000      CL =  0.2759
      Cm = -0.0791     CD =  0.00900   =>   CDf =  0.00716    CDp =  0.00184

 Side 1  free  transition at x/c =  0.7056   59
 Side 2  free  transition at x/c =  0.0560   18

   5   rms: 0.6887E-04   max: 0.1711E-02   C at   18  2
       a = -1.000      CL =  0.2759
      Cm = -0.0791     CD =  0.00900   =>   CDf =  0.00717    CDp =  0.00184
 plradd ia,ip,cpol            7           0  1.16501311E-02

 Point added to stored polar  1
 Point written to save file  k3311_Re500k.base.pol                           
 Dump file unspecified or not available
 Calculating wake trajectory ...
 Calculating source influence matrix ...

 Solving BL system ...

 Side 1  free  transition at x/c =  0.7056   59
 Side 2  free  transition at x/c =  0.0560   18

   1   rms: 0.3639E+00   max: -.8789E+01   C at   18  2   RLX: 0.057
       a = -0.500      CL =  0.2787
      Cm = -0.0791     CD =  0.00898   =>   CDf =  0.00717    CDp =  0.00181

 Side 1  free  transition at x/c =  0.7042   59
 Side 2  free  transition at x/c =  0.0585   18

   2   rms: 0.3258E+00   max: -.7918E+01   C at   18  2   RLX: 0.063
       a = -0.500      CL =  0.2823
      Cm = -0.0789     CD =  0.00897   =>   CDf =  0.00717    CDp =  0.00181

 Side 1  free  transition at x/c =  0.7028   59
 Side 2  free  transition at x/c =  0.0626   19

   3   rms: 0.3631E+00   max: -.8415E+01   C at   19  2   RLX: 0.059
       a = -0.500      CL =  0.2851
      Cm = -0.0788     CD =  0.00893   =>   CDf =  0.00716    CDp =  0.00177

 Side 1  free  transition at x/c =  0.7017   59
 Side 2  free  transition at x/c =  0.0702   19

   4   rms: 0.8136E+00   max: -.1939E+02   C at   19  2   RLX: 0.026
       a = -0.500      CL =  0.2861
      Cm = -0.0788     CD =  0.00891   =>   CDf =  0.00713    CDp =  0.00178

 Side 1  free  transition at x/c =  0.7012   59
 Side 2  free  transition at x/c =  0.0836   20

   5   rms: 0.3610E+00   max: -.8619E+01   C at   20  2   RLX: 0.058
       a = -0.500      CL =  0.2886
      Cm = -0.0787     CD =  0.00887   =>   CDf =  0.00710    CDp =  0.00177

 Side 1  free  transition at x/c =  0.7002   59
 Side 2  free  transition at x/c =  0.1145   22

   6   rms: 0.1166E+01   max: -.2689E+02   C at   22  2   RLX: 0.019
       a = -0.500      CL =  0.2884
      Cm = -0.0788     CD =  0.00875   =>   CDf =  0.00701    CDp =  0.00175

 Side 1  free  transition at x/c =  0.6999   59
 Side 2  free  transition at x/c =  0.1413   24

   7   rms: 0.2341E+01   max: -.5425E+02   C at   24  2   RLX: 0.009
       a = -0.500      CL =  0.2882
      Cm = -0.0788     CD =  0.00865   =>   CDf =  0.00693    CDp =  0.00172

 Side 1  free  transition at x/c =  0.6998   59
 Side 2  free  transition at x/c =  0.1448   24

   8   rms: 0.2095E+01   max: -.4740E+02   C at   24  2   RLX: 0.011
       a = -0.500      CL =  0.2886
      Cm = -0.0788     CD =  0.00864   =>   CDf =  0.00692    CDp =  0.00172

 Side 1  free  transition at x/c =  0.6996   59
 Side 2  free  transition at x/c =  0.1534   25

   9   rms: 0.1885E+01   max: -.4374E+02   C at   25  2   RLX: 0.011
       a = -0.500      CL =  0.2888
      Cm = -0.0788     CD =  0.00860   =>   CDf =  0.00689    CDp =  0.00171

 Side 1  free  transition at x/c =  0.6995   59
 Side 2  free  transition at x/c =  0.1570   25

  10   rms: 0.1751E+01   max: -.3982E+02   C at   25  2   RLX: 0.013
       a = -0.500      CL =  0.2893
      Cm = -0.0787     CD =  0.00859   =>   CDf =  0.00688    CDp =  0.00171

 Side 1  free  transition at x/c =  0.6993   59
 Side 2  free  transition at x/c =  0.1624   26

  11   rms: 0.1246E+01   max: -.2872E+02   C at   26  2   RLX: 0.017
       a = -0.500      CL =  0.2898
      Cm = -0.0787     CD =  0.00856   =>   CDf =  0.00686    CDp =  0.00170

 Side 1  free  transition at x/c =  0.6991   59
 Side 2  free  transition at x/c =  0.1695   26

  12   rms: 0.1700E+01   max: -.3855E+02   C at   26  2   RLX: 0.013
       a = -0.500      CL =  0.2902
      Cm = -0.0787     CD =  0.00855   =>   CDf =  0.00684    CDp =  0.00170

 Side 1  free  transition at x/c =  0.6989   59
 Side 2  free  transition at x/c =  0.1738   26

  13   rms: 0.1948E+01   max: -.4242E+02   C at   26  2   RLX: 0.012
       a = -0.500      CL =  0.2906
      Cm = -0.0786     CD =  0.00853   =>   CDf =  0.00683    CDp =  0.00171

 Side 1  free  transition at x/c =  0.6988   59
 Side 2  free  transition at x/c =  0.1819   27

  14   rms: 0.1534E+01   max: -.3469E+02   C at   27  2   RLX: 0.014
       a = -0.500      CL =  0.2909
      Cm = -0.0786     CD =  0.00850   =>   CDf =  0.00680    CDp =  0.00170

 Side 1  free  transition at x/c =  0.6986   59
 Side 2  free  transition at x/c =  0.1911   28

  15   rms: 0.1384E+01   max: -.3135E+02   C at   28  2   RLX: 0.016
       a = -0.500      CL =  0.2912
      Cm = -0.0786     CD =  0.00846   =>   CDf =  0.00677    CDp =  0.00169

 Side 1  free  transition at x/c =  0.6984   59
 Side 2  free  transition at x/c =  0.2039   28

  16   rms: 0.2354E+01   max: -.5083E+02   C at   28  2   RLX: 0.010
       a = -0.500      CL =  0.2915
      Cm = -0.0786     CD =  0.00843   =>   CDf =  0.00673    CDp =  0.00170

 Side 1  free  transition at x/c =  0.6983   59
 Side 2  free  transition at x/c =  0.2119   29

  17   rms: 0.8767E+00   max: -.1961E+02   C at   29  2   RLX: 0.025
       a = -0.500      CL =  0.2922
      Cm = -0.0785     CD =  0.00840   =>   CDf =  0.00671    CDp =  0.00169

 Side 1  free  transition at x/c =  0.6980   59
 Side 2  free  transition at x/c =  0.2204   30

  18   rms: 0.5225E+00   max: -.1128E+02   C at   30  2   RLX: 0.044
       a = -0.500      CL =  0.2935
      Cm = -0.0785     CD =  0.00836   =>   CDf =  0.00669    CDp =  0.00167

 Side 1  free  transition at x/c =  0.6975   59
 Side 2  free  transition at x/c =  0.2285   30

  19   rms: 0.4017E+00   max: -.8854E+01   C at   30  2   RLX: 0.056
       a = -0.500      CL =  0.2954
      Cm = -0.0785     CD =  0.00835   =>   CDf =  0.00667    CDp =  0.00168

 Side 1  free  transition at x/c =  0.6969   58
 Side 2  free  transition at x/c =  0.2415   31

  20   rms: 0.3825E+00   max: -.8363E+01   C at   31  2   RLX: 0.060
       a = -0.500      CL =  0.2969
      Cm = -0.0784     CD =  0.00830   =>   CDf =  0.00664    CDp =  0.00166

 Side 1  free  transition at x/c =  0.6962   58
 Side 2  free  transition at x/c =  0.2561   32

  21   rms: 0.3969E+00   max: -.8618E+01   C at   32  2   RLX: 0.058
       a = -0.500      CL =  0.2982
      Cm = -0.0784     CD =  0.00824   =>   CDf =  0.00659    CDp =  0.00165

 Side 1  free  transition at x/c =  0.6955   58
 Side 2  free  transition at x/c =  0.2738   33

  22   rms: 0.6189E+00   max: -.1330E+02   C at   33  2   RLX: 0.038
       a = -0.500      CL =  0.2988
      Cm = -0.0783     CD =  0.00818   =>   CDf =  0.00653    CDp =  0.00165

 Side 1  free  transition at x/c =  0.6951   58
 Side 2  free  transition at x/c =  0.2899   34

  23   rms: 0.8083E+00   max: -.1709E+02   C at   34  2   RLX: 0.029
       a = -0.500      CL =  0.2992
      Cm = -0.0783     CD =  0.00813   =>   CDf =  0.00648    CDp =  0.00165

 Side 1  free  transition at x/c =  0.6948   58
 Side 2  free  transition at x/c =  0.3036   35

  24   rms: 0.7585E+00   max: -.1602E+02   C at   35  2   RLX: 0.031
       a = -0.500      CL =  0.2997
      Cm = -0.0783     CD =  0.00808   =>   CDf =  0.00643    CDp =  0.00165

 Side 1  free  transition at x/c =  0.6945   58
 Side 2  free  transition at x/c =  0.3183   36

  25   rms: 0.5962E+00   max: -.1255E+02   C at   36  2   RLX: 0.040
       a = -0.500      CL =  0.3004
      Cm = -0.0782     CD =  0.00803   =>   CDf =  0.00638    CDp =  0.00165

 Side 1  free  transition at x/c =  0.6942   58
 Side 2  free  transition at x/c =  0.3352   37

  26   rms: 0.3906E+00   max: -.8135E+01   C at   37  2   RLX: 0.061
       a = -0.500      CL =  0.3014
      Cm = -0.0782     CD =  0.00798   =>   CDf =  0.00633    CDp =  0.00164

 Side 1  free  transition at x/c =  0.6936   58
 Side 2  free  transition at x/c =  0.3564   39

  27   rms: 0.3578E+00   max: -.7332E+01   C at   39  2   RLX: 0.068
       a = -0.500      CL =  0.3022
      Cm = -0.0781     CD =  0.00789   =>   CDf =  0.00626    CDp =  0.00162

 Side 1  free  transition at x/c =  0.6930   58
 Side 2  free  transition at x/c =  0.3647   39

  28   rms: 0.2052E+00   max: -.4187E+01   C at   39  2   RLX: 0.119
       a = -0.500      CL =  0.3046
      Cm = -0.0781     CD =  0.00787   =>   CDf =  0.00621    CDp =  0.00167

 Side 1  free  transition at x/c =  0.6921   59
 Side 2  free  transition at x/c =  0.3800   39

  29   rms: 0.2641E+00   max: -.4956E+01   C at   39  2   RLX: 0.101
       a = -0.500      CL =  0.3061
      Cm = -0.0780     CD =  0.00782   =>   CDf =  0.00619    CDp =  0.00163

 Side 1  free  transition at x/c =  0.6914   59
 Side 2  free  transition at x/c =  0.3930   40

  30   rms: 0.2559E+00   max: -.5157E+01   C at   40  2   RLX: 0.097
       a = -0.500      CL =  0.3074
      Cm = -0.0780     CD =  0.00778   =>   CDf =  0.00614    CDp =  0.00163

 Side 1  free  transition at x/c =  0.6908   59
 Side 2  free  transition at x/c =  0.4059   41

  31   rms: 0.2250E+00   max: -.4538E+01   C at   41  2   RLX: 0.110
       a = -0.500      CL =  0.3087
      Cm = -0.0779     CD =  0.00774   =>   CDf =  0.00610    CDp =  0.00164

 Side 1  free  transition at x/c =  0.6902   59
 Side 2  free  transition at x/c =  0.4209   42

  32   rms: 0.1704E+00   max: -.3422E+01   C at   42  2   RLX: 0.146
       a = -0.500      CL =  0.3102
      Cm = -0.0779     CD =  0.00770   =>   CDf =  0.00605    CDp =  0.00164

 Side 1  free  transition at x/c =  0.6895   59
 Side 2  free  transition at x/c =  0.4371   43

  33   rms: 0.9832E-01   max: -.1954E+01   C at   43  2   RLX: 0.256
       a = -0.500      CL =  0.3127
      Cm = -0.0778     CD =  0.00766   =>   CDf =  0.00601    CDp =  0.00165

 Side 1  free  transition at x/c =  0.6885   59
 Side 2  free  transition at x/c =  0.4557   44

  34   rms: 0.3754E-01   max: -.6964E+00   C at   44  2   RLX: 0.718
       a = -0.500      CL =  0.3181
      Cm = -0.0776     CD =  0.00763   =>   CDf =  0.00596    CDp =  0.00167

 Side 1  free  transition at x/c =  0.6864   59
 Side 2  free  transition at x/c =  0.4851   46

  35   rms: 0.5624E-02   max: 0.6186E-01   D at   44  2
       a = -0.500      CL =  0.3200
      Cm = -0.0775     CD =  0.00760   =>   CDf =  0.00589    CDp =  0.00171

 Side 1  free  transition at x/c =  0.6857   59
 Side 2  free  transition at x/c =  0.4841   46

  36   rms: 0.7857E-04   max: -.9407E-03   D at   46  2
       a = -0.500      CL =  0.3200
      Cm = -0.0775     CD =  0.00761   =>   CDf =  0.00591    CDp =  0.00170
 plradd ia,ip,cpol            8           0  0.25516292    

 Point added to stored polar  1
 Point written to save file  k3311_Re500k.base.pol                           
 Dump file unspecified or not available
 Calculating wake trajectory ...
 Calculating source influence matrix ...

 Solving BL system ...

 Side 1  free  transition at x/c =  0.6857   59
 Side 2  free  transition at x/c =  0.4841   46

   1   rms: 0.3261E+00   max: -.6198E+01   C at   46  2   RLX: 0.081
       a =  0.000      CL =  0.3238
      Cm = -0.0774     CD =  0.00757   =>   CDf =  0.00591    CDp =  0.00166

 Side 1  free  transition at x/c =  0.6843   59
 Side 2  free  transition at x/c =  0.5039   47

   2   rms: 0.1836E+00   max: -.3097E+01   C at   47  2   RLX: 0.161
       a =  0.000      CL =  0.3314
      Cm = -0.0773     CD =  0.00755   =>   CDf =  0.00586    CDp =  0.00169

 Side 1  free  transition at x/c =  0.6819   58
 Side 2  free  transition at x/c =  0.5467   50

   3   rms: 0.1725E+00   max: -.2995E+01   C at   50  2   RLX: 0.167
       a =  0.000      CL =  0.3365
      Cm = -0.0767     CD =  0.00743   =>   CDf =  0.00575    CDp =  0.00168

 Side 1  free  transition at x/c =  0.6794   58
 Side 2  free  transition at x/c =  0.5713   52

   4   rms: 0.1256E+00   max: -.1983E+01   C at   52  2   RLX: 0.252
       a =  0.000      CL =  0.3444
      Cm = -0.0765     CD =  0.00736   =>   CDf =  0.00567    CDp =  0.00169

 Side 1  free  transition at x/c =  0.6762   58
 Side 2  free  transition at x/c =  0.5949   53

   5   rms: 0.5640E-01   max: -.2681E+00   C at   53  2
       a =  0.000      CL =  0.3704
      Cm = -0.0764     CD =  0.00741   =>   CDf =  0.00563    CDp =  0.00179

 Side 1  free  transition at x/c =  0.6674   57
 Side 2  free  transition at x/c =  0.6856   59

   6   rms: 0.3088E-01   max: -.4364E+00   C at   59  2
       a =  0.000      CL =  0.3666
      Cm = -0.0756     CD =  0.00715   =>   CDf =  0.00548    CDp =  0.00167

 Side 1  free  transition at x/c =  0.6678   57
 Side 2  free  transition at x/c =  0.6717   58

   7   rms: 0.1016E-01   max: -.1198E+00   C at   57  1
       a =  0.000      CL =  0.3674
      Cm = -0.0757     CD =  0.00724   =>   CDf =  0.00547    CDp =  0.00176

 Side 1  free  transition at x/c =  0.6681   58
 Side 2  free  transition at x/c =  0.6601   58

   8   rms: 0.7639E-02   max: -.8797E-01   D at   57  1
       a =  0.000      CL =  0.3676
      Cm = -0.0758     CD =  0.00723   =>   CDf =  0.00551    CDp =  0.00172

 Side 1  free  transition at x/c =  0.6687   58
 Side 2  free  transition at x/c =  0.6614   58

   9   rms: 0.1088E-02   max: 0.1278E-01   C at   58  1
       a =  0.000      CL =  0.3677
      Cm = -0.0758     CD =  0.00724   =>   CDf =  0.00544    CDp =  0.00180

 Side 1  free  transition at x/c =  0.6684   58
 Side 2  free  transition at x/c =  0.6615   58

  10   rms: 0.1478E-04   max: -.2852E-03   D at   59  1
       a =  0.000      CL =  0.3677
      Cm = -0.0758     CD =  0.00724   =>   CDf =  0.00545    CDp =  0.00179
 plradd ia,ip,cpol            9           0  0.25516292    

 Point added to stored polar  1
 Point written to save file  k3311_Re500k.base.pol                           
 Dump file unspecified or not available
 Calculating wake trajectory ...
 Calculating source influence matrix ...

 Solving BL system ...

 Side 1  free  transition at x/c =  0.6684   58
 Side 2  free  transition at x/c =  0.6615   58

   1   rms: 0.1978E+00   max: -.3257E+01   C at   58  2   RLX: 0.154
       a =  0.500      CL =  0.3748
      Cm = -0.0755     CD =  0.00720   =>   CDf =  0.00540    CDp =  0.00180

 Side 1  free  transition at x/c =  0.6661   58
 Side 2  free  transition at x/c =  0.6777   58

   2   rms: 0.2452E+00   max: -.3302E+01   D at    2  1   RLX: 0.151
       a =  0.500      CL =  0.3815
      Cm = -0.0755     CD =  0.00716   =>   CDf =  0.00541    CDp =  0.00175

 Side 1  free  transition at x/c =  0.6635   58
 Side 2  free  transition at x/c =  0.6904   59

   3   rms: 0.1334E+00   max: -.2163E+01   C at   59  2   RLX: 0.231
       a =  0.500      CL =  0.3895
      Cm = -0.0752     CD =  0.00712   =>   CDf =  0.00538    CDp =  0.00174

 Side 1  free  transition at x/c =  0.6601   58
 Side 2  free  transition at x/c =  0.7050   60

   4   rms: 0.1089E+00   max: -.1787E+01   C at   60  2   RLX: 0.280
       a =  0.500      CL =  0.3970
      Cm = -0.0750     CD =  0.00711   =>   CDf =  0.00535    CDp =  0.00175

 Side 1  free  transition at x/c =  0.6573   58
 Side 2  free  transition at x/c =  0.7212   61

   5   rms: 0.9481E-01   max: -.1645E+01   C at   61  2   RLX: 0.304
       a =  0.500      CL =  0.4026
      Cm = -0.0748     CD =  0.00709   =>   CDf =  0.00531    CDp =  0.00178

 Side 1  free  transition at x/c =  0.6553   58
 Side 2  free  transition at x/c =  0.7368   62

   6   rms: 0.7764E-01   max: -.1379E+01   C at   62  2   RLX: 0.362
       a =  0.500      CL =  0.4071
      Cm = -0.0745     CD =  0.00707   =>   CDf =  0.00527    CDp =  0.00180

 Side 1  free  transition at x/c =  0.6538   58
 Side 2  free  transition at x/c =  0.7524   63

   7   rms: 0.5951E-01   max: -.1077E+01   C at   63  2   RLX: 0.464
       a =  0.500      CL =  0.4107
      Cm = -0.0742     CD =  0.00705   =>   CDf =  0.00524    CDp =  0.00181

 Side 1  free  transition at x/c =  0.6527   57
 Side 2  free  transition at x/c =  0.7692   64

   8   rms: 0.4065E-01   max: -.7497E+00   C at   64  2   RLX: 0.667
       a =  0.500      CL =  0.4133
      Cm = -0.0738     CD =  0.00698   =>   CDf =  0.00518    CDp =  0.00180

 Side 1  free  transition at x/c =  0.6514   57
 Side 2  free  transition at x/c =  0.7876   65

   9   rms: 0.1847E-01   max: -.3458E+00   C at   65  2
       a =  0.500      CL =  0.4144
      Cm = -0.0736     CD =  0.00695   =>   CDf =  0.00511    CDp =  0.00184

 Side 1  free  transition at x/c =  0.6508   57
 Side 2  free  transition at x/c =  0.8022   66

  10   rms: 0.2472E-02   max: -.4690E-01   C at   66  2
       a =  0.500      CL =  0.4144
      Cm = -0.0735     CD =  0.00695   =>   CDf =  0.00505    CDp =  0.00189

 Side 1  free  transition at x/c =  0.6508   57
 Side 2  free  transition at x/c =  0.8038   66

  11   rms: 0.3196E-04   max: -.6009E-03   C at   66  2
       a =  0.500      CL =  0.4144
      Cm = -0.0735     CD =  0.00695   =>   CDf =  0.00505    CDp =  0.00190
 plradd ia,ip,cpol           10           0  0.24081598    

 Point added to stored polar  1
 Point written to save file  k3311_Re500k.base.pol                           
 Dump file unspecified or not available
 Calculating wake trajectory ...
 Calculating source influence matrix ...

 Solving BL system ...

 Side 1  free  transition at x/c =  0.6508   57
 Side 2  free  transition at x/c =  0.8039   66

   1   rms: 0.2112E+00   max: -.3662E+01   C at   66  2   RLX: 0.137
       a =  1.000      CL =  0.4205
      Cm = -0.0732     CD =  0.00688   =>   CDf =  0.00505    CDp =  0.00183

 Side 1  free  transition at x/c =  0.6481   57
 Side 2  free  transition at x/c =  0.8248   67

   2   rms: 0.1747E+00   max: -.2970E+01   C at   67  2   RLX: 0.168
       a =  1.000      CL =  0.4275
      Cm = -0.0729     CD =  0.00684   =>   CDf =  0.00498    CDp =  0.00186

 Side 1  free  transition at x/c =  0.6454   57
 Side 2  free  transition at x/c =  0.8560   69

   3   rms: 0.1799E+00   max: -.3089E+01   C at   69  2   RLX: 0.162
       a =  1.000      CL =  0.4333
      Cm = -0.0725     CD =  0.00677   =>   CDf =  0.00488    CDp =  0.00189

 Side 1  free  transition at x/c =  0.6433   57
 Side 2  free  transition at x/c =  0.8895   72

   4   rms: 0.2524E+00   max: -.4398E+01   C at   72  2   RLX: 0.114
       a =  1.000      CL =  0.4402
      Cm = -0.0730     CD =  0.00670   =>   CDf =  0.00481    CDp =  0.00190

 Side 1  free  transition at x/c =  0.6422   57
 Side 2  free  transition at x/c =  0.9128   73

   5   rms: 0.3720E+00   max: -.5907E+01   C at   73  2   RLX: 0.085
       a =  1.000      CL =  0.4513
      Cm = -0.0749     CD =  0.00669   =>   CDf =  0.00476    CDp =  0.00192

 Side 1  free  transition at x/c =  0.6412   57
 Side 2  free  transition at x/c =  0.9381   75

   6   rms: 0.8706E+00   max: -.1138E+02   C at   75  2   RLX: 0.044
       a =  1.000      CL =  0.4712
      Cm = -0.0790     CD =  0.00661   =>   CDf =  0.00472    CDp =  0.00189

 Side 1  free  transition at x/c =  0.6405   58
 Side 2  free  transition at x/c =  0.9480   75

   7   rms: 0.2500E+00   max: 0.1692E+01   D at   78  2   RLX: 0.358
       a =  1.000      CL =  0.5428
      Cm = -0.0930     CD =  0.00672   =>   CDf =  0.00474    CDp =  0.00198

 Side 1  free  transition at x/c =  0.6365   57
 Side 2  free  transition at x/c =  0.9331   74

   8   rms: 0.7267E-01   max: -.5779E+00   C at   74  2   RLX: 0.865
       a =  1.000      CL =  0.5241
      Cm = -0.0854     CD =  0.00666   =>   CDf =  0.00478    CDp =  0.00188

 Side 1  free  transition at x/c =  0.6314   57
 Side 2  free  transition at x/c =  0.9735   76

   9   rms: 0.5230E+00   max: -.7027E+01   C at   76  2   RLX: 0.071
       a =  1.000      CL =  0.5467
      Cm = -0.0910     CD =  0.00702   =>   CDf =  0.00476    CDp =  0.00226

 Side 1  free  transition at x/c =  0.6305   57
 Side 2  free  transition at x/c =  0.9505   75

  10   rms: 0.4804E-01   max: -.5868E+00   C at   75  2   RLX: 0.852
       a =  1.000      CL =  0.5399
      Cm = -0.0885     CD =  0.00675   =>   CDf =  0.00477    CDp =  0.00198

 Side 1  free  transition at x/c =  0.6306   57
 Side 2  free  transition at x/c =  0.9665   76

  11   rms: 0.2167E+00   max: -.3064E+01   C at   76  2   RLX: 0.163
       a =  1.000      CL =  0.5578
      Cm = -0.0930     CD =  0.00703   =>   CDf =  0.00477    CDp =  0.00227

 Side 1  free  transition at x/c =  0.6300   57
 Side 2  free  transition at x/c =  0.9469   74

  12   rms: 0.8617E-01   max: -.6338E+00   D at   79  2   RLX: 0.789
       a =  1.000      CL =  0.5140
      Cm = -0.0829     CD =  0.00673   =>   CDf =  0.00477    CDp =  0.00196

 Side 1  free  transition at x/c =  0.6314   57
 Side 2 forced transition at x/c =  1.0000   79

  13   rms: 0.2553E-01   max: 0.2599E+00   D at   78  2
       a =  1.000      CL =  0.5277
      Cm = -0.0859     CD =  0.00674   =>   CDf =  0.00478    CDp =  0.00195

 Side 1  free  transition at x/c =  0.6311   57
 Side 2 forced transition at x/c =  1.0000   79

  14   rms: 0.5933E-02   max: 0.6022E-01   D at   78  2
       a =  1.000      CL =  0.5292
      Cm = -0.0862     CD =  0.00675   =>   CDf =  0.00478    CDp =  0.00197

 Side 1  free  transition at x/c =  0.6310   57
 Side 2  free  transition at x/c =  0.9962   79

  15   rms: 0.4956E-02   max: -.5033E-01   D at   79  2
       a =  1.000      CL =  0.5261
      Cm = -0.0855     CD =  0.00675   =>   CDf =  0.00478    CDp =  0.00197

 Side 1  free  transition at x/c =  0.6311   57
 Side 2  free  transition at x/c =  0.9988   79

  16   rms: 0.7279E-03   max: 0.8342E-02   D at   79  2
       a =  1.000      CL =  0.5265
      Cm = -0.0855     CD =  0.00675   =>   CDf =  0.00478    CDp =  0.00197

 Side 1  free  transition at x/c =  0.6311   57
 Side 2  free  transition at x/c =  0.9984   79

  17   rms: 0.1848E-04   max: -.1937E-03   C at   79  2
       a =  1.000      CL =  0.5265
      Cm = -0.0855     CD =  0.00675   =>   CDf =  0.00478    CDp =  0.00197
 plradd ia,ip,cpol           11           0  0.16932662    

 Point added to stored polar  1
 Point written to save file  k3311_Re500k.base.pol                           
 Dump file unspecified or not available
 Calculating wake trajectory ...
 Calculating source influence matrix ...

 Solving BL system ...

 Side 1  free  transition at x/c =  0.6311   57
 Side 2  free  transition at x/c =  0.9984   79

   1   rms: 0.1459E+00   max: 0.1595E+01   C at   79  2   RLX: 0.941
       a =  1.500      CL =  0.6187
      Cm = -0.0946     CD =  0.00690   =>   CDf =  0.00476    CDp =  0.00213

 Side 1  free  transition at x/c =  0.6062   56
 Side 2 forced transition at x/c =  1.0000   78

   2   rms: 0.5984E-01   max: -.4412E+00   D at   78  2
       a =  1.500      CL =  0.5769
      Cm = -0.0845     CD =  0.00683   =>   CDf =  0.00495    CDp =  0.00188

 Side 1  free  transition at x/c =  0.6122   57
 Side 2 forced transition at x/c =  1.0000   78

   3   rms: 0.8464E-02   max: 0.8872E-01   C at   78  2
       a =  1.500      CL =  0.5781
      Cm = -0.0847     CD =  0.00689   =>   CDf =  0.00490    CDp =  0.00200

 Side 1  free  transition at x/c =  0.6108   57
 Side 2 forced transition at x/c =  1.0000   78

   4   rms: 0.4158E-03   max: 0.3687E-02   C at   78  2
       a =  1.500      CL =  0.5782
      Cm = -0.0847     CD =  0.00690   =>   CDf =  0.00490    CDp =  0.00199

 Side 1  free  transition at x/c =  0.6108   57
 Side 2 forced transition at x/c =  1.0000   78

   5   rms: 0.1746E-05   max: 0.1317E-04   C at   78  2
       a =  1.500      CL =  0.5782
      Cm = -0.0847     CD =  0.00690   =>   CDf =  0.00490    CDp =  0.00199
 plradd ia,ip,cpol           12           0  0.15546723    

 Point added to stored polar  1
 Point written to save file  k3311_Re500k.base.pol                           
 Dump file unspecified or not available
 Calculating wake trajectory ...
 Calculating source influence matrix ...

 Solving BL system ...

 Side 1  free  transition at x/c =  0.6108   57
 Side 2 forced transition at x/c =  1.0000   78

   1   rms: 0.9824E-01   max: -.2534E+00   n at   77  2
       a =  2.000      CL =  0.6264
      Cm = -0.0832     CD =  0.00712   =>   CDf =  0.00490    CDp =  0.00222

 Side 1  free  transition at x/c =  0.5888   55
 Side 2 forced transition at x/c =  1.0000   78

   2   rms: 0.1408E-01   max: 0.2377E+00   D at   56  1
       a =  2.000      CL =  0.6273
      Cm = -0.0833     CD =  0.00704   =>   CDf =  0.00501    CDp =  0.00203

 Side 1  free  transition at x/c =  0.5882   55
 Side 2 forced transition at x/c =  1.0000   78

   3   rms: 0.1289E-02   max: 0.2077E-01   C at   55  1
       a =  2.000      CL =  0.6274
      Cm = -0.0834     CD =  0.00704   =>   CDf =  0.00500    CDp =  0.00204

 Side 1  free  transition at x/c =  0.5876   55
 Side 2 forced transition at x/c =  1.0000   78

   4   rms: 0.8342E-05   max: -.1044E-03   D at   55  1
       a =  2.000      CL =  0.6274
      Cm = -0.0834     CD =  0.00704   =>   CDf =  0.00500    CDp =  0.00203
 plradd ia,ip,cpol           13           0  0.15546723    

 Point added to stored polar  1
 Point written to save file  k3311_Re500k.base.pol                           
 Dump file unspecified or not available
 Calculating wake trajectory ...
 Calculating source influence matrix ...

 Solving BL system ...

 Side 1  free  transition at x/c =  0.5876   55
 Side 2 forced transition at x/c =  1.0000   78

   1   rms: 0.8397E-01   max: -.1180E+00   C at   78  2
       a =  2.500      CL =  0.6765
      Cm = -0.0820     CD =  0.00722   =>   CDf =  0.00496    CDp =  0.00226

 Side 1  free  transition at x/c =  0.5674   55
 Side 2 forced transition at x/c =  1.0000   77

   2   rms: 0.1373E-01   max: -.2054E+00   D at   55  1
       a =  2.500      CL =  0.6765
      Cm = -0.0820     CD =  0.00725   =>   CDf =  0.00514    CDp =  0.00210

 Side 1  free  transition at x/c =  0.5681   55
 Side 2 forced transition at x/c =  1.0000   77

   3   rms: 0.1585E-02   max: 0.2152E-01   C at   55  1
       a =  2.500      CL =  0.6766
      Cm = -0.0820     CD =  0.00726   =>   CDf =  0.00511    CDp =  0.00215

 Side 1  free  transition at x/c =  0.5677   55
 Side 2 forced transition at x/c =  1.0000   77

   4   rms: 0.1326E-04   max: -.1910E-03   D at   57  1
       a =  2.500      CL =  0.6766
      Cm = -0.0820     CD =  0.00726   =>   CDf =  0.00512    CDp =  0.00214
 plradd ia,ip,cpol           14           0  0.15546723    

 Point added to stored polar  1
 Point written to save file  k3311_Re500k.base.pol                           
 Dump file unspecified or not available
 Calculating wake trajectory ...
 Calculating source influence matrix ...

 Solving BL system ...

 Side 1  free  transition at x/c =  0.5677   55
 Side 2 forced transition at x/c =  1.0000   77

   1   rms: 0.8451E-01   max: -.1168E+00   C at   77  2
       a =  3.000      CL =  0.7252
      Cm = -0.0805     CD =  0.00758   =>   CDf =  0.00506    CDp =  0.00252

 Side 1  free  transition at x/c =  0.5509   55
 Side 2 forced transition at x/c =  1.0000   76

   2   rms: 0.1874E-01   max: -.2836E+00   D at   55  1
       a =  3.000      CL =  0.7262
      Cm = -0.0807     CD =  0.00749   =>   CDf =  0.00521    CDp =  0.00228

 Side 1  free  transition at x/c =  0.5510   55
 Side 2 forced transition at x/c =  1.0000   76

   3   rms: 0.3238E-02   max: 0.3917E-01   C at   55  1
       a =  3.000      CL =  0.7261
      Cm = -0.0807     CD =  0.00754   =>   CDf =  0.00520    CDp =  0.00234

 Side 1  free  transition at x/c =  0.5501   54
 Side 2 forced transition at x/c =  1.0000   76

   4   rms: 0.6476E-03   max: -.9871E-02   C at   54  1
       a =  3.000      CL =  0.7263
      Cm = -0.0808     CD =  0.00753   =>   CDf =  0.00521    CDp =  0.00231

 Side 1  free  transition at x/c =  0.5500   54
 Side 2 forced transition at x/c =  1.0000   76

   5   rms: 0.2633E-05   max: 0.3563E-04   D at   56  1
       a =  3.000      CL =  0.7263
      Cm = -0.0808     CD =  0.00753   =>   CDf =  0.00521    CDp =  0.00232
 plradd ia,ip,cpol           15           0  0.14182062    

 Point added to stored polar  1
 Point written to save file  k3311_Re500k.base.pol                           
 Dump file unspecified or not available
 Calculating wake trajectory ...
 Calculating source influence matrix ...

 Solving BL system ...

 Side 1  free  transition at x/c =  0.5500   54
 Side 2 forced transition at x/c =  1.0000   76

   1   rms: 0.8072E-01   max: -.9961E-01   C at   76  2
       a =  3.500      CL =  0.7778
      Cm = -0.0799     CD =  0.00768   =>   CDf =  0.00521    CDp =  0.00247

 Side 1  free  transition at x/c =  0.5264   53
 Side 2 forced transition at x/c =  1.0000   76

   2   rms: 0.1796E-01   max: -.2214E+00   D at   53  1
       a =  3.500      CL =  0.7758
      Cm = -0.0795     CD =  0.00777   =>   CDf =  0.00534    CDp =  0.00242

 Side 1  free  transition at x/c =  0.5321   53
 Side 2 forced transition at x/c =  1.0000   76

   3   rms: 0.2877E-02   max: 0.4194E-01   C at   53  1
       a =  3.500      CL =  0.7763
      Cm = -0.0796     CD =  0.00778   =>   CDf =  0.00524    CDp =  0.00254

 Side 1  free  transition at x/c =  0.5307   53
 Side 2 forced transition at x/c =  1.0000   76

   4   rms: 0.8814E-04   max: -.1064E-02   C at   53  1
       a =  3.500      CL =  0.7763
      Cm = -0.0796     CD =  0.00778   =>   CDf =  0.00526    CDp =  0.00253
 plradd ia,ip,cpol           16           0  6.36062250E-02

 Point added to stored polar  1
 Point written to save file  k3311_Re500k.base.pol                           
 Dump file unspecified or not available
 Calculating wake trajectory ...
 Calculating source influence matrix ...

 Solving BL system ...

 Side 1  free  transition at x/c =  0.5307   53
 Side 2 forced transition at x/c =  1.0000   76

   1   rms: 0.8243E-01   max: -.1018E+00   C at   76  2
       a =  4.000      CL =  0.8263
      Cm = -0.0785     CD =  0.00802   =>   CDf =  0.00516    CDp =  0.00286

 Side 1  free  transition at x/c =  0.5070   53
 Side 2 forced transition at x/c =  1.0000   75

   2   rms: 0.2312E-01   max: -.3391E+00   D at   53  1
       a =  4.000      CL =  0.8252
      Cm = -0.0782     CD =  0.00805   =>   CDf =  0.00537    CDp =  0.00267

 Side 1  free  transition at x/c =  0.5115   53
 Side 2 forced transition at x/c =  1.0000   75

   3   rms: 0.6371E-02   max: 0.9591E-01   C at   53  1
       a =  4.000      CL =  0.8257
      Cm = -0.0783     CD =  0.00807   =>   CDf =  0.00527    CDp =  0.00280

 Side 1  free  transition at x/c =  0.5095   53
 Side 2 forced transition at x/c =  1.0000   75

   4   rms: 0.2367E-03   max: -.3391E-02   D at   54  1
       a =  4.000      CL =  0.8257
      Cm = -0.0783     CD =  0.00808   =>   CDf =  0.00531    CDp =  0.00277

 Side 1  free  transition at x/c =  0.5095   53
 Side 2 forced transition at x/c =  1.0000   75

   5   rms: 0.1626E-05   max: 0.6762E-05   C at   75  2
       a =  4.000      CL =  0.8257
      Cm = -0.0783     CD =  0.00808   =>   CDf =  0.00531    CDp =  0.00277
 plradd ia,ip,cpol           17           0  6.36062250E-02

 Point added to stored polar  1
 Point written to save file  k3311_Re500k.base.pol                           
 Dump file unspecified or not available
 Calculating wake trajectory ...
 Calculating source influence matrix ...

 Solving BL system ...

 Side 1  free  transition at x/c =  0.5095   53
 Side 2 forced transition at x/c =  1.0000   75

   1   rms: 0.8448E-01   max: -.1015E+00   C at   75  2
       a =  4.500      CL =  0.8746
      Cm = -0.0770     CD =  0.00845   =>   CDf =  0.00520    CDp =  0.00325

 Side 1  free  transition at x/c =  0.4885   52
 Side 2 forced transition at x/c =  1.0000   74

   2   rms: 0.1253E-01   max: 0.2276E+00   D at   53  1
       a =  4.500      CL =  0.8751
      Cm = -0.0771     CD =  0.00840   =>   CDf =  0.00536    CDp =  0.00304

 Side 1  free  transition at x/c =  0.4896   52
 Side 2 forced transition at x/c =  1.0000   74

   3   rms: 0.1393E-02   max: 0.1820E-01   C at   52  1
       a =  4.500      CL =  0.8753
      Cm = -0.0771     CD =  0.00839   =>   CDf =  0.00533    CDp =  0.00306

 Side 1  free  transition at x/c =  0.4890   52
 Side 2 forced transition at x/c =  1.0000   74

   4   rms: 0.1444E-04   max: -.2230E-03   C at   52  1
       a =  4.500      CL =  0.8753
      Cm = -0.0771     CD =  0.00839   =>   CDf =  0.00534    CDp =  0.00305
 plradd ia,ip,cpol           18           0  6.36062250E-02

 Point added to stored polar  1
 Point written to save file  k3311_Re500k.base.pol                           
 Dump file unspecified or not available
 Calculating wake trajectory ...
 Calculating source influence matrix ...

 Solving BL system ...

 Side 1  free  transition at x/c =  0.4890   52
 Side 2 forced transition at x/c =  1.0000   74

   1   rms: 0.8116E-01   max: -.8508E-01   C at   74  2
       a =  5.000      CL =  0.9267
      Cm = -0.0763     CD =  0.00857   =>   CDf =  0.00534    CDp =  0.00323

 Side 1  free  transition at x/c =  0.4613   51
 Side 2 forced transition at x/c =  1.0000   74

   2   rms: 0.2559E-01   max: -.3767E+00   D at   51  1
       a =  5.000      CL =  0.9238
      Cm = -0.0757     CD =  0.00867   =>   CDf =  0.00544    CDp =  0.00323

 Side 1  free  transition at x/c =  0.4692   51
 Side 2 forced transition at x/c =  1.0000   74

   3   rms: 0.9037E-02   max: 0.1502E+00   C at   51  1
       a =  5.000      CL =  0.9247
      Cm = -0.0759     CD =  0.00869   =>   CDf =  0.00530    CDp =  0.00339

 Side 1  free  transition at x/c =  0.4660   51
 Side 2 forced transition at x/c =  1.0000   74

   4   rms: 0.3970E-03   max: -.6063E-02   D at   53  1
       a =  5.000      CL =  0.9247
      Cm = -0.0759     CD =  0.00870   =>   CDf =  0.00534    CDp =  0.00336

 Side 1  free  transition at x/c =  0.4659   51
 Side 2 forced transition at x/c =  1.0000   74

   5   rms: 0.3065E-05   max: -.2284E-04   D at   53  1
       a =  5.000      CL =  0.9247
      Cm = -0.0759     CD =  0.00870   =>   CDf =  0.00534    CDp =  0.00336
 plradd ia,ip,cpol           19           0  1.71401969E-03

 Point added to stored polar  1
 Point written to save file  k3311_Re500k.base.pol                           
 Dump file unspecified or not available
 Calculating wake trajectory ...
 Calculating source influence matrix ...

 Solving BL system ...

 Side 1  free  transition at x/c =  0.4659   51
 Side 2 forced transition at x/c =  1.0000   74

   1   rms: 0.8640E-01   max: 0.3973E+00   C at   51  1
       a =  5.500      CL =  0.9727
      Cm = -0.0745     CD =  0.00909   =>   CDf =  0.00520    CDp =  0.00389

 Side 1  free  transition at x/c =  0.4415   50
 Side 2 forced transition at x/c =  1.0000   73

   2   rms: 0.1344E-01   max: 0.2270E+00   D at   51  1
       a =  5.500      CL =  0.9734
      Cm = -0.0746     CD =  0.00905   =>   CDf =  0.00535    CDp =  0.00370

 Side 1  free  transition at x/c =  0.4418   50
 Side 2 forced transition at x/c =  1.0000   73

   3   rms: 0.1468E-02   max: 0.2241E-01   C at   50  1
       a =  5.500      CL =  0.9736
      Cm = -0.0747     CD =  0.00904   =>   CDf =  0.00533    CDp =  0.00371

 Side 1  free  transition at x/c =  0.4411   50
 Side 2 forced transition at x/c =  1.0000   73

   4   rms: 0.1014E-04   max: -.1276E-03   C at   50  1
       a =  5.500      CL =  0.9736
      Cm = -0.0747     CD =  0.00904   =>   CDf =  0.00534    CDp =  0.00371
 plradd ia,ip,cpol           20           0  1.71401969E-03

 Point added to stored polar  1
 Point written to save file  k3311_Re500k.base.pol                           
 Dump file unspecified or not available
 Calculating wake trajectory ...
 Calculating source influence matrix ...

 Solving BL system ...

 Side 1  free  transition at x/c =  0.4411   50
 Side 2 forced transition at x/c =  1.0000   73

   1   rms: 0.8538E-01   max: -.8310E-01   C at   73  2
       a =  6.000      CL =  1.0231
      Cm = -0.0735     CD =  0.00932   =>   CDf =  0.00534    CDp =  0.00398

 Side 1  free  transition at x/c =  0.3972   47
 Side 2 forced transition at x/c =  1.0000   73

   2   rms: 0.2227E-01   max: -.3015E+00   D at   48  1
       a =  6.000      CL =  1.0199
      Cm = -0.0730     CD =  0.00951   =>   CDf =  0.00546    CDp =  0.00406

 Side 1  free  transition at x/c =  0.4054   48
 Side 2 forced transition at x/c =  1.0000   73

   3   rms: 0.3567E-02   max: 0.5581E-01   C at   48  1
       a =  6.000      CL =  1.0206
      Cm = -0.0731     CD =  0.00946   =>   CDf =  0.00538    CDp =  0.00408

 Side 1  free  transition at x/c =  0.4036   48
 Side 2 forced transition at x/c =  1.0000   73

   4   rms: 0.6933E-04   max: -.1248E-02   D at   49  1
       a =  6.000      CL =  1.0206
      Cm = -0.0731     CD =  0.00946   =>   CDf =  0.00539    CDp =  0.00407
 plradd ia,ip,cpol           21           0  8.41393252E-04

 Point added to stored polar  1
 Point written to save file  k3311_Re500k.base.pol                           
 Dump file unspecified or not available
 Calculating wake trajectory ...
 Calculating source influence matrix ...

 Solving BL system ...

 Side 1  free  transition at x/c =  0.4036   48
 Side 2 forced transition at x/c =  1.0000   73

   1   rms: 0.1012E+00   max: 0.9236E+00   C at   48  1   RLX: 0.807
       a =  6.500      CL =  1.0555
      Cm = -0.0713     CD =  0.00999   =>   CDf =  0.00523    CDp =  0.00476

 Side 1  free  transition at x/c =  0.3518   45
 Side 2 forced transition at x/c =  1.0000   72

   2   rms: 0.2713E-01   max: 0.1823E+00   T at    2  1
       a =  6.500      CL =  1.0637
      Cm = -0.0709     CD =  0.01013   =>   CDf =  0.00561    CDp =  0.00452

 Side 1  free  transition at x/c =  0.3453   45
 Side 2 forced transition at x/c =  1.0000   72

   3   rms: 0.1523E-02   max: 0.2540E-01   D at   46  1
       a =  6.500      CL =  1.0630
      Cm = -0.0708     CD =  0.01018   =>   CDf =  0.00560    CDp =  0.00458

 Side 1  free  transition at x/c =  0.3457   45
 Side 2 forced transition at x/c =  1.0000   72

   4   rms: 0.2033E-04   max: -.4094E-03   D at   46  1
       a =  6.500      CL =  1.0630
      Cm = -0.0708     CD =  0.01018   =>   CDf =  0.00560    CDp =  0.00458
 plradd ia,ip,cpol           22           0  8.41393252E-04

 Point added to stored polar  1
 Point written to save file  k3311_Re500k.base.pol                           
 Dump file unspecified or not available
 Calculating wake trajectory ...
 Calculating source influence matrix ...

 Solving BL system ...

 Side 1  free  transition at x/c =  0.3457   45
 Side 2 forced transition at x/c =  1.0000   72

   1   rms: 0.1374E+00   max: 0.1818E+01   C at   45  1   RLX: 0.541
       a =  7.000      CL =  1.0824
      Cm = -0.0691     CD =  0.01083   =>   CDf =  0.00560    CDp =  0.00523

 Side 1  free  transition at x/c =  0.3080   42
 Side 2 forced transition at x/c =  1.0000   72

   2   rms: 0.4724E-01   max: 0.3105E+00   C at   42  1
       a =  7.000      CL =  1.1039
      Cm = -0.0684     CD =  0.01109   =>   CDf =  0.00579    CDp =  0.00531

 Side 1  free  transition at x/c =  0.2775   40
 Side 2 forced transition at x/c =  1.0000   72

   3   rms: 0.1021E-01   max: -.1852E+00   C at   40  1
       a =  7.000      CL =  1.1021
      Cm = -0.0681     CD =  0.01117   =>   CDf =  0.00591    CDp =  0.00527

 Side 1  free  transition at x/c =  0.2824   40
 Side 2 forced transition at x/c =  1.0000   72

   4   rms: 0.3723E-03   max: -.7702E-02   D at   41  1
       a =  7.000      CL =  1.1021
      Cm = -0.0681     CD =  0.01118   =>   CDf =  0.00588    CDp =  0.00530

 Side 1  free  transition at x/c =  0.2823   40
 Side 2 forced transition at x/c =  1.0000   72

   5   rms: 0.1382E-05   max: 0.2441E-04   C at   40  1
       a =  7.000      CL =  1.1021
      Cm = -0.0681     CD =  0.01118   =>   CDf =  0.00588    CDp =  0.00530
 plradd ia,ip,cpol           23           0  8.41393252E-04

 Point added to stored polar  1
 Point written to save file  k3311_Re500k.base.pol                           
 Dump file unspecified or not available
 Calculating wake trajectory ...
 Calculating source influence matrix ...

 Solving BL system ...

 Side 1  free  transition at x/c =  0.2823   40
 Side 2 forced transition at x/c =  1.0000   72

   1   rms: 0.1050E+00   max: 0.1305E+01   C at   40  1
       a =  7.500      CL =  1.1465
      Cm = -0.0663     CD =  0.01190   =>   CDf =  0.00569    CDp =  0.00621

 Side 1  free  transition at x/c =  0.1984   36
 Side 2 forced transition at x/c =  1.0000   71
 idif Ue xi dudx           1  0.14500405      4.02164459E-03   36.055908    
 Uenew xinew           2  8.63938010E-04  2.39610672E-05

   2   rms: 0.8265E-01   max: -.1359E+01   T at    2  1   RLX: 0.368
       a =  7.500      CL =  1.1433
      Cm = -0.0660     CD =  0.01240   =>   CDf =  0.00647    CDp =  0.00594

 Side 1  free  transition at x/c =  0.2016   35
 Side 2 forced transition at x/c =  1.0000   72

   3   rms: 0.4860E-01   max: -.7768E+00   T at    2  2   RLX: 0.644
       a =  7.500      CL =  1.1402
      Cm = -0.0654     CD =  0.01239   =>   CDf =  0.00627    CDp =  0.00612

 Side 1  free  transition at x/c =  0.2060   35
 Side 2 forced transition at x/c =  1.0000   72

   4   rms: 0.7662E-02   max: -.1354E+00   C at   35  1
       a =  7.500      CL =  1.1381
      Cm = -0.0651     CD =  0.01240   =>   CDf =  0.00624    CDp =  0.00616

 Side 1  free  transition at x/c =  0.2090   35
 Side 2 forced transition at x/c =  1.0000   72

   5   rms: 0.1706E-03   max: -.3386E-02   C at   35  1
       a =  7.500      CL =  1.1381
      Cm = -0.0651     CD =  0.01240   =>   CDf =  0.00622    CDp =  0.00618

 Side 1  free  transition at x/c =  0.2091   35
 Side 2 forced transition at x/c =  1.0000   72

   6   rms: 0.1526E-05   max: -.1023E-04   D at    4  2
       a =  7.500      CL =  1.1381
      Cm = -0.0651     CD =  0.01240   =>   CDf =  0.00622    CDp =  0.00618
 plradd ia,ip,cpol           24           0  8.41393252E-04

 Point added to stored polar  1
 Point written to save file  k3311_Re500k.base.pol                           
 Dump file unspecified or not available
 Calculating wake trajectory ...
 Calculating source influence matrix ...

 Solving BL system ...

 Side 1  free  transition at x/c =  0.2091   35
 Side 2 forced transition at x/c =  1.0000   72

   1   rms: 0.1489E+00   max: 0.2693E+01   C at   35  1   RLX: 0.557
       a =  8.000      CL =  1.1586
      Cm = -0.0635     CD =  0.01309   =>   CDf =  0.00603    CDp =  0.00707

 Side 1  free  transition at x/c =  0.1481   32
 Side 2 forced transition at x/c =  1.0000   71

   2   rms: 0.7833E-01   max: 0.1469E+01   C at   32  1
       a =  8.000      CL =  1.1645
      Cm = -0.0607     CD =  0.01429   =>   CDf =  0.00654    CDp =  0.00774

 Side 1  free  transition at x/c =  0.1071   29
 Side 2 forced transition at x/c =  1.0000   71

   3   rms: 0.1031E-01   max: -.9975E-01   D at   32  1
       a =  8.000      CL =  1.1623
      Cm = -0.0603     CD =  0.01439   =>   CDf =  0.00681    CDp =  0.00759

 Side 1  free  transition at x/c =  0.1070   29
 Side 2 forced transition at x/c =  1.0000   71

   4   rms: 0.5916E-03   max: 0.1152E-01   C at   29  1
       a =  8.000      CL =  1.1621
      Cm = -0.0603     CD =  0.01441   =>   CDf =  0.00681    CDp =  0.00760

 Side 1  free  transition at x/c =  0.1068   29
 Side 2 forced transition at x/c =  1.0000   71

   5   rms: 0.5096E-05   max: -.8902E-04   C at   29  1
       a =  8.000      CL =  1.1621
      Cm = -0.0603     CD =  0.01441   =>   CDf =  0.00681    CDp =  0.00760
 plradd ia,ip,cpol           25           0  2.62948131E-04

 Point added to stored polar  1
 Point written to save file  k3311_Re500k.base.pol                           
 Dump file unspecified or not available
 Calculating wake trajectory ...
 Calculating source influence matrix ...

 Solving BL system ...

 Side 1  free  transition at x/c =  0.1068   29
 Side 2 forced transition at x/c =  1.0000   71

   1   rms: 0.2373E+00   max: 0.4563E+01   C at   29  1   RLX: 0.329
       a =  8.500      CL =  1.1673
      Cm = -0.0584     CD =  0.01528   =>   CDf =  0.00681    CDp =  0.00847

 Side 1  free  transition at x/c =  0.0808   27
 Side 2 forced transition at x/c =  1.0000   71

   2   rms: 0.1859E+00   max: 0.3392E+01   C at   27  1   RLX: 0.350
       a =  8.500      CL =  1.1697
      Cm = -0.0567     CD =  0.01586   =>   CDf =  0.00697    CDp =  0.00890

 Side 1  free  transition at x/c =  0.0421   24
 Side 2 forced transition at x/c =  1.0000   71

   3   rms: 0.1266E+00   max: 0.1818E+01   C at   24  1   RLX: 0.441
       a =  8.500      CL =  1.1671
      Cm = -0.0548     CD =  0.01680   =>   CDf =  0.00727    CDp =  0.00953

 Side 1  free  transition at x/c =  0.0310   22
 Side 2 forced transition at x/c =  1.0000   71

   4   rms: 0.3908E-01   max: 0.4414E+00   C at   22  1
       a =  8.500      CL =  1.1741
      Cm = -0.0536     CD =  0.01707   =>   CDf =  0.00735    CDp =  0.00972

 Side 1  free  transition at x/c =  0.0250   21
 Side 2 forced transition at x/c =  1.0000   71

   5   rms: 0.2475E-02   max: -.2360E-01   D at   22  1
       a =  8.500      CL =  1.1725
      Cm = -0.0533     CD =  0.01712   =>   CDf =  0.00738    CDp =  0.00974

 Side 1  free  transition at x/c =  0.0250   21
 Side 2 forced transition at x/c =  1.0000   71

   6   rms: 0.2202E-04   max: 0.1434E-03   C at   21  1
       a =  8.500      CL =  1.1725
      Cm = -0.0533     CD =  0.01712   =>   CDf =  0.00738    CDp =  0.00974
 plradd ia,ip,cpol           26           0  2.62948131E-04

 Point added to stored polar  1
 Point written to save file  k3311_Re500k.base.pol                           
 Dump file unspecified or not available
 Calculating wake trajectory ...
 Calculating source influence matrix ...

 Solving BL system ...

 Side 1  free  transition at x/c =  0.0250   21
 Side 2 forced transition at x/c =  1.0000   71

   1   rms: 0.8431E-01   max: 0.5308E+00   T at   21  1
       a =  9.000      CL =  1.2060
      Cm = -0.0497     CD =  0.01825   =>   CDf =  0.00738    CDp =  0.01087

 Side 1  free  transition at x/c =  0.0188   20
 Side 2 forced transition at x/c =  1.0000   71

   2   rms: 0.1763E-01   max: -.1047E+00   D at   21  1
       a =  9.000      CL =  1.1917
      Cm = -0.0474     CD =  0.01872   =>   CDf =  0.00725    CDp =  0.01147

 Side 1  free  transition at x/c =  0.0190   21
 Side 2 forced transition at x/c =  1.0000   71

   3   rms: 0.8714E-02   max: -.8864E-01   D at   20  1
       a =  9.000      CL =  1.1936
      Cm = -0.0477     CD =  0.01862   =>   CDf =  0.00726    CDp =  0.01136

 Side 1  free  transition at x/c =  0.0191   21
 Side 2 forced transition at x/c =  1.0000   71

   4   rms: 0.2181E-03   max: 0.1895E-02   D at   20  1
       a =  9.000      CL =  1.1936
      Cm = -0.0477     CD =  0.01864   =>   CDf =  0.00728    CDp =  0.01136

 Side 1  free  transition at x/c =  0.0191   21
 Side 2 forced transition at x/c =  1.0000   71

   5   rms: 0.5055E-05   max: -.1806E-04   D at   21  1
       a =  9.000      CL =  1.1936
      Cm = -0.0477     CD =  0.01864   =>   CDf =  0.00728    CDp =  0.01136
 plradd ia,ip,cpol           27           0  2.62948131E-04

 Point added to stored polar  1
 Point written to save file  k3311_Re500k.base.pol                           
 Dump file unspecified or not available
 Calculating wake trajectory ...
 Calculating source influence matrix ...

 Solving BL system ...

 Side 1  free  transition at x/c =  0.0191   21
 Side 2 forced transition at x/c =  1.0000   71

   1   rms: 0.1033E+00   max: 0.3639E+00   T at   21  1
       a =  9.500      CL =  1.2002
      Cm = -0.0399     CD =  0.02115   =>   CDf =  0.00698    CDp =  0.01418

 Side 1  free  transition at x/c =  0.0167   21
 Side 2 forced transition at x/c =  1.0000   70

   2   rms: 0.6256E-01   max: -.5638E+00   D at   21  1   RLX: 0.887
       a =  9.500      CL =  1.2099
      Cm = -0.0419     CD =  0.02031   =>   CDf =  0.00695    CDp =  0.01336

 Side 1  free  transition at x/c =  0.0171   21
 Side 2 forced transition at x/c =  1.0000   70

   3   rms: 0.6225E-02   max: -.4387E-01   D at   21  1
       a =  9.500      CL =  1.2150
      Cm = -0.0425     CD =  0.02014   =>   CDf =  0.00710    CDp =  0.01304

 Side 1  free  transition at x/c =  0.0170   21
 Side 2 forced transition at x/c =  1.0000   70

   4   rms: 0.6289E-04   max: -.4604E-03   D at   79  2
       a =  9.500      CL =  1.2150
      Cm = -0.0425     CD =  0.02015   =>   CDf =  0.00711    CDp =  0.01304
 plradd ia,ip,cpol           28           0  2.62948131E-04

 Point added to stored polar  1
 Point written to save file  k3311_Re500k.base.pol                           
 Dump file unspecified or not available
 Calculating wake trajectory ...
 Calculating source influence matrix ...

 Solving BL system ...

 Side 1  free  transition at x/c =  0.0170   21
 Side 2 forced transition at x/c =  1.0000   70

   1   rms: 0.7497E-01   max: 0.2890E+00   T at   21  1
       a = 10.000      CL =  1.2358
      Cm = -0.0376     CD =  0.02190   =>   CDf =  0.00711    CDp =  0.01479

 Side 1  free  transition at x/c =  0.0152   21
 Side 2 forced transition at x/c =  1.0000   70

   2   rms: 0.1128E-01   max: -.9750E-01   D at   21  1
       a = 10.000      CL =  1.2313
      Cm = -0.0373     CD =  0.02203   =>   CDf =  0.00695    CDp =  0.01508

 Side 1  free  transition at x/c =  0.0153   21
 Side 2 forced transition at x/c =  1.0000   70

   3   rms: 0.3746E-03   max: 0.4874E-02   D at   86  1
       a = 10.000      CL =  1.2314
      Cm = -0.0373     CD =  0.02205   =>   CDf =  0.00696    CDp =  0.01509

 Side 1  free  transition at x/c =  0.0153   21
 Side 2 forced transition at x/c =  1.0000   70

   4   rms: 0.9996E-05   max: 0.3671E-04   D at   76  2
       a = 10.000      CL =  1.2314
      Cm = -0.0373     CD =  0.02205   =>   CDf =  0.00696    CDp =  0.01509
 plradd ia,ip,cpol           29           0  2.62948131E-04

 Point added to stored polar  1
 Point written to save file  k3311_Re500k.base.pol                           
 Dump file unspecified or not available

.OPERva   c>  
 Solving BL system ...

 Side 1  free  transition at x/c =  0.0153   21
 Side 2 forced transition at x/c =  1.0000   70

   1   rms: 0.4849E-06   max: 0.2013E-05   D at   81  2
       a = 10.000      CL =  1.2314
      Cm = -0.0373     CD =  0.02205   =>   CDf =  0.00696    CDp =  0.01509
 plradd ia,ip,cpol           30         182  2.62948131E-04

[...]

 Side 1  free  transition at x/c =  0.0108   21
 Side 2 forced transition at x/c =  1.0000   69

   4   rms: 0.1697E-04   max: 0.1259E-03   D at   81  2
       a = 12.750      CL =  1.2681
      Cm = -0.0181     CD =  0.04155   =>   CDf =  0.00597    CDp =  0.03558
 plradd ia,ip,cpol           41           0 -3.90064197E-05

 Point added to stored polar  1
 Point written to save file  k3311_Re500k.base.pol                           
 Dump file unspecified or not available
 Calculating wake trajectory ...
 Calculating source influence matrix ...

 Solving BL system ...

 Side 1  free  transition at x/c =  0.0108   21
 Side 2 forced transition at x/c =  1.0000   69

   1   rms: 0.3504E-01   max: 0.9607E-01   D at   65  1   RLX: 0.761
       a = 13.000      CL =  1.2722
      Cm = -0.0176     CD =  0.04339   =>   CDf =  0.00597    CDp =  0.03742

 Side 1  free  transition at x/c =  0.0107   21
 Side 2 forced transition at x/c =  1.0000   69

   2   rms: 0.8978E-02   max: 0.3565E-01   D at   69  1
       a = 13.000      CL =  1.2715
      Cm = -0.0173     CD =  0.04391   =>   CDf =  0.00591    CDp =  0.03800

 Side 1  free  transition at x/c =  0.0107   21
 Side 2 forced transition at x/c =  1.0000   69

   3   rms: 0.9648E-03   max: 0.4578E-02   D at   82  2
       a = 13.000      CL =  1.2708
      Cm = -0.0173     CD =  0.04385   =>   CDf =  0.00588    CDp =  0.03797

 Side 1  free  transition at x/c =  0.0107   21
 Side 2 forced transition at x/c =  1.0000   69

   4   rms: 0.3045E-04   max: 0.2504E-03   D at   82  2
       a = 13.000      CL =  1.2708
      Cm = -0.0173     CD =  0.04385   =>   CDf =  0.00588    CDp =  0.03796
 plradd ia,ip,cpol           42           0 -3.90064197E-05

 Point added to stored polar  1
 Point written to save file  k3311_Re500k.base.pol                           
 Dump file unspecified or not available
 Calculating wake trajectory ...
 Calculating source influence matrix ...

 Solving BL system ...

 Side 1  free  transition at x/c =  0.0107   21
 Side 2 forced transition at x/c =  1.0000   69

   1   rms: 0.3505E-01   max: 0.1371E+00   T at   21  1   RLX: 0.732
       a = 13.250      CL =  1.2746
      Cm = -0.0169     CD =  0.04568   =>   CDf =  0.00588    CDp =  0.03979

 Side 1  free  transition at x/c =  0.0104   21
 Side 2 forced transition at x/c =  1.0000   69

   2   rms: 0.9780E-02   max: 0.3822E-01   T at   21  1
       a = 13.250      CL =  1.2732
      Cm = -0.0165     CD =  0.04638   =>   CDf =  0.00584    CDp =  0.04054

 Side 1  free  transition at x/c =  0.0103   21
 Side 2 forced transition at x/c =  1.0000   69

   3   rms: 0.1185E-02   max: 0.6115E-02   D at   82  2
       a = 13.250      CL =  1.2723
      Cm = -0.0165     CD =  0.04633   =>   CDf =  0.00582    CDp =  0.04051

 Side 1  free  transition at x/c =  0.0103   21
 Side 2 forced transition at x/c =  1.0000   69

   4   rms: 0.2748E-04   max: 0.2889E-03   D at   82  2
       a = 13.250      CL =  1.2723
      Cm = -0.0165     CD =  0.04632   =>   CDf =  0.00582    CDp =  0.04051
 plradd ia,ip,cpol           43           0 -3.90064197E-05

 Point added to stored polar  1
 Point written to save file  k3311_Re500k.base.pol                           
 Dump file unspecified or not available
 Calculating wake trajectory ...
 Calculating source influence matrix ...

 Solving BL system ...

 Side 1  free  transition at x/c =  0.0103   21
 Side 2 forced transition at x/c =  1.0000   69

   1   rms: 0.3639E-01   max: 0.8989E-01   D at   63  1   RLX: 0.704
       a = 13.500      CL =  1.2761
      Cm = -0.0159     CD =  0.04816   =>   CDf =  0.00540    CDp =  0.04276

 Side 1  free  transition at x/c =  0.0102   22
 Side 2 forced transition at x/c =  1.0000   68

   2   rms: 0.1196E-01   max: 0.6348E-01   D at    2  1
       a = 13.500      CL =  1.2758
      Cm = -0.0156     CD =  0.04888   =>   CDf =  0.00574    CDp =  0.04313

 Side 1  free  transition at x/c =  0.0102   22
 Side 2 forced transition at x/c =  1.0000   68

   3   rms: 0.1724E-02   max: 0.7878E-02   D at   81  2
       a = 13.500      CL =  1.2748
      Cm = -0.0155     CD =  0.04882   =>   CDf =  0.00571    CDp =  0.04311

 Side 1  free  transition at x/c =  0.0102   22
 Side 2 forced transition at x/c =  1.0000   68

   4   rms: 0.5609E-04   max: -.5029E-03   C at   68  2
       a = 13.500      CL =  1.2747
      Cm = -0.0155     CD =  0.04880   =>   CDf =  0.00571    CDp =  0.04309
 plradd ia,ip,cpol           44           0 -3.90064197E-05

 Point added to stored polar  1
 Point written to save file  k3311_Re500k.base.pol                           
 Dump file unspecified or not available
 Calculating wake trajectory ...
 Calculating source influence matrix ...

 Solving BL system ...

 Side 1  free  transition at x/c =  0.0102   22
 Side 2 forced transition at x/c =  1.0000   68

   1   rms: 0.3600E-01   max: 0.8338E-01   D at   63  1   RLX: 0.680
       a = 13.750      CL =  1.2790
      Cm = -0.0150     CD =  0.05056   =>   CDf =  0.00571    CDp =  0.04485

 Side 1  free  transition at x/c =  0.0101   22
 Side 2 forced transition at x/c =  1.0000   68

   2   rms: 0.1165E-01   max: 0.3454E-01   D at   82  2
       a = 13.750      CL =  1.2791
      Cm = -0.0147     CD =  0.05136   =>   CDf =  0.00564    CDp =  0.04572

 Side 1  free  transition at x/c =  0.0101   22
 Side 2 forced transition at x/c =  1.0000   68

   3   rms: 0.1825E-02   max: 0.6656E-02   D at   82  2
       a = 13.750      CL =  1.2780
      Cm = -0.0147     CD =  0.05130   =>   CDf =  0.00561    CDp =  0.04570

 Side 1  free  transition at x/c =  0.0101   22
 Side 2 forced transition at x/c =  1.0000   68

   4   rms: 0.6361E-04   max: -.5291E-03   C at   68  2
       a = 13.750      CL =  1.2780
      Cm = -0.0147     CD =  0.05128   =>   CDf =  0.00561    CDp =  0.04567
 plradd ia,ip,cpol           45           0 -3.90064197E-05

 Point added to stored polar  1
 Point written to save file  k3311_Re500k.base.pol                           
 Dump file unspecified or not available
 Calculating wake trajectory ...
 Calculating source influence matrix ...

 Solving BL system ...

 Side 1  free  transition at x/c =  0.0101   22
 Side 2 forced transition at x/c =  1.0000   68

   1   rms: 0.4292E-01   max: 0.1390E+00   T at   22  1   RLX: 0.658
       a = 14.000      CL =  1.2821
      Cm = -0.0140     CD =  0.05314   =>   CDf =  0.00561    CDp =  0.04753

 Side 1  free  transition at x/c =  0.0099   22
 Side 2 forced transition at x/c =  1.0000   68

   2   rms: 0.2009E-01   max: 0.6347E-01   D at   26  1
       a = 14.000      CL =  1.2824
      Cm = -0.0131     CD =  0.05429   =>   CDf =  0.00552    CDp =  0.04877

 Side 1  free  transition at x/c =  0.0098   22
 Side 2 forced transition at x/c =  1.0000   68

   3   rms: 0.3893E-02   max: -.1187E-01   D at   24  1
       a = 14.000      CL =  1.2801
      Cm = -0.0132     CD =  0.05441   =>   CDf =  0.00547    CDp =  0.04894

 Side 1  free  transition at x/c =  0.0098   22
 Side 2 forced transition at x/c =  1.0000   68

   4   rms: 0.4534E-03   max: -.1782E-02   D at   69  1
       a = 14.000      CL =  1.2802
      Cm = -0.0132     CD =  0.05436   =>   CDf =  0.00547    CDp =  0.04889

 Side 1  free  transition at x/c =  0.0098   22
 Side 2 forced transition at x/c =  1.0000   68

   5   rms: 0.3380E-04   max: 0.1522E-03   C at   68  2
       a = 14.000      CL =  1.2802
      Cm = -0.0132     CD =  0.05437   =>   CDf =  0.00547    CDp =  0.04890
 plradd ia,ip,cpol           46           0 -3.90064197E-05

 Point added to stored polar  1
 Point written to save file  k3311_Re500k.base.pol                           
 Dump file unspecified or not available
 Calculating wake trajectory ...
 Calculating source influence matrix ...

 Solving BL system ...

 Side 1  free  transition at x/c =  0.0098   22
 Side 2 forced transition at x/c =  1.0000   68

   1   rms: 0.7510E-01   max: 0.2613E+00   D at   25  1   RLX: 0.640
       a = 14.250      CL =  1.2872
      Cm = -0.0117     CD =  0.05664   =>   CDf =  0.00547    CDp =  0.05117

 Side 1  free  transition at x/c =  0.0097   21
 Side 2 forced transition at x/c =  1.0000   68

   2   rms: 0.2273E-01   max: 0.1054E+00   D at   69  1
       a = 14.250      CL =  1.2800
      Cm = -0.0124     CD =  0.05834   =>   CDf =  0.00532    CDp =  0.05302

 Side 1  free  transition at x/c =  0.0096   21
 Side 2 forced transition at x/c =  1.0000   68

   3   rms: 0.2118E-02   max: 0.2542E-01   D at   68  1
       a = 14.250      CL =  1.2788
      Cm = -0.0123     CD =  0.05796   =>   CDf =  0.00527    CDp =  0.05270

 Side 1  free  transition at x/c =  0.0096   21
 Side 2 forced transition at x/c =  1.0000   68

   4   rms: 0.7970E-04   max: -.7063E-03   D at   68  1
       a = 14.250      CL =  1.2788
      Cm = -0.0123     CD =  0.05794   =>   CDf =  0.00527    CDp =  0.05267
 plradd ia,ip,cpol           47           0 -3.90064197E-05

 Point added to stored polar  1
 Point written to save file  k3311_Re500k.base.pol                           
 Dump file unspecified or not available
 Calculating wake trajectory ...
 Calculating source influence matrix ...

 Solving BL system ...

 Side 1  free  transition at x/c =  0.0096   21
 Side 2 forced transition at x/c =  1.0000   68

   1   rms: 0.3408E-01   max: 0.9467E-01   D at   62  1   RLX: 0.610
       a = 14.500      CL =  1.2808
      Cm = -0.0122     CD =  0.06001   =>   CDf =  0.00527    CDp =  0.05473

 Side 1  free  transition at x/c =  0.0096   21
 Side 2 forced transition at x/c =  1.0000   68

   2   rms: 0.1488E-01   max: 0.5576E-01   D at   67  1
       a = 14.500      CL =  1.2773
      Cm = -0.0125     CD =  0.06131   =>   CDf =  0.00516    CDp =  0.05615

 Side 1  free  transition at x/c =  0.0096   21
 Side 2 forced transition at x/c =  1.0000   68

   3   rms: 0.1480E-02   max: 0.1068E-01   D at   66  1
       a = 14.500      CL =  1.2764
      Cm = -0.0124     CD =  0.06103   =>   CDf =  0.00511    CDp =  0.05593

 Side 1  free  transition at x/c =  0.0096   21
 Side 2 forced transition at x/c =  1.0000   68

   4   rms: 0.1541E-03   max: -.6100E-03   D at   67  1
       a = 14.500      CL =  1.2765
      Cm = -0.0124     CD =  0.06102   =>   CDf =  0.00511    CDp =  0.05591

 Side 1  free  transition at x/c =  0.0096   21
 Side 2 forced transition at x/c =  1.0000   68

   5   rms: 0.8018E-05   max: -.6422E-04   D at   83  2
       a = 14.500      CL =  1.2765
      Cm = -0.0124     CD =  0.06102   =>   CDf =  0.00511    CDp =  0.05591
 plradd ia,ip,cpol           48           0 -3.90064197E-05

 Point added to stored polar  1
 Point written to save file  k3311_Re500k.base.pol                           
 Dump file unspecified or not available
 Calculating wake trajectory ...
 Calculating source influence matrix ...

 Solving BL system ...

 Side 1  free  transition at x/c =  0.0096   21
 Side 2 forced transition at x/c =  1.0000   68

   1   rms: 0.3306E-01   max: 0.1374E+00   T at   21  1   RLX: 0.585
       a = 14.750      CL =  1.2755
      Cm = -0.0130     CD =  0.06315   =>   CDf =  0.00511    CDp =  0.05803

 Side 1  free  transition at x/c =  0.0095   21
 Side 2 forced transition at x/c =  1.0000   68

   2   rms: 0.1396E-01   max: 0.6133E-01   T at   21  1
       a = 14.750      CL =  1.2736
      Cm = -0.0133     CD =  0.06441   =>   CDf =  0.00501    CDp =  0.05940

 Side 1  free  transition at x/c =  0.0094   21
 Side 2 forced transition at x/c =  1.0000   68

   3   rms: 0.1084E-02   max: 0.8504E-02   D at   83  2
       a = 14.750      CL =  1.2730
      Cm = -0.0132     CD =  0.06416   =>   CDf =  0.00495    CDp =  0.05920

 Side 1  free  transition at x/c =  0.0094   21
 Side 2 forced transition at x/c =  1.0000   68

   4   rms: 0.9868E-04   max: 0.3018E-03   T at   21  1
       a = 14.750      CL =  1.2731
      Cm = -0.0132     CD =  0.06416   =>   CDf =  0.00496    CDp =  0.05920
 plradd ia,ip,cpol           49           0 -3.90064197E-05

 Point added to stored polar  1
 Point written to save file  k3311_Re500k.base.pol                           
 Dump file unspecified or not available
 Calculating wake trajectory ...
 Calculating source influence matrix ...

 Solving BL system ...

 Side 1  free  transition at x/c =  0.0094   21
 Side 2 forced transition at x/c =  1.0000   68

   1   rms: 0.3388E-01   max: 0.1053E+00   D at   59  1   RLX: 0.566
       a = 15.000      CL =  1.2735
      Cm = -0.0134     CD =  0.06640   =>   CDf =  0.00496    CDp =  0.06144

 Side 1  free  transition at x/c =  0.0094   21
 Side 2 forced transition at x/c =  1.0000   68

   2   rms: 0.1616E-01   max: 0.5348E-01   D at   63  1
       a = 15.000      CL =  1.2712
      Cm = -0.0135     CD =  0.06811   =>   CDf =  0.00486    CDp =  0.06324

 Side 1  free  transition at x/c =  0.0094   21
 Side 2 forced transition at x/c =  1.0000   68

   3   rms: 0.2577E-02   max: 0.1132E-01   D at   83  2
       a = 15.000      CL =  1.2693
      Cm = -0.0134     CD =  0.06793   =>   CDf =  0.00479    CDp =  0.06314

 Side 1  free  transition at x/c =  0.0094   21
 Side 2 forced transition at x/c =  1.0000   68

   4   rms: 0.1023E-03   max: 0.9043E-03   D at   83  2
       a = 15.000      CL =  1.2692
      Cm = -0.0134     CD =  0.06789   =>   CDf =  0.00479    CDp =  0.06309

 Side 1  free  transition at x/c =  0.0094   21
 Side 2 forced transition at x/c =  1.0000   68

   5   rms: 0.1321E-05   max: -.5427E-05   D at   85  2
       a = 15.000      CL =  1.2692
      Cm = -0.0134     CD =  0.06789   =>   CDf =  0.00479    CDp =  0.06309
 plradd ia,ip,cpol           50           0 -3.90064197E-05

 Point added to stored polar  1
 Point written to save file  k3311_Re500k.base.pol                           
 Dump file unspecified or not available
 Calculating wake trajectory ...
 Calculating source influence matrix ...

 Solving BL system ...

 Side 1  free  transition at x/c =  0.0094   21
 Side 2 forced transition at x/c =  1.0000   68

   1   rms: 0.3366E-01   max: 0.1614E+00   T at   21  1   RLX: 0.544
       a = 15.250      CL =  1.2679
      Cm = -0.0142     CD =  0.07018   =>   CDf =  0.00480    CDp =  0.06538

 Side 1  free  transition at x/c =  0.0093   21
 Side 2 forced transition at x/c =  1.0000   68

   2   rms: 0.1493E-01   max: 0.6676E-01   T at   21  1
       a = 15.250      CL =  1.2657
      Cm = -0.0147     CD =  0.07186   =>   CDf =  0.00471    CDp =  0.06715

 Side 1  free  transition at x/c =  0.0092   21
 Side 2 forced transition at x/c =  1.0000   68

   3   rms: 0.1519E-02   max: 0.9502E-02   D at   84  2
       a = 15.250      CL =  1.2646
      Cm = -0.0146     CD =  0.07157   =>   CDf =  0.00464    CDp =  0.06694

 Side 1  free  transition at x/c =  0.0092   21
 Side 2 forced transition at x/c =  1.0000   68

   4   rms: 0.6458E-04   max: -.2483E-03   D at   85  2
       a = 15.250      CL =  1.2646
      Cm = -0.0146     CD =  0.07157   =>   CDf =  0.00464    CDp =  0.06693
 plradd ia,ip,cpol           51           0 -3.90064197E-05

 Point added to stored polar  1
 Point written to save file  k3311_Re500k.base.pol                           
 Dump file unspecified or not available
 Calculating wake trajectory ...
 Calculating source influence matrix ...

 Solving BL system ...

 Side 1  free  transition at x/c =  0.0092   21
 Side 2 forced transition at x/c =  1.0000   68

   1   rms: 0.3827E-01   max: 0.1270E+00   D at   57  1   RLX: 0.525
       a = 15.500      CL =  1.2629
      Cm = -0.0150     CD =  0.07426   =>   CDf =  0.00464    CDp =  0.06961

 Side 1  free  transition at x/c =  0.0092   21
 Side 2 forced transition at x/c =  1.0000   68

   2   rms: 0.2101E-01   max: 0.7240E-01   D at   61  1
       a = 15.500      CL =  1.2580
      Cm = -0.0155     CD =  0.07677   =>   CDf =  0.00454    CDp =  0.07223

 Side 1  free  transition at x/c =  0.0092   21
 Side 2 forced transition at x/c =  1.0000   68

   3   rms: 0.3739E-02   max: 0.1751E-01   D at   84  2
       a = 15.500      CL =  1.2553
      Cm = -0.0154     CD =  0.07650   =>   CDf =  0.00444    CDp =  0.07207

 Side 1  free  transition at x/c =  0.0092   21
 Side 2 forced transition at x/c =  1.0000   68

   4   rms: 0.1743E-03   max: 0.1860E-02   D at   84  2
       a = 15.500      CL =  1.2552
      Cm = -0.0154     CD =  0.07642   =>   CDf =  0.00444    CDp =  0.07198

 Side 1  free  transition at x/c =  0.0092   21
 Side 2 forced transition at x/c =  1.0000   68

   5   rms: 0.6479E-05   max: -.2040E-04   D at   86  2
       a = 15.500      CL =  1.2552
      Cm = -0.0154     CD =  0.07642   =>   CDf =  0.00444    CDp =  0.07198
 plradd ia,ip,cpol           52           0 -3.90064197E-05

 Point added to stored polar  1
 Point written to save file  k3311_Re500k.base.pol                           
 Dump file unspecified or not available
 Calculating wake trajectory ...
 Calculating source influence matrix ...

 Solving BL system ...

 Side 1  free  transition at x/c =  0.0092   21
 Side 2 forced transition at x/c =  1.0000   68

   1   rms: 0.3323E-01   max: 0.1234E+00   D at   57  1   RLX: 0.505
       a = 15.750      CL =  1.2534
      Cm = -0.0164     CD =  0.07901   =>   CDf =  0.00444    CDp =  0.07457

 Side 1  free  transition at x/c =  0.0091   21
 Side 2 forced transition at x/c =  1.0000   68

   2   rms: 0.1689E-01   max: 0.6495E-01   D at   59  1
       a = 15.750      CL =  1.2502
      Cm = -0.0172     CD =  0.08127   =>   CDf =  0.00436    CDp =  0.07691

 Side 1  free  transition at x/c =  0.0090   21
 Side 2 forced transition at x/c =  1.0000   68

   3   rms: 0.2585E-02   max: 0.1740E-01   D at   84  2
       a = 15.750      CL =  1.2483
      Cm = -0.0171     CD =  0.08087   =>   CDf =  0.00428    CDp =  0.07659

 Side 1  free  transition at x/c =  0.0090   21
 Side 2 forced transition at x/c =  1.0000   68

   4   rms: 0.8152E-04   max: 0.8718E-03   D at   84  2
       a = 15.750      CL =  1.2483
      Cm = -0.0170     CD =  0.08082   =>   CDf =  0.00428    CDp =  0.07654
 plradd ia,ip,cpol           53           0 -3.90064197E-05

 Point added to stored polar  1
 Point written to save file  k3311_Re500k.base.pol                           
 Dump file unspecified or not available
 Calculating wake trajectory ...
 Calculating source influence matrix ...

 Solving BL system ...

 Side 1  free  transition at x/c =  0.0090   21
 Side 2 forced transition at x/c =  1.0000   68

   1   rms: 0.3480E-01   max: 0.1313E+00   D at   55  1   RLX: 0.487
       a = 16.000      CL =  1.2460
      Cm = -0.0179     CD =  0.08363   =>   CDf =  0.00428    CDp =  0.07934

 Side 1  free  transition at x/c =  0.0090   21
 Side 2 forced transition at x/c =  1.0000   68

   2   rms: 0.2026E-01   max: 0.8150E-01   D at   58  1
       a = 16.000      CL =  1.2409
      Cm = -0.0189     CD =  0.08651   =>   CDf =  0.00420    CDp =  0.08231

 Side 1  free  transition at x/c =  0.0090   21
 Side 2 forced transition at x/c =  1.0000   68

   3   rms: 0.3302E-02   max: 0.1579E-01   D at   85  2
       a = 16.000      CL =  1.2386
      Cm = -0.0188     CD =  0.08602   =>   CDf =  0.00411    CDp =  0.08191

 Side 1  free  transition at x/c =  0.0090   21
 Side 2 forced transition at x/c =  1.0000   68

   4   rms: 0.1396E-03   max: 0.1277E-02   D at   85  2
       a = 16.000      CL =  1.2386
      Cm = -0.0188     CD =  0.08593   =>   CDf =  0.00411    CDp =  0.08182

 Side 1  free  transition at x/c =  0.0090   21
 Side 2 forced transition at x/c =  1.0000   68

   5   rms: 0.6637E-05   max: -.3878E-04   D at   86  2
       a = 16.000      CL =  1.2386
      Cm = -0.0188     CD =  0.08593   =>   CDf =  0.00411    CDp =  0.08182
 plradd ia,ip,cpol           54           0 -3.90064197E-05

 Point added to stored polar  1
 Point written to save file  k3311_Re500k.base.pol                           
 Dump file unspecified or not available

.OPERva   c>  
 Polar accumulation disabled

.OPERv   c>  
 XFOIL   c>  
 XFOIL   c>  