  
       XFOIL         Version 6.99
  
 Calculated polar for: K3311  (original)                               
  
 1 1 Reynolds number fixed          Mach number fixed         
  
 xtrf =   1.000 (top)        1.000 (bottom)  
 Mach =   0.000     Re =     0.600 e 6     Ncrit =   9.000
  
   alpha    CL        CD       CDp       CM     Top_Xtr  Bot_Xtr
  ------ -------- --------- --------- -------- -------- --------
-4.000  -0.0344   0.01187   0.00583  -0.0849   0.8216   0.0341
-3.500   0.0155   0.01080   0.00456  -0.0835   0.7955   0.0344
-3.000   0.0658   0.01007   0.00363  -0.0822   0.7724   0.0348
-2.500   0.1172   0.00954   0.00294  -0.0812   0.7515   0.0352
-2.000   0.1696   0.00917   0.00244  -0.0804   0.7318   0.0361
-1.500   0.2220   0.00887   0.00198  -0.0795   0.7107   0.0372
-1.000   0.2749   0.00868   0.00166  -0.0787   0.6885   0.0429
-0.500   0.3233   0.00777   0.00149  -0.0777   0.6711   0.3086
0.000   0.3703   0.00707   0.00157  -0.0762   0.6548   0.5892
0.500   0.4187   0.00678   0.00166  -0.0745   0.6382   0.7268
1.000   0.5029   0.00629   0.00177  -0.0803   0.6190   0.9628
1.500   0.5792   0.00643   0.00177  -0.0850   0.5947   1.0000
2.000   0.6284   0.00660   0.00182  -0.0836   0.5716   1.0000
2.500   0.6777   0.00685   0.00195  -0.0823   0.5526   1.0000
3.000   0.7274   0.00710   0.00213  -0.0810   0.5353   1.0000
3.500   0.7774   0.00734   0.00232  -0.0799   0.5151   1.0000
4.000   0.8273   0.00761   0.00255  -0.0787   0.4955   1.0000
4.500   0.8768   0.00792   0.00281  -0.0775   0.4755   1.0000
5.000   0.9267   0.00821   0.00310  -0.0764   0.4522   1.0000
5.500   0.9755   0.00855   0.00342  -0.0751   0.4235   1.0000
6.000   1.0221   0.00904   0.00379  -0.0735   0.3804   1.0000
6.500   1.0634   0.00989   0.00437  -0.0711   0.3175   1.0000
7.000   1.1035   0.01086   0.00506  -0.0686   0.2541   1.0000
7.500   1.1381   0.01221   0.00601  -0.0653   0.1746   1.0000
8.000   1.1621   0.01422   0.00745  -0.0605   0.0800   1.0000
8.500   1.1798   0.01645   0.00930  -0.0545   0.0213   1.0000
9.000   1.2061   0.01774   0.01069  -0.0497   0.0169   1.0000
9.500   1.2258   0.01927   0.01236  -0.0441   0.0147   1.0000
10.000   1.2357   0.02148   0.01476  -0.0378   0.0134   1.0000
10.250   1.2445   0.02244   0.01580  -0.0355   0.0130   1.0000
10.500   1.2524   0.02350   0.01694  -0.0332   0.0125   1.0000
10.750   1.2608   0.02458   0.01809  -0.0313   0.0119   1.0000
11.000   1.2659   0.02595   0.01956  -0.0291   0.0115   1.0000
11.250   1.2716   0.02736   0.02102  -0.0273   0.0109   1.0000
11.500   1.2744   0.02907   0.02281  -0.0255   0.0106   1.0000
11.750   1.2768   0.03093   0.02476  -0.0238   0.0105   1.0000
12.000   1.2748   0.03328   0.02720  -0.0221   0.0102   1.0000
12.250   1.2709   0.03594   0.02997  -0.0205   0.0099   1.0000
12.500   1.2642   0.03907   0.03321  -0.0186   0.0097   1.0000
12.750   1.2725   0.04072   0.03496  -0.0181   0.0095   1.0000
13.000   1.2762   0.04290   0.03725  -0.0172   0.0094   1.0000
13.250   1.2811   0.04501   0.03946  -0.0167   0.0091   1.0000
13.500   1.2832   0.04747   0.04204  -0.0159   0.0090   1.0000
13.750   1.2854   0.04998   0.04466  -0.0152   0.0090   1.0000
14.000   1.2877   0.05250   0.04730  -0.0150   0.0087   1.0000
14.250   1.2883   0.05531   0.05023  -0.0146   0.0085   1.0000
14.500   1.2891   0.05813   0.05316  -0.0146   0.0083   1.0000
14.750   1.2898   0.06100   0.05613  -0.0151   0.0080   1.0000
15.000   1.2882   0.06434   0.05960  -0.0152   0.0080   1.0000
15.250   1.2873   0.06761   0.06296  -0.0160   0.0078   1.0000
15.500   1.2827   0.07153   0.06702  -0.0164   0.0077   1.0000
15.750   1.2797   0.07530   0.07089  -0.0176   0.0076   1.0000
16.000   1.2741   0.07961   0.07534  -0.0187   0.0075   1.0000
