
 ===================================================
  XFOIL Version 6.99
  Copyright (C) 2000   Mark Drela, Harold Youngren

  This software comes with ABSOLUTELY NO WARRANTY,
    subject to the GNU General Public License.

  Caveat computor
 ===================================================

 File  xfoil.def  not found

   QUIT    Exit program

  .OPER    Direct operating point(s)
  .MDES    Complex mapping design routine
  .QDES    Surface speed design routine
  .GDES    Geometry design routine

   SAVE f  Write airfoil to labeled coordinate file
   PSAV f  Write airfoil to plain coordinate file
   ISAV f  Write airfoil to ISES coordinate file
   MSAV f  Write airfoil to MSES coordinate file
   REVE    Reverse written-airfoil node ordering

   LOAD f  Read buffer airfoil from coordinate file
   NACA i  Set NACA 4,5-digit airfoil and buffer airfoil
   INTE    Set buffer airfoil by interpolating two airfoils
   NORM    Buffer airfoil normalization toggle
   XYCM rr Change CM reference location, currently  0.25000 0.00000

   BEND    Display structural properties of current airfoil

   PCOP    Set current-airfoil panel nodes directly from buffer airfoil points
   PANE    Set current-airfoil panel nodes ( 160 ) based on curvature
  .PPAR    Show/change paneling

  .PLOP    Plotting options

   WDEF f  Write  current-settings file
   RDEF f  Reread current-settings file
   NAME s  Specify new airfoil name
   NINC    Increment name version number

   Z       Zoom    | (available in all menus)
   U       Unzoom  | 

 XFOIL   c>  
 Labeled airfoil file.  Name:  KC-135 BL351.6 AIRFOIL                          

 Number of input coordinate points:  51
 Counterclockwise ordering
 Max thickness =     0.089919  at x =   0.400
 Max camber    =     0.018185  at x =   0.350

  LE  x,y  =  -0.00002   0.00268  |   Chord =   1.00002
  TE  x,y  =   1.00000   0.00000  |

 Current airfoil nodes set from buffer airfoil nodes (  51 )

 WARNING: Poor input coordinate distribution
          Excessive panel angle   68.9  at i =  26
          Repaneling with PANE and/or PPAR suggested
           (doing GDES,CADD before repaneling _may_
            improve excessively coarse LE spacing

 XFOIL   c>  
 XFOIL   c>  
 Sharp trailing edge

 Paneling parameters used...
   Number of panel nodes       160
   Panel bunching parameter    1.000
   TE/LE panel density ratio   0.150
   Refined-area/LE panel density ratio    0.200
   Top    side refined area x/c limits  1.000 1.000
   Bottom side refined area x/c limits  1.000 1.000

 XFOIL   c>  
.OPERi   c>  
 Xtr/c     =  1.0000    top    side
 Xtr/c     =  1.0000    bottom side
 Ncrit     =    9.00   ( 0.070 % turb. level )
 Vacc      =  0.0100

 Klag  =  5.6000     Uxwt  =    1.00
 A     =  6.7000     B     =  0.7500       KCt = 0.01485
 CtiniK=  1.8000     CtiniX=  3.3000

..VPAR   c>  
..VPAR   c>  
.OPERi   c>  
 M  =    0.0000
 Re =    500000

.OPERv   c>  
.OPERv   c>  
.OPERv   c>  
 Polar  1 newly created for accumulation
 Airfoil archived with polar: KC-135 BL351.6 AIRFOIL                          

Enter  polar save filename  OR  <return> for no file   s>  
 New polar save file available

Enter  polar dump filename  OR  <return> for no file   s>  
 Polar dump file will NOT be written

 Polar accumulation enabled

.OPERva   c>   Calculating unit vorticity distributions ...
 Calculating wake trajectory ...
 Calculating source influence matrix ...

 Solving BL system ...

 Initializing BL ...
    side            1  ...
 MRCHUE: Inverse mode at  54     Hk =   4.051
 MRCHUE: Inverse mode at  55     Hk =   4.604
 MRCHUE: Inverse mode at  56     Hk =   5.146
 MRCHUE: Inverse mode at  57     Hk =   5.681
 MRCHUE: Inverse mode at  58     Hk =   6.209
 MRCHUE: Inverse mode at  59     Hk =   6.731
 MRCHUE: Inverse mode at  60     Hk =   7.249
 MRCHUE: Inverse mode at  61     Hk =   7.763
 MRCHUE: Inverse mode at  62     Hk =   8.275
 MRCHUE: Inverse mode at  63     Hk =   8.785
 MRCHUE: Inverse mode at  64     Hk =   8.642
 MRCHUE: Inverse mode at  65     Hk =   6.374
 MRCHUE: Inverse mode at  66     Hk =   4.976
 MRCHUE: Inverse mode at  67     Hk =   3.957
 MRCHUE: Inverse mode at  68     Hk =   3.156
    side            2  ...
 MRCHUE: Inverse mode at  12     Hk =   4.198
 MRCHUE: Convergence failed at  13  side 2    Res =  0.3855E+01
 MRCHUE: Convergence failed at  14  side 2    Res =  0.2611E+01
 MRCHUE: Inverse mode at  15     Hk =   7.341
 MRCHUE: Inverse mode at  16     Hk =   2.500
 MRCHUE: Inverse mode at  85     Hk =   2.500

 MRCHDU: Convergence failed at  13  side 2    Res =  0.2309E+01
 MRCHDU: Convergence failed at  14  side 2    Res =  0.8541E+01
 MRCHDU: Convergence failed at  15  side 2    Res =  0.4667E+01
 MRCHDU: Convergence failed at  16  side 2    Res =  0.1084E+02
 MRCHDU: Convergence failed at  17  side 2    Res =  0.2118E+02
 MRCHDU: Convergence failed at  18  side 2    Res =  0.5423E+02
 MRCHDU: Convergence failed at  19  side 2    Res =  0.1696E+02
 MRCHDU: Convergence failed at  20  side 2    Res =  0.9119E+01
 MRCHDU: Convergence failed at  21  side 2    Res =  0.8876E+01
 MRCHDU: Convergence failed at  22  side 2    Res =  0.9412E+01
 MRCHDU: Convergence failed at  23  side 2    Res =  0.1025E+02
 MRCHDU: Convergence failed at  24  side 2    Res =  0.1055E+02
 MRCHDU: Convergence failed at  25  side 2    Res =  0.1131E+02
 MRCHDU: Convergence failed at  26  side 2    Res =  0.1216E+02
 MRCHDU: Convergence failed at  27  side 2    Res =  0.1356E+02
 MRCHDU: Convergence failed at  28  side 2    Res =  0.1422E+02
 MRCHDU: Convergence failed at  29  side 2    Res =  0.1464E+02
 MRCHDU: Convergence failed at  30  side 2    Res =  0.1505E+02
 MRCHDU: Convergence failed at  31  side 2    Res =  0.1707E+02
 MRCHDU: Convergence failed at  32  side 2    Res =  0.1803E+02
 MRCHDU: Convergence failed at  33  side 2    Res =  0.1916E+02
 MRCHDU: Convergence failed at  34  side 2    Res =  0.2030E+02
 MRCHDU: Convergence failed at  35  side 2    Res =  0.2364E+02
 MRCHDU: Convergence failed at  36  side 2    Res =  0.2446E+02
 MRCHDU: Convergence failed at  37  side 2    Res =  0.2524E+02
 MRCHDU: Convergence failed at  38  side 2    Res =  0.3413E+02
 MRCHDU: Convergence failed at  39  side 2    Res =  0.3609E+02
 MRCHDU: Convergence failed at  40  side 2    Res =  0.3832E+02
 MRCHDU: Convergence failed at  41  side 2    Res =  0.4060E+02
 MRCHDU: Convergence failed at  42  side 2    Res =  0.4308E+02
 MRCHDU: Convergence failed at  43  side 2    Res =  0.4533E+02
 MRCHDU: Convergence failed at  44  side 2    Res =  0.4825E+02
 MRCHDU: Convergence failed at  45  side 2    Res =  0.5169E+02
 MRCHDU: Convergence failed at  46  side 2    Res =  0.5617E+02
 MRCHDU: Convergence failed at  47  side 2    Res =  0.6146E+02
 MRCHDU: Convergence failed at  48  side 2    Res =  0.6883E+02
 MRCHDU: Convergence failed at  49  side 2    Res =  0.1836E+02
 MRCHDU: Convergence failed at  50  side 2    Res =  0.7213E+02
 MRCHDU: Convergence failed at  51  side 2    Res =  0.1635E+02
 MRCHDU: Convergence failed at  52  side 2    Res =  0.6734E+03
 MRCHDU: Convergence failed at  53  side 2    Res =  0.1931E+03
 MRCHDU: Convergence failed at  54  side 2    Res =  0.1161E+03
 MRCHDU: Convergence failed at  55  side 2    Res =  0.3210E+02
 MRCHDU: Convergence failed at  56  side 2    Res =  0.3485E+02
 MRCHDU: Convergence failed at  57  side 2    Res =  0.3771E+02
 MRCHDU: Convergence failed at  58  side 2    Res =  0.4063E+02
 MRCHDU: Convergence failed at  59  side 2    Res =  0.4380E+02
 MRCHDU: Convergence failed at  60  side 2    Res =  0.4739E+02
 MRCHDU: Convergence failed at  61  side 2    Res =  0.5157E+02
 MRCHDU: Convergence failed at  62  side 2    Res =  0.5618E+02
 MRCHDU: Convergence failed at  63  side 2    Res =  0.6161E+02
 MRCHDU: Convergence failed at  64  side 2    Res =  0.6756E+02
 MRCHDU: Convergence failed at  65  side 2    Res =  0.7508E+02
 MRCHDU: Convergence failed at  66  side 2    Res =  0.8322E+02
 MRCHDU: Convergence failed at  67  side 2    Res =  0.9427E+02
 MRCHDU: Convergence failed at  68  side 2    Res =  0.1079E+03
 MRCHDU: Convergence failed at  69  side 2    Res =  0.1263E+03
 MRCHDU: Convergence failed at  70  side 2    Res =  0.1564E+03
 MRCHDU: Convergence failed at  71  side 2    Res =  0.2095E+03
 MRCHDU: Convergence failed at  72  side 2    Res =  0.7488E+03
 MRCHDU: Convergence failed at  73  side 2    Res =  0.4565E+04
 MRCHDU: Convergence failed at  74  side 2    Res =  0.1387E+04
 MRCHDU: Convergence failed at  75  side 2    Res =  0.1547E+02
 MRCHDU: Convergence failed at  76  side 2    Res =  0.1540E+04
 MRCHDU: Convergence failed at  77  side 2    Res =  0.1467E+02
 MRCHDU: Convergence failed at  78  side 2    Res =  0.8728E+04
 MRCHDU: Convergence failed at  79  side 2    Res =  0.2933E+03
 MRCHDU: Convergence failed at  80  side 2    Res =  0.2219E+04
 MRCHDU: Convergence failed at  81  side 2    Res =  0.1308E+04
 MRCHDU: Convergence failed at  82  side 2    Res =  0.3730E+02
 MRCHDU: Convergence failed at  83  side 2    Res =  0.2663E+02
 MRCHDU: Convergence failed at  84  side 2    Res =  0.2885E+02
 MRCHDU: Convergence failed at  85  side 2    Res =  0.1585E+02
 Side 1  free  transition at x/c =  0.8359   64
 Side 2  free  transition at x/c =  0.0309   16

   1   rms: 0.1587E+01   max: -.1391E+01   U at   85  2   RLX: 0.269
       a = -4.000      CL = -2.8141
      Cm =  0.6584     CD =  0.00450   =>   CDf =  0.00216    CDp =  0.00233

 Side 1  free  transition at x/c =  0.8530   66
 Side 2  free  transition at x/c =  0.0299   16

   2   rms: 0.2252E+01   max: 0.3054E+02   C at   16  2   RLX: 0.049
       a = -4.000      CL = -2.6201
      Cm =  0.6054     CD =  0.00580   =>   CDf =  0.01720    CDp = -0.01139

 Side 1  free  transition at x/c =  0.8542   66
 Side 2  free  transition at x/c =  0.0236   15

   3   rms: 0.1096E+01   max: -.9731E+00   U at   85  2   RLX: 0.209
       a = -4.000      CL = -2.0098
      Cm =  0.4390     CD =  0.00612   =>   CDf =  0.01616    CDp = -0.01004

 Side 1  free  transition at x/c =  0.8594   66
 Side 2  free  transition at x/c =  0.0228   15

   4   rms: 0.9176E+00   max: -.7668E+00   U at   85  2   RLX: 0.279
       a = -4.000      CL = -1.4283
      Cm =  0.2801     CD =  0.00692   =>   CDf =  0.01357    CDp = -0.00665

 Side 1  free  transition at x/c =  0.8668   66
 Side 2  free  transition at x/c =  0.0239   15

   5   rms: 0.7860E+00   max: 0.2482E+01   D at   17  2   RLX: 0.404
       a = -4.000      CL = -0.8769
      Cm =  0.1325     CD =  0.00902   =>   CDf =  0.01108    CDp = -0.00207

 MRCHDU: Convergence failed at  68  side 1    Res =  0.3246E+01
 Side 1  free  transition at x/c =  0.8852   68
 Side 2  free  transition at x/c =  0.0259   16

   6   rms: 0.3667E+00   max: -.3253E+00   U at   85  2   RLX: 0.714
       a = -4.000      CL = -0.3593
      Cm = -0.0036     CD =  0.01100   =>   CDf =  0.00870    CDp =  0.00230

 MRCHDU: Convergence failed at  17  side 2    Res =  0.1521E+03
 MRCHDU: Convergence failed at  18  side 2    Res =  0.3025E+03
 MRCHDU: Convergence failed at  19  side 2    Res =  0.1088E+03
 MRCHDU: Convergence failed at  20  side 2    Res =  0.2315E+03
 MRCHDU: Convergence failed at  21  side 2    Res =  0.7697E+02
 MRCHDU: Convergence failed at  22  side 2    Res =  0.1026E+03
 MRCHDU: Convergence failed at  23  side 2    Res =  0.9291E+02
 MRCHDU: Convergence failed at  24  side 2    Res =  0.2096E+03
 MRCHDU: Convergence failed at  25  side 2    Res =  0.6341E+03
 MRCHDU: Convergence failed at  26  side 2    Res =  0.5780E+02
 MRCHDU: Convergence failed at  27  side 2    Res =  0.6193E+02
 MRCHDU: Convergence failed at  28  side 2    Res =  0.6633E+02
 MRCHDU: Convergence failed at  29  side 2    Res =  0.7037E+02
 MRCHDU: Convergence failed at  30  side 2    Res =  0.7374E+02
 MRCHDU: Convergence failed at  31  side 2    Res =  0.7619E+02
 MRCHDU: Convergence failed at  32  side 2    Res =  0.7787E+02
 MRCHDU: Convergence failed at  33  side 2    Res =  0.7907E+02
 MRCHDU: Convergence failed at  34  side 2    Res =  0.8016E+02
 MRCHDU: Convergence failed at  35  side 2    Res =  0.8118E+02
 MRCHDU: Convergence failed at  36  side 2    Res =  0.8194E+02
 MRCHDU: Convergence failed at  37  side 2    Res =  0.8257E+02
 MRCHDU: Convergence failed at  38  side 2    Res =  0.8316E+02
 MRCHDU: Convergence failed at  39  side 2    Res =  0.8379E+02
 MRCHDU: Convergence failed at  40  side 2    Res =  0.8450E+02
 MRCHDU: Convergence failed at  41  side 2    Res =  0.8509E+02
 MRCHDU: Convergence failed at  42  side 2    Res =  0.8576E+02
 MRCHDU: Convergence failed at  43  side 2    Res =  0.8632E+02
 MRCHDU: Convergence failed at  44  side 2    Res =  0.8703E+02
 MRCHDU: Convergence failed at  45  side 2    Res =  0.8778E+02
 MRCHDU: Convergence failed at  46  side 2    Res =  0.8872E+02
 MRCHDU: Convergence failed at  47  side 2    Res =  0.8981E+02
 MRCHDU: Convergence failed at  48  side 2    Res =  0.9112E+02
 MRCHDU: Convergence failed at  49  side 2    Res =  0.7738E+02
 MRCHDU: Convergence failed at  50  side 2    Res =  0.7891E+02
 MRCHDU: Convergence failed at  51  side 2    Res =  0.1117E+03
 MRCHDU: Convergence failed at  52  side 2    Res =  0.7130E+02
 MRCHDU: Convergence failed at  53  side 2    Res =  0.6701E+02
 MRCHDU: Convergence failed at  54  side 2    Res =  0.1269E+03
 MRCHDU: Convergence failed at  55  side 2    Res =  0.1374E+03
 MRCHDU: Convergence failed at  56  side 2    Res =  0.1045E+04
 MRCHDU: Convergence failed at  57  side 2    Res =  0.1295E+04
 MRCHDU: Convergence failed at  58  side 2    Res =  0.1647E+04
 MRCHDU: Convergence failed at  59  side 2    Res =  0.2204E+04
 MRCHDU: Convergence failed at  60  side 2    Res =  0.7567E+02
 MRCHDU: Convergence failed at  61  side 2    Res =  0.6515E+02
 MRCHDU: Convergence failed at  62  side 2    Res =  0.1184E+03
 MRCHDU: Convergence failed at  63  side 2    Res =  0.1143E+03
 MRCHDU: Convergence failed at  64  side 2    Res =  0.1104E+03
 MRCHDU: Convergence failed at  65  side 2    Res =  0.1071E+03
 MRCHDU: Convergence failed at  66  side 2    Res =  0.1040E+03
 MRCHDU: Convergence failed at  67  side 2    Res =  0.6452E+02
 MRCHDU: Convergence failed at  68  side 2    Res =  0.6610E+02
 MRCHDU: Convergence failed at  69  side 2    Res =  0.6776E+02
 MRCHDU: Convergence failed at  70  side 2    Res =  0.6952E+02
 MRCHDU: Convergence failed at  71  side 2    Res =  0.8505E+02
 MRCHDU: Convergence failed at  72  side 2    Res =  0.6774E+02
 MRCHDU: Convergence failed at  73  side 2    Res =  0.6959E+02
 MRCHDU: Convergence failed at  74  side 2    Res =  0.7159E+02
 MRCHDU: Convergence failed at  75  side 2    Res =  0.7369E+02
 MRCHDU: Convergence failed at  76  side 2    Res =  0.7583E+02
 MRCHDU: Convergence failed at  77  side 2    Res =  0.7802E+02
 MRCHDU: Convergence failed at  78  side 2    Res =  0.1129E+03
 MRCHDU: Convergence failed at  79  side 2    Res =  0.8746E+02
 MRCHDU: Convergence failed at  80  side 2    Res =  0.9192E+02
 MRCHDU: Convergence failed at  81  side 2    Res =  0.1085E+03
 MRCHDU: Convergence failed at  82  side 2    Res =  0.1391E+03
 MRCHDU: Convergence failed at  83  side 2    Res =  0.1854E+03
 MRCHDU: Convergence failed at  84  side 2    Res =  0.3461E+03
 MRCHDU: Convergence failed at  85  side 2    Res =  0.4590E+03
 Side 1  free  transition at x/c =  0.9075   69
 Side 2  free  transition at x/c =  0.0370   16

   7   rms: 0.1584E+01   max: 0.1302E+02   D at   87  2   RLX: 0.115
       a = -4.000      CL = -1.8847
      Cm =  0.4531     CD =  0.00429   =>   CDf =  0.00179    CDp =  0.00250

 Side 1  free  transition at x/c =  0.9265   71
 Side 2  free  transition at x/c =  0.0367   16

   8   rms: 0.5019E+01   max: 0.5966E+02   T at   17  2   RLX: 0.025
       a = -4.000      CL = -1.4191
      Cm =  0.2988     CD =  0.05769   =>   CDf =  0.00220    CDp =  0.05549

 Side 1  free  transition at x/c =  0.9365   71
 Side 2  free  transition at x/c =  0.0384   17

   9   rms: 0.1897E+01   max: -.1655E+02   T at   71  1   RLX: 0.030
       a = -4.000      CL = -1.3972
      Cm =  0.2854     CD =  0.05877   =>   CDf =  0.00217    CDp =  0.05660

 MRCHDU: Convergence failed at  77  side 1    Res =  0.1781E+01
 Side 1  free  transition at x/c =  0.9838   75
 Side 2  free  transition at x/c =  0.0383   17

  10   rms: 0.7514E+01   max: -.1079E+03   C at   75  1   RLX: 0.005
       a = -4.000      CL = -1.4010
      Cm =  0.2833     CD =  0.06321   =>   CDf =  0.00213    CDp =  0.06107

 Side 1  free  transition at x/c =  0.9856   75
 Side 2  free  transition at x/c =  0.0381   17

  11   rms: 0.1139E+02   max: -.1793E+03   C at   75  1   RLX: 0.003
       a = -4.000      CL = -1.4050
      Cm =  0.2831     CD =  0.06442   =>   CDf =  0.00213    CDp =  0.06229

 Side 1  free  transition at x/c =  0.9838   75
 Side 2  free  transition at x/c =  0.0381   17

  12   rms: 0.2213E+01   max: -.2079E+02   T at   75  1   RLX: 0.024
       a = -4.000      CL = -1.3847
      Cm =  0.2727     CD =  0.06334   =>   CDf =  0.00213    CDp =  0.06122

 Side 1 forced transition at x/c =  1.0000   77
 Side 2  free  transition at x/c =  0.0379   17
 idif Ue xi dudx           1  0.31294858      4.16731834E-03   75.095917    
 Uenew xinew           2  6.77049682E-02  9.01579857E-04

  13   rms: 0.3597E+01   max: 0.1745E+02   T at   17  2   RLX: 0.057
       a = -4.000      CL = -1.3843
      Cm =  0.2500     CD =  0.06491   =>   CDf =  0.00204    CDp =  0.06287

 MRCHDU: Convergence failed at  18  side 2    Res =  0.9795E+01
 MRCHDU: Convergence failed at  19  side 2    Res =  0.1332E+02
 MRCHDU: Convergence failed at  20  side 2    Res =  0.7680E+02
 MRCHDU: Convergence failed at  21  side 2    Res =  0.3546E+02
 MRCHDU: Convergence failed at  22  side 2    Res =  0.3817E+03
 MRCHDU: Convergence failed at  23  side 2    Res =  0.1723E+02
 MRCHDU: Convergence failed at  24  side 2    Res =  0.4265E+02
 MRCHDU: Convergence failed at  25  side 2    Res =  0.2197E+03
 MRCHDU: Convergence failed at  26  side 2    Res =  0.3023E+02
 MRCHDU: Convergence failed at  27  side 2    Res =  0.2492E+02
 MRCHDU: Convergence failed at  28  side 2    Res =  0.4525E+02
 MRCHDU: Convergence failed at  29  side 2    Res =  0.2954E+03
 MRCHDU: Convergence failed at  30  side 2    Res =  0.6727E+02
 MRCHDU: Convergence failed at  31  side 2    Res =  0.2927E+02
 MRCHDU: Convergence failed at  32  side 2    Res =  0.2495E+02
 MRCHDU: Convergence failed at  33  side 2    Res =  0.3504E+02
 MRCHDU: Convergence failed at  34  side 2    Res =  0.5763E+02
 MRCHDU: Convergence failed at  35  side 2    Res =  0.1794E+03
 MRCHDU: Convergence failed at  36  side 2    Res =  0.1497E+03
 MRCHDU: Convergence failed at  37  side 2    Res =  0.4976E+02
 MRCHDU: Convergence failed at  38  side 2    Res =  0.2843E+02
 MRCHDU: Convergence failed at  39  side 2    Res =  0.2521E+02
 MRCHDU: Convergence failed at  40  side 2    Res =  0.3209E+02
 MRCHDU: Convergence failed at  41  side 2    Res =  0.4433E+02
 MRCHDU: Convergence failed at  42  side 2    Res =  0.7267E+02
 MRCHDU: Convergence failed at  43  side 2    Res =  0.2389E+03
 MRCHDU: Convergence failed at  44  side 2    Res =  0.1628E+03
 MRCHDU: Convergence failed at  45  side 2    Res =  0.5903E+02
 MRCHDU: Convergence failed at  46  side 2    Res =  0.3493E+02
 MRCHDU: Convergence failed at  47  side 2    Res =  0.2374E+02
 MRCHDU: Convergence failed at  48  side 2    Res =  0.2756E+02
 MRCHDU: Convergence failed at  49  side 2    Res =  0.3325E+02
 MRCHDU: Convergence failed at  50  side 2    Res =  0.4268E+02
 MRCHDU: Convergence failed at  51  side 2    Res =  0.6461E+02
 MRCHDU: Convergence failed at  52  side 2    Res =  0.1434E+03
 MRCHDU: Convergence failed at  53  side 2    Res =  0.4627E+03
 MRCHDU: Convergence failed at  54  side 2    Res =  0.9884E+02
 MRCHDU: Convergence failed at  55  side 2    Res =  0.5119E+02
 MRCHDU: Convergence failed at  56  side 2    Res =  0.3296E+02
 MRCHDU: Convergence failed at  57  side 2    Res =  0.2500E+02
 MRCHDU: Convergence failed at  58  side 2    Res =  0.2508E+02
 MRCHDU: Convergence failed at  59  side 2    Res =  0.2864E+02
 MRCHDU: Convergence failed at  60  side 2    Res =  0.3507E+02
 MRCHDU: Convergence failed at  61  side 2    Res =  0.4386E+02
 MRCHDU: Convergence failed at  62  side 2    Res =  0.6703E+02
 MRCHDU: Convergence failed at  63  side 2    Res =  0.1634E+03
 MRCHDU: Convergence failed at  64  side 2    Res =  0.6802E+03
 MRCHDU: Convergence failed at  65  side 2    Res =  0.9031E+02
 MRCHDU: Convergence failed at  66  side 2    Res =  0.4520E+02
 MRCHDU: Convergence failed at  67  side 2    Res =  0.3127E+02
 MRCHDU: Convergence failed at  68  side 2    Res =  0.2178E+02
 MRCHDU: Convergence failed at  69  side 2    Res =  0.2298E+02
 MRCHDU: Convergence failed at  70  side 2    Res =  0.2535E+02
 MRCHDU: Convergence failed at  71  side 2    Res =  0.2872E+02
 MRCHDU: Convergence failed at  72  side 2    Res =  0.3443E+02
 MRCHDU: Convergence failed at  73  side 2    Res =  0.4516E+02
 MRCHDU: Convergence failed at  74  side 2    Res =  0.7497E+02
 MRCHDU: Convergence failed at  75  side 2    Res =  0.4805E+03
 MRCHDU: Convergence failed at  76  side 2    Res =  0.9058E+02
 MRCHDU: Convergence failed at  77  side 2    Res =  0.4649E+02
 MRCHDU: Convergence failed at  78  side 2    Res =  0.2941E+02
 MRCHDU: Convergence failed at  79  side 2    Res =  0.1853E+02
 MRCHDU: Convergence failed at  80  side 2    Res =  0.2161E+02
 MRCHDU: Convergence failed at  81  side 2    Res =  0.1947E+02
 MRCHDU: Convergence failed at  82  side 2    Res =  0.3426E+02
 MRCHDU: Convergence failed at  83  side 2    Res =  0.1028E+03
 MRCHDU: Convergence failed at  84  side 2    Res =  0.3979E+02
 MRCHDU: Convergence failed at  85  side 2    Res =  0.5908E+02
 MRCHDU: Convergence failed at  86  side 2    Res =  0.4587E+02
 Side 1 forced transition at x/c =  1.0000   76
 Side 2  free  transition at x/c =  0.0376   17

  14   rms: 0.1572E+01   max: 0.6899E+01   D at   88  2   RLX: 0.217
       a = -4.000      CL = -2.5277
      Cm =  0.6000     CD =  0.00391   =>   CDf =  0.00166    CDp =  0.00225

 MRCHDU: Convergence failed at  88  side 2    Res =  0.7938E+01
 MRCHDU: Convergence failed at  89  side 2    Res =  0.5032E+01
 MRCHDU: Convergence failed at  90  side 2    Res =  0.2698E+02
 MRCHDU: Convergence failed at  91  side 2    Res =  0.3728E+01
 MRCHDU: Convergence failed at  92  side 2    Res =  0.4462E+01
 MRCHDU: Convergence failed at  93  side 2    Res =  0.1203E+02
 Side 1 forced transition at x/c =  1.0000   77
 Side 2  free  transition at x/c =  0.0492   17

  15   rms: 0.1288E+01   max: 0.5844E+01   D at   94  2   RLX: 0.112
       a = -4.000      CL = -1.9386
      Cm =  0.4163     CD =  0.08120   =>   CDf =  0.00222    CDp =  0.07898

 Side 1 forced transition at x/c =  1.0000   77
 Side 2  free  transition at x/c =  0.0420   17

  16   rms: 0.1076E+01   max: 0.3822E+01   C at   77  1   RLX: 0.154
       a = -4.000      CL = -1.6569
      Cm =  0.3398     CD =  0.08822   =>   CDf =  0.00248    CDp =  0.08574

 MRCHDU: Convergence failed at 101  side 2    Res =  0.1759E+01
 MRCHDU: Convergence failed at 102  side 2    Res =  0.1281E+01
 MRCHDU: Convergence failed at 103  side 2    Res =  0.1940E+01
 MRCHDU: Convergence failed at 104  side 2    Res =  0.6141E+01
 Side 1 forced transition at x/c =  1.0000   77
 Side 2  free  transition at x/c =  0.0376   16
 idif Ue xi dudx           1  0.26353464      3.34990025E-03   78.669395    
 Uenew xinew           2  6.62095472E-03  8.41617584E-05

  17   rms: 0.8592E+01   max: 0.3258E+02   T at   19  2   RLX: 0.046
       a = -4.000      CL = -1.5308
      Cm =  0.2999     CD =  0.34722   =>   CDf =  0.00259    CDp =  0.34463

 Side 1 forced transition at x/c =  1.0000   76
 Side 2  free  transition at x/c =  0.0400   18

  18   rms: 0.8315E+00   max: -.5285E+01   T at    2  2   RLX: 0.095
       a = -4.000      CL = -1.4067
      Cm =  0.2381     CD =  0.09575   =>   CDf =  0.00272    CDp =  0.09303

 Side 1 forced transition at x/c =  1.0000   77
 Side 2  free  transition at x/c =  0.0392   17

  19   rms: 0.7655E+00   max: 0.2461E+01   T at   17  2   RLX: 0.272
       a = -4.000      CL = -1.0429
      Cm =  0.1406     CD =  0.06637   =>   CDf =  0.00262    CDp =  0.06375

 MRCHDU: Convergence failed at  17  side 2    Res =  0.3382E+02
 MRCHDU: Convergence failed at  18  side 2    Res =  0.3183E+02
 MRCHDU: Convergence failed at  19  side 2    Res =  0.2591E+02
 MRCHDU: Convergence failed at  20  side 2    Res =  0.4549E+03
 MRCHDU: Convergence failed at  21  side 2    Res =  0.3996E+02
 MRCHDU: Convergence failed at  22  side 2    Res =  0.2681E+03
 MRCHDU: Convergence failed at  23  side 2    Res =  0.8447E+02
 MRCHDU: Convergence failed at  24  side 2    Res =  0.6149E+02
 MRCHDU: Convergence failed at  25  side 2    Res =  0.2313E+04
 MRCHDU: Convergence failed at  26  side 2    Res =  0.3708E+03
 MRCHDU: Convergence failed at  27  side 2    Res =  0.7481E+02
 MRCHDU: Convergence failed at  28  side 2    Res =  0.5493E+02
 MRCHDU: Convergence failed at  29  side 2    Res =  0.5337E+02
 MRCHDU: Convergence failed at  30  side 2    Res =  0.6809E+02
 MRCHDU: Convergence failed at  31  side 2    Res =  0.9585E+02
 MRCHDU: Convergence failed at  32  side 2    Res =  0.1586E+03
 MRCHDU: Convergence failed at  33  side 2    Res =  0.3668E+03
 MRCHDU: Convergence failed at  34  side 2    Res =  0.9205E+03
 MRCHDU: Convergence failed at  35  side 2    Res =  0.2230E+03
 MRCHDU: Convergence failed at  36  side 2    Res =  0.1159E+03
 MRCHDU: Convergence failed at  37  side 2    Res =  0.7468E+02
 MRCHDU: Convergence failed at  38  side 2    Res =  0.7948E+02
 MRCHDU: Convergence failed at  39  side 2    Res =  0.9718E+02
 MRCHDU: Convergence failed at  40  side 2    Res =  0.1184E+03
 MRCHDU: Convergence failed at  41  side 2    Res =  0.1619E+03
 MRCHDU: Convergence failed at  42  side 2    Res =  0.3097E+03
 MRCHDU: Convergence failed at  43  side 2    Res =  0.3161E+04
 MRCHDU: Convergence failed at  44  side 2    Res =  0.4008E+03
 MRCHDU: Convergence failed at  45  side 2    Res =  0.1628E+03
 MRCHDU: Convergence failed at  46  side 2    Res =  0.9575E+02
 MRCHDU: Convergence failed at  47  side 2    Res =  0.2364E+03
 MRCHDU: Convergence failed at  48  side 2    Res =  0.3058E+03
 MRCHDU: Convergence failed at  49  side 2    Res =  0.3929E+03
 MRCHDU: Convergence failed at  50  side 2    Res =  0.9704E+02
 MRCHDU: Convergence failed at  51  side 2    Res =  0.2097E+04
 MRCHDU: Convergence failed at  52  side 2    Res =  0.2815E+03
 MRCHDU: Convergence failed at  53  side 2    Res =  0.1470E+03
 MRCHDU: Convergence failed at  54  side 2    Res =  0.6313E+04
 MRCHDU: Convergence failed at  55  side 2    Res =  0.3545E+03
 MRCHDU: Convergence failed at  56  side 2    Res =  0.9312E+02
 MRCHDU: Convergence failed at  57  side 2    Res =  0.3048E+03
 MRCHDU: Convergence failed at  58  side 2    Res =  0.1111E+03
 MRCHDU: Convergence failed at  59  side 2    Res =  0.2811E+03
 MRCHDU: Convergence failed at  60  side 2    Res =  0.3047E+03
 MRCHDU: Convergence failed at  61  side 2    Res =  0.2383E+03
 MRCHDU: Convergence failed at  62  side 2    Res =  0.3081E+03
 MRCHDU: Convergence failed at  63  side 2    Res =  0.1108E+05
 MRCHDU: Convergence failed at  64  side 2    Res =  0.2630E+03
 MRCHDU: Convergence failed at  65  side 2    Res =  0.2854E+03
 MRCHDU: Convergence failed at  66  side 2    Res =  0.9753E+03
 MRCHDU: Convergence failed at  67  side 2    Res =  0.8553E+02
 MRCHDU: Convergence failed at  68  side 2    Res =  0.7112E+02
 MRCHDU: Convergence failed at  69  side 2    Res =  0.2581E+03
 MRCHDU: Convergence failed at  70  side 2    Res =  0.7151E+02
 MRCHDU: Convergence failed at  71  side 2    Res =  0.7193E+02
 MRCHDU: Convergence failed at  72  side 2    Res =  0.2041E+03
 MRCHDU: Convergence failed at  73  side 2    Res =  0.1950E+03
 MRCHDU: Convergence failed at  74  side 2    Res =  0.3670E+03
 MRCHDU: Convergence failed at  75  side 2    Res =  0.3081E+03
 MRCHDU: Convergence failed at  76  side 2    Res =  0.5292E+03
 MRCHDU: Convergence failed at  77  side 2    Res =  0.9511E+02
 MRCHDU: Convergence failed at  78  side 2    Res =  0.8092E+02
 MRCHDU: Convergence failed at  79  side 2    Res =  0.8314E+02
 MRCHDU: Convergence failed at  80  side 2    Res =  0.1221E+03
 MRCHDU: Convergence failed at  81  side 2    Res =  0.4586E+02
 MRCHDU: Convergence failed at  82  side 2    Res =  0.1085E+03
 MRCHDU: Convergence failed at  83  side 2    Res =  0.1042E+03
 MRCHDU: Convergence failed at  84  side 2    Res =  0.1027E+03
 MRCHDU: Convergence failed at  85  side 2    Res =  0.9906E+02
 MRCHDU: Convergence failed at  96  side 2    Res =  0.4115E+01
 MRCHDU: Convergence failed at  97  side 2    Res =  0.1459E+01
 MRCHDU: Convergence failed at  98  side 2    Res =  0.3558E+01
 MRCHDU: Convergence failed at  99  side 2    Res =  0.3273E+02
 Side 1 forced transition at x/c =  1.0000   77
 Side 2  free  transition at x/c =  0.0374   16

  20   rms: 0.1360E+01   max: 0.4845E+01   D at   94  2   RLX: 0.310
       a = -4.000      CL = -1.7387
      Cm =  0.3960     CD =  0.01315   =>   CDf =  0.00203    CDp =  0.01112

 MRCHDU: Convergence failed at  94  side 2    Res =  0.1011E+02
 MRCHDU: Convergence failed at  95  side 2    Res =  0.7936E+01
 Side 1 forced transition at x/c =  1.0000   77
 Side 2  free  transition at x/c =  0.0365   16

  21   rms: 0.9523E+00   max: -.3470E+01   C at  107  2   RLX: 0.144
       a = -4.000      CL = -1.2865
      Cm =  0.2614     CD =  0.10820   =>   CDf =  0.00258    CDp =  0.10563

 Side 1 forced transition at x/c =  1.0000   77
 Side 2  free  transition at x/c =  0.0348   16

  22   rms: 0.8677E+00   max: 0.3204E+01   T at   16  2   RLX: 0.173
       a = -4.000      CL = -1.1784
      Cm =  0.2237     CD =  0.12455   =>   CDf =  0.00273    CDp =  0.12182

 MRCHDU: Convergence failed at 103  side 2    Res =  0.3139E+01
 MRCHDU: Convergence failed at 104  side 2    Res =  0.1831E+01
 MRCHDU: Convergence failed at 105  side 2    Res =  0.2481E+02
 MRCHDU: Convergence failed at 106  side 2    Res =  0.2591E+01
 Side 1 forced transition at x/c =  1.0000   77
 Side 2  free  transition at x/c =  0.0295   16

  23   rms: 0.1448E+01   max: -.6097E+01   T at   16  2   RLX: 0.082
       a = -4.000      CL = -1.0027
      Cm =  0.1899     CD =  0.22542   =>   CDf =  0.00292    CDp =  0.22250

 Side 1 forced transition at x/c =  1.0000   77
 Side 2  free  transition at x/c =  0.0314   16

  24   rms: 0.7316E+00   max: -.3464E+01   T at   84  2   RLX: 0.144
       a = -4.000      CL = -0.8550
      Cm =  0.1554     CD =  0.25290   =>   CDf =  0.00287    CDp =  0.25003

 Side 1 forced transition at x/c =  1.0000   78
 Side 2  free  transition at x/c =  0.0318   15

  25   rms: 0.1225E+01   max: -.8168E+01   T at  106  2   RLX: 0.061
       a = -4.000      CL = -0.7854
      Cm =  0.1384     CD =  0.25461   =>   CDf =  0.00282    CDp =  0.25179

 Side 1 forced transition at x/c =  1.0000   78
 Side 2  free  transition at x/c =  0.0322   15
 idif Ue xi dudx           1  0.26719221      3.01921368E-03   88.497284    
 Uenew xinew           2  5.00899665E-02  5.66005707E-04

  26   rms: 0.4547E+01   max: 0.2671E+02   T at  106  2   RLX: 0.056
       a = -4.000      CL = -0.8821
      Cm =  0.1508     CD =  0.42895   =>   CDf =  0.00277    CDp =  0.42618

 MRCHDU: Convergence failed at 104  side 2    Res =  0.1824E+02
 MRCHDU: Convergence failed at 105  side 2    Res =  0.3639E+01
 MRCHDU: Convergence failed at 106  side 2    Res =  0.2055E+01
 MRCHDU: Convergence failed at 107  side 2    Res =  0.4016E+01
 Side 1 forced transition at x/c =  1.0000   77
 Side 2  free  transition at x/c =  0.0278   16

  27   rms: 0.5741E+00   max: 0.3178E+01   T at   16  2   RLX: 0.279
       a = -4.000      CL = -0.8093
      Cm =  0.1227     CD =  0.16729   =>   CDf =  0.00292    CDp =  0.16437

 MRCHDU: Convergence failed at  16  side 2    Res =  0.1766E-02
 MRCHDU: Convergence failed at  81  side 2    Res =  0.5202E-01
 MRCHDU: Convergence failed at  99  side 2    Res =  0.1267E+01
 MRCHDU: Convergence failed at 100  side 2    Res =  0.5158E+01
 MRCHDU: Convergence failed at 101  side 2    Res =  0.6841E+01
 MRCHDU: Convergence failed at 102  side 2    Res =  0.3846E+02
 MRCHDU: Convergence failed at 103  side 2    Res =  0.6003E+02
 MRCHDU: Convergence failed at 104  side 2    Res =  0.1522E+02
 MRCHDU: Convergence failed at 105  side 2    Res =  0.9758E+01
 MRCHDU: Convergence failed at 106  side 2    Res =  0.1263E+03
 MRCHDU: Convergence failed at 107  side 2    Res =  0.3390E+01
 Side 1 forced transition at x/c =  1.0000   77
 Side 2  free  transition at x/c =  0.0256   15

  28   rms: 0.6592E+01   max: -.4537E+02   C at   82  2   RLX: 0.011
       a = -4.000      CL = -0.8360
      Cm =  0.1395     CD =  0.67975   =>   CDf =  0.00306    CDp =  0.67669

 MRCHDU: Convergence failed at  16  side 2    Res =  0.1654E-02
 MRCHDU: Convergence failed at  81  side 2    Res =  0.1552E-01
 MRCHDU: Convergence failed at  82  side 2    Res =  0.1718E+00
 MRCHDU: Convergence failed at  83  side 2    Res =  0.1805E+00
 Side 1 forced transition at x/c =  1.0000   77
 Side 2  free  transition at x/c =  0.0256   15

  29   rms: 0.7571E+01   max: -.4104E+02   C at   84  2   RLX: 0.012
       a = -4.000      CL = -0.8330
      Cm =  0.1372     CD =  0.61274   =>   CDf =  0.00308    CDp =  0.60966

 MRCHDU: Convergence failed at  16  side 2    Res =  0.1571E-02
 Side 1 forced transition at x/c =  1.0000   77
 Side 2  free  transition at x/c =  0.0256   15

  30   rms: 0.9690E+01   max: 0.8095E+02   C at   79  2   RLX: 0.008
       a = -4.000      CL = -0.8280
      Cm =  0.1350     CD =  0.68132   =>   CDf =  0.00311    CDp =  0.67821

 MRCHDU: Convergence failed at  16  side 2    Res =  0.2012E-02
 Side 1 forced transition at x/c =  1.0000   77
 Side 2  free  transition at x/c =  0.0256   15

  31   rms: 0.1449E+02   max: 0.1266E+03   C at   78  2   RLX: 0.006
       a = -4.000      CL = -0.8452
      Cm =  0.1388     CD =  0.78825   =>   CDf =  0.00313    CDp =  0.78512

 Side 1 forced transition at x/c =  1.0000   77
 Side 2  free  transition at x/c =  0.0256   15

  32   rms: 0.2031E+02   max: -.1133E+03   C at   84  2   RLX: 0.004
       a = -4.000      CL = -0.8553
      Cm =  0.1406     CD =  0.57931   =>   CDf =  0.00316    CDp =  0.57615

 Side 1 forced transition at x/c =  1.0000   77
 Side 2  free  transition at x/c =  0.0256   15

  33   rms: 0.8439E+02   max: 0.4794E+03   C at   84  2   RLX: 0.003
       a = -4.000      CL = -0.8679
      Cm =  0.1440     CD =  0.57712   =>   CDf =  0.00319    CDp =  0.57393

 Side 1 forced transition at x/c =  1.0000   77
 Side 2  free  transition at x/c =  0.0255   15

  34   rms: 0.5358E+03   max: -.3326E+04   C at   84  2   RLX: 0.000
       a = -4.000      CL = -0.8891
      Cm =  0.1500     CD =  0.47550   =>   CDf =  0.00320    CDp =  0.47231

 Side 1 forced transition at x/c =  1.0000   77
 Side 2  free  transition at x/c =  0.0255   15

  35   rms: 0.2287E+03   max: 0.1450E+04   C at   84  2   RLX: 0.001
       a = -4.000      CL = -0.8877
      Cm =  0.1499     CD =  0.49332   =>   CDf =  0.00320    CDp =  0.49012

 Side 1 forced transition at x/c =  1.0000   77
 Side 2  free  transition at x/c =  0.0255   15

  36   rms: 0.6502E+02   max: -.4049E+03   C at   84  2   RLX: 0.001
       a = -4.000      CL = -0.8882
      Cm =  0.1496     CD =  0.47309   =>   CDf =  0.00319    CDp =  0.46990

 Side 1 forced transition at x/c =  1.0000   77
 Side 2  free  transition at x/c =  0.0255   15

  37   rms: 0.1716E+03   max: 0.1068E+04   C at   84  2   RLX: 0.001
       a = -4.000      CL = -0.8859
      Cm =  0.1496     CD =  0.50776   =>   CDf =  0.00321    CDp =  0.50455

 Side 1 forced transition at x/c =  1.0000   77
 Side 2  free  transition at x/c =  0.0255   15

  38   rms: 0.3018E+02   max: -.1870E+03   C at   84  2   RLX: 0.003
       a = -4.000      CL = -0.8862
      Cm =  0.1491     CD =  0.47350   =>   CDf =  0.00319    CDp =  0.47031

 Side 1 forced transition at x/c =  1.0000   77
 Side 2  free  transition at x/c =  0.0255   15

  39   rms: 0.5252E+02   max: 0.3184E+03   C at   84  2   RLX: 0.005
       a = -4.000      CL = -0.8810
      Cm =  0.1489     CD =  0.51870   =>   CDf =  0.00321    CDp =  0.51549

 Side 1 forced transition at x/c =  1.0000   77
 Side 2  free  transition at x/c =  0.0255   15

  40   rms: 0.2170E+02   max: 0.1254E+03   C at   84  2   RLX: 0.012
       a = -4.000      CL = -0.8656
      Cm =  0.1490     CD =  0.49284   =>   CDf =  0.00317    CDp =  0.48966

 MRCHDU: Convergence failed at 101  side 2    Res =  0.2674E+00
 MRCHDU: Convergence failed at 102  side 2    Res =  0.3913E+01
 MRCHDU: Convergence failed at 103  side 2    Res =  0.2004E+02
 MRCHDU: Convergence failed at 104  side 2    Res =  0.9745E+01
 MRCHDU: Convergence failed at 105  side 2    Res =  0.6317E+01
 MRCHDU: Convergence failed at 106  side 2    Res =  0.5225E+01
 MRCHDU: Convergence failed at 107  side 2    Res =  0.5106E+01
 Side 1 forced transition at x/c =  1.0000   77
 Side 2  free  transition at x/c =  0.0255   15

  41   rms: 0.1025E+04   max: -.6502E+04   C at   85  2   RLX: 0.000
       a = -4.000      CL = -0.8663
      Cm =  0.1491     CD =  0.46533   =>   CDf =  0.00306    CDp =  0.46227

 Side 1 forced transition at x/c =  1.0000   77
 Side 2  free  transition at x/c =  0.0255   15

  42   rms: 0.1802E+04   max: 0.1459E+05   C at   85  2   RLX: 0.000
       a = -4.000      CL = -0.8662
      Cm =  0.1491     CD =  0.46484   =>   CDf =  0.00306    CDp =  0.46178

 Side 1 forced transition at x/c =  1.0000   77
 Side 2  free  transition at x/c =  0.0255   15

  43   rms: 0.2709E+04   max: 0.1815E+05   C at   85  2   RLX: 0.000
       a = -4.000      CL = -0.8657
      Cm =  0.1490     CD =  0.46552   =>   CDf =  0.00306    CDp =  0.46245

 Side 1 forced transition at x/c =  1.0000   77
 Side 2  free  transition at x/c =  0.0255   15

  44   rms: 0.1652E+03   max: -.1158E+04   C at   79  2   RLX: 0.000
       a = -4.000      CL = -0.8650
      Cm =  0.1490     CD =  0.46289   =>   CDf =  0.00306    CDp =  0.45983

 Side 1 forced transition at x/c =  1.0000   77
 Side 2  free  transition at x/c =  0.0255   15

  45   rms: 0.2214E+03   max: -.1722E+04   C at   79  2   RLX: 0.000
       a = -4.000      CL = -0.8650
      Cm =  0.1488     CD =  0.46173   =>   CDf =  0.00306    CDp =  0.45867

 Side 1 forced transition at x/c =  1.0000   77
 Side 2  free  transition at x/c =  0.0255   15

  46   rms: 0.3792E+03   max: -.2450E+04   C at   79  2   RLX: 0.000
       a = -4.000      CL = -0.8651
      Cm =  0.1488     CD =  0.46109   =>   CDf =  0.00306    CDp =  0.45803

 Side 1 forced transition at x/c =  1.0000   77
 Side 2  free  transition at x/c =  0.0255   15

  47   rms: 0.8215E+03   max: -.4649E+04   C at   79  2   RLX: 0.000
       a = -4.000      CL = -0.8651
      Cm =  0.1487     CD =  0.46120   =>   CDf =  0.00306    CDp =  0.45814

 Side 1 forced transition at x/c =  1.0000   77
 Side 2  free  transition at x/c =  0.0255   15

  48   rms: 0.2373E+04   max: -.1372E+05   C at   84  2   RLX: 0.000
       a = -4.000      CL = -0.8651
      Cm =  0.1487     CD =  0.46145   =>   CDf =  0.00306    CDp =  0.45838

 Side 1 forced transition at x/c =  1.0000   77
 Side 2  free  transition at x/c =  0.0255   15

  49   rms: 0.3635E+05   max: -.2283E+06   C at   85  2   RLX: 0.000
       a = -4.000      CL = -0.8651
      Cm =  0.1487     CD =  0.46161   =>   CDf =  0.00306    CDp =  0.45855

 Side 1 forced transition at x/c =  1.0000   77
 Side 2  free  transition at x/c =  0.0255   15

  50   rms: 0.9738E+04   max: 0.6687E+05   C at   85  2   RLX: 0.000
       a = -4.000      CL = -0.8651
      Cm =  0.1487     CD =  0.46171   =>   CDf =  0.00306    CDp =  0.45864

 Side 1 forced transition at x/c =  1.0000   77
 Side 2  free  transition at x/c =  0.0255   15

  51   rms: 0.1712E+04   max: -.9857E+04   C at   84  2   RLX: 0.000
       a = -4.000      CL = -0.8651
      Cm =  0.1487     CD =  0.46158   =>   CDf =  0.00306    CDp =  0.45852

 Side 1 forced transition at x/c =  1.0000   77
 Side 2  free  transition at x/c =  0.0255   15

  52   rms: 0.1181E+05   max: -.7356E+05   C at   85  2   RLX: 0.000
       a = -4.000      CL = -0.8651
      Cm =  0.1487     CD =  0.46180   =>   CDf =  0.00306    CDp =  0.45874

 Side 1 forced transition at x/c =  1.0000   77
 Side 2  free  transition at x/c =  0.0255   15

  53   rms: 0.1530E+05   max: 0.1043E+06   C at   85  2   RLX: 0.000
       a = -4.000      CL = -0.8651
      Cm =  0.1487     CD =  0.46196   =>   CDf =  0.00306    CDp =  0.45890

 Side 1 forced transition at x/c =  1.0000   77
 Side 2  free  transition at x/c =  0.0255   15

  54   rms: 0.1223E+04   max: -.7036E+04   C at   84  2   RLX: 0.000
       a = -4.000      CL = -0.8651
      Cm =  0.1487     CD =  0.46172   =>   CDf =  0.00306    CDp =  0.45866

 Side 1 forced transition at x/c =  1.0000   77
 Side 2  free  transition at x/c =  0.0255   15

  55   rms: 0.5612E+04   max: -.3474E+05   C at   85  2   RLX: 0.000
       a = -4.000      CL = -0.8651
      Cm =  0.1486     CD =  0.46204   =>   CDf =  0.00306    CDp =  0.45898

 Side 1 forced transition at x/c =  1.0000   77
 Side 2  free  transition at x/c =  0.0255   15

  56   rms: 0.3701E+05   max: 0.2505E+06   C at   85  2   RLX: 0.000
       a = -4.000      CL = -0.8651
      Cm =  0.1487     CD =  0.46227   =>   CDf =  0.00306    CDp =  0.45920

 Side 1 forced transition at x/c =  1.0000   77
 Side 2  free  transition at x/c =  0.0255   15

  57   rms: 0.9563E+03   max: -.5470E+04   C at   79  2   RLX: 0.000
       a = -4.000      CL = -0.8651
      Cm =  0.1486     CD =  0.46198   =>   CDf =  0.00306    CDp =  0.45891

 Side 1 forced transition at x/c =  1.0000   77
 Side 2  free  transition at x/c =  0.0255   15

  58   rms: 0.3561E+04   max: -.2187E+05   C at   85  2   RLX: 0.000
       a = -4.000      CL = -0.8651
      Cm =  0.1486     CD =  0.46233   =>   CDf =  0.00306    CDp =  0.45927

 Side 1 forced transition at x/c =  1.0000   77
 Side 2  free  transition at x/c =  0.0255   15

  59   rms: 0.4028E+05   max: -.2705E+06   C at   85  2   RLX: 0.000
       a = -4.000      CL = -0.8651
      Cm =  0.1486     CD =  0.46242   =>   CDf =  0.00306    CDp =  0.45936

 Side 1 forced transition at x/c =  1.0000   77
 Side 2  free  transition at x/c =  0.0255   15

  60   rms: 0.1228E+05   max: 0.8909E+05   C at   85  2   RLX: 0.000
       a = -4.000      CL = -0.8651
      Cm =  0.1486     CD =  0.46243   =>   CDf =  0.00306    CDp =  0.45936

 Side 1 forced transition at x/c =  1.0000   77
 Side 2  free  transition at x/c =  0.0255   15

  61   rms: 0.2446E+04   max: -.1481E+05   C at   85  2   RLX: 0.000
       a = -4.000      CL = -0.8651
      Cm =  0.1486     CD =  0.46241   =>   CDf =  0.00306    CDp =  0.45935

 Side 1 forced transition at x/c =  1.0000   77
 Side 2  free  transition at x/c =  0.0255   15

  62   rms: 0.1340E+05   max: -.8885E+05   C at   85  2   RLX: 0.000
       a = -4.000      CL = -0.8651
      Cm =  0.1486     CD =  0.46254   =>   CDf =  0.00306    CDp =  0.45947

 Side 1 forced transition at x/c =  1.0000   77
 Side 2  free  transition at x/c =  0.0255   15

  63   rms: 0.1544E+05   max: 0.1110E+06   C at   85  2   RLX: 0.000
       a = -4.000      CL = -0.8651
      Cm =  0.1486     CD =  0.46258   =>   CDf =  0.00306    CDp =  0.45952

 Side 1 forced transition at x/c =  1.0000   77
 Side 2  free  transition at x/c =  0.0255   15

  64   rms: 0.1846E+04   max: -.1105E+05   C at   85  2   RLX: 0.000
       a = -4.000      CL = -0.8651
      Cm =  0.1486     CD =  0.46252   =>   CDf =  0.00306    CDp =  0.45946

 Side 1 forced transition at x/c =  1.0000   77
 Side 2  free  transition at x/c =  0.0255   15

  65   rms: 0.9213E+04   max: -.6057E+05   C at   85  2   RLX: 0.000
       a = -4.000      CL = -0.8651
      Cm =  0.1486     CD =  0.46270   =>   CDf =  0.00306    CDp =  0.45964

 Side 1 forced transition at x/c =  1.0000   77
 Side 2  free  transition at x/c =  0.0255   15

  66   rms: 0.2536E+05   max: 0.1807E+06   C at   85  2   RLX: 0.000
       a = -4.000      CL = -0.8651
      Cm =  0.1486     CD =  0.46278   =>   CDf =  0.00306    CDp =  0.45971

 Side 1 forced transition at x/c =  1.0000   77
 Side 2  free  transition at x/c =  0.0255   15

  67   rms: 0.1565E+04   max: -.9307E+04   C at   85  2   RLX: 0.000
       a = -4.000      CL = -0.8651
      Cm =  0.1486     CD =  0.46269   =>   CDf =  0.00306    CDp =  0.45963

 Side 1 forced transition at x/c =  1.0000   77
 Side 2  free  transition at x/c =  0.0255   15

  68   rms: 0.5577E+04   max: -.3620E+05   C at   85  2   RLX: 0.000
       a = -4.000      CL = -0.8651
      Cm =  0.1486     CD =  0.46285   =>   CDf =  0.00307    CDp =  0.45979

 Side 1 forced transition at x/c =  1.0000   77
 Side 2  free  transition at x/c =  0.0255   15

  69   rms: 0.5827E+05   max: 0.4116E+06   C at   85  2   RLX: 0.000
       a = -4.000      CL = -0.8651
      Cm =  0.1486     CD =  0.46298   =>   CDf =  0.00307    CDp =  0.45992

 Side 1 forced transition at x/c =  1.0000   77
 Side 2  free  transition at x/c =  0.0255   15

  70   rms: 0.1213E+04   max: -.7114E+04   C at   85  2   RLX: 0.000
       a = -4.000      CL = -0.8651
      Cm =  0.1486     CD =  0.46283   =>   CDf =  0.00307    CDp =  0.45976

 Side 1 forced transition at x/c =  1.0000   77
 Side 2  free  transition at x/c =  0.0255   15

  71   rms: 0.4393E+04   max: -.2826E+05   C at   85  2   RLX: 0.000
       a = -4.000      CL = -0.8651
      Cm =  0.1486     CD =  0.46304   =>   CDf =  0.00307    CDp =  0.45998

 Side 1 forced transition at x/c =  1.0000   77
 Side 2  free  transition at x/c =  0.0255   15

  72   rms: 0.1514E+06   max: -.1061E+07   C at   85  2   RLX: 0.000
       a = -4.000      CL = -0.8651
      Cm =  0.1486     CD =  0.46314   =>   CDf =  0.00307    CDp =  0.46007

 Side 1 forced transition at x/c =  1.0000   77
 Side 2  free  transition at x/c =  0.0255   15

  73   rms: 0.1249E+05   max: 0.9333E+05   C at   85  2   RLX: 0.000
       a = -4.000      CL = -0.8651
      Cm =  0.1486     CD =  0.46310   =>   CDf =  0.00307    CDp =  0.46004

 Side 1 forced transition at x/c =  1.0000   77
 Side 2  free  transition at x/c =  0.0255   15

  74   rms: 0.3261E+04   max: -.2065E+05   C at   85  2   RLX: 0.000
       a = -4.000      CL = -0.8651
      Cm =  0.1486     CD =  0.46313   =>   CDf =  0.00307    CDp =  0.46007

 Side 1 forced transition at x/c =  1.0000   77
 Side 2  free  transition at x/c =  0.0255   15

  75   rms: 0.2785E+05   max: -.1927E+06   C at   85  2   RLX: 0.000
       a = -4.000      CL = -0.8651
      Cm =  0.1486     CD =  0.46324   =>   CDf =  0.00307    CDp =  0.46017

 Side 1 forced transition at x/c =  1.0000   77
 Side 2  free  transition at x/c =  0.0255   15

  76   rms: 0.1714E+05   max: 0.1269E+06   C at   85  2   RLX: 0.000
       a = -4.000      CL = -0.8651
      Cm =  0.1486     CD =  0.46324   =>   CDf =  0.00307    CDp =  0.46017

 Side 1 forced transition at x/c =  1.0000   77
 Side 2  free  transition at x/c =  0.0255   15

  77   rms: 0.2556E+04   max: -.1597E+05   C at   85  2   RLX: 0.000
       a = -4.000      CL = -0.8651
      Cm =  0.1486     CD =  0.46321   =>   CDf =  0.00307    CDp =  0.46015

 Side 1 forced transition at x/c =  1.0000   77
 Side 2  free  transition at x/c =  0.0255   15

  78   rms: 0.1519E+05   max: -.1038E+06   C at   85  2   RLX: 0.000
       a = -4.000      CL = -0.8651
      Cm =  0.1485     CD =  0.46333   =>   CDf =  0.00307    CDp =  0.46027

 Side 1 forced transition at x/c =  1.0000   77
 Side 2  free  transition at x/c =  0.0255   15

  79   rms: 0.1972E+05   max: 0.1448E+06   C at   85  2   RLX: 0.000
       a = -4.000      CL = -0.8651
      Cm =  0.1486     CD =  0.46335   =>   CDf =  0.00307    CDp =  0.46029

 Side 1 forced transition at x/c =  1.0000   77
 Side 2  free  transition at x/c =  0.0255   15

  80   rms: 0.2225E+04   max: -.1378E+05   C at   85  2   RLX: 0.000
       a = -4.000      CL = -0.8651
      Cm =  0.1485     CD =  0.46334   =>   CDf =  0.00307    CDp =  0.46028

 Side 1 forced transition at x/c =  1.0000   77
 Side 2  free  transition at x/c =  0.0255   15

  81   rms: 0.7484E+04   max: -.5042E+05   C at   85  2   RLX: 0.000
       a = -4.000      CL = -0.8651
      Cm =  0.1485     CD =  0.46344   =>   CDf =  0.00307    CDp =  0.46038

 Side 1 forced transition at x/c =  1.0000   77
 Side 2  free  transition at x/c =  0.0255   15

  82   rms: 0.5299E+05   max: 0.3855E+06   C at   85  2   RLX: 0.000
       a = -4.000      CL = -0.8651
      Cm =  0.1486     CD =  0.46352   =>   CDf =  0.00307    CDp =  0.46045

 Side 1 forced transition at x/c =  1.0000   77
 Side 2  free  transition at x/c =  0.0255   15

  83   rms: 0.1597E+04   max: -.9738E+04   C at   85  2   RLX: 0.000
       a = -4.000      CL = -0.8651
      Cm =  0.1485     CD =  0.46344   =>   CDf =  0.00307    CDp =  0.46037

 Side 1 forced transition at x/c =  1.0000   77
 Side 2  free  transition at x/c =  0.0255   15

  84   rms: 0.4422E+04   max: -.2943E+05   C at   85  2   RLX: 0.000
       a = -4.000      CL = -0.8651
      Cm =  0.1485     CD =  0.46360   =>   CDf =  0.00307    CDp =  0.46054

 Side 1 forced transition at x/c =  1.0000   77
 Side 2  free  transition at x/c =  0.0255   15

  85   rms: 0.5179E+05   max: -.3735E+06   C at   85  2   RLX: 0.000
       a = -4.000      CL = -0.8651
      Cm =  0.1485     CD =  0.46370   =>   CDf =  0.00307    CDp =  0.46063

 Side 1 forced transition at x/c =  1.0000   77
 Side 2  free  transition at x/c =  0.0255   15

  86   rms: 0.1807E+05   max: 0.1373E+06   C at   85  2   RLX: 0.000
       a = -4.000      CL = -0.8651
      Cm =  0.1485     CD =  0.46366   =>   CDf =  0.00307    CDp =  0.46060

 Side 1 forced transition at x/c =  1.0000   77
 Side 2  free  transition at x/c =  0.0255   15

  87   rms: 0.3044E+04   max: -.1990E+05   C at   85  2   RLX: 0.000
       a = -4.000      CL = -0.8651
      Cm =  0.1485     CD =  0.46366   =>   CDf =  0.00307    CDp =  0.46060

 Side 1 forced transition at x/c =  1.0000   77
 Side 2  free  transition at x/c =  0.0255   15

  88   rms: 0.1764E+05   max: -.1257E+06   C at   85  2   RLX: 0.000
       a = -4.000      CL = -0.8651
      Cm =  0.1485     CD =  0.46377   =>   CDf =  0.00307    CDp =  0.46071

 Side 1 forced transition at x/c =  1.0000   77
 Side 2  free  transition at x/c =  0.0255   15

  89   rms: 0.2262E+05   max: 0.1707E+06   C at   85  2   RLX: 0.000
       a = -4.000      CL = -0.8651
      Cm =  0.1485     CD =  0.46376   =>   CDf =  0.00307    CDp =  0.46069

 Side 1 forced transition at x/c =  1.0000   77
 Side 2  free  transition at x/c =  0.0255   15

  90   rms: 0.2301E+04   max: -.1480E+05   C at   85  2   RLX: 0.000
       a = -4.000      CL = -0.8650
      Cm =  0.1485     CD =  0.46374   =>   CDf =  0.00307    CDp =  0.46067

 Side 1 forced transition at x/c =  1.0000   77
 Side 2  free  transition at x/c =  0.0255   15

  91   rms: 0.8733E+04   max: -.6141E+05   C at   85  2   RLX: 0.000
       a = -4.000      CL = -0.8650
      Cm =  0.1485     CD =  0.46387   =>   CDf =  0.00307    CDp =  0.46080

 Side 1 forced transition at x/c =  1.0000   77
 Side 2  free  transition at x/c =  0.0255   15

  92   rms: 0.4932E+05   max: 0.3692E+06   C at   85  2   RLX: 0.000
       a = -4.000      CL = -0.8651
      Cm =  0.1485     CD =  0.46389   =>   CDf =  0.00307    CDp =  0.46082

 Side 1 forced transition at x/c =  1.0000   77
 Side 2  free  transition at x/c =  0.0255   15

  93   rms: 0.1665E+04   max: -.1052E+05   C at   85  2   RLX: 0.000
       a = -4.000      CL = -0.8650
      Cm =  0.1485     CD =  0.46382   =>   CDf =  0.00307    CDp =  0.46075

 Side 1 forced transition at x/c =  1.0000   77
 Side 2  free  transition at x/c =  0.0255   15

  94   rms: 0.5348E+04   max: -.3710E+05   C at   85  2   RLX: 0.000
       a = -4.000      CL = -0.8650
      Cm =  0.1485     CD =  0.46399   =>   CDf =  0.00307    CDp =  0.46093

 Side 1 forced transition at x/c =  1.0000   77
 Side 2  free  transition at x/c =  0.0255   15

  95   rms: 0.1424E+06   max: -.1057E+07   C at   85  2   RLX: 0.000
       a = -4.000      CL = -0.8650
      Cm =  0.1485     CD =  0.46407   =>   CDf =  0.00307    CDp =  0.46100

 Side 1 forced transition at x/c =  1.0000   77
 Side 2  free  transition at x/c =  0.0255   15

  96   rms: 0.1550E+05   max: 0.1199E+06   C at   85  2   RLX: 0.000
       a = -4.000      CL = -0.8650
      Cm =  0.1485     CD =  0.46401   =>   CDf =  0.00307    CDp =  0.46095

 Side 1 forced transition at x/c =  1.0000   77
 Side 2  free  transition at x/c =  0.0255   15

  97   rms: 0.3718E+04   max: -.2530E+05   C at   85  2   RLX: 0.000
       a = -4.000      CL = -0.8650
      Cm =  0.1485     CD =  0.46404   =>   CDf =  0.00307    CDp =  0.46098

 Side 1 forced transition at x/c =  1.0000   77
 Side 2  free  transition at x/c =  0.0255   15

  98   rms: 0.2730E+05   max: -.2005E+06   C at   85  2   RLX: 0.000
       a = -4.000      CL = -0.8650
      Cm =  0.1485     CD =  0.46413   =>   CDf =  0.00307    CDp =  0.46107

 Side 1 forced transition at x/c =  1.0000   77
 Side 2  free  transition at x/c =  0.0255   15

  99   rms: 0.2069E+05   max: 0.1590E+06   C at   85  2   RLX: 0.000
       a = -4.000      CL = -0.8650
      Cm =  0.1485     CD =  0.46410   =>   CDf =  0.00307    CDp =  0.46103

 Side 1 forced transition at x/c =  1.0000   77
 Side 2  free  transition at x/c =  0.0255   15

 100   rms: 0.2877E+04   max: -.1928E+05   C at   85  2   RLX: 0.000
       a = -4.000      CL = -0.8650
      Cm =  0.1485     CD =  0.46411   =>   CDf =  0.00307    CDp =  0.46104

 Side 1 forced transition at x/c =  1.0000   77
 Side 2  free  transition at x/c =  0.0255   15

 101   rms: 0.1354E+05   max: -.9819E+05   C at   85  2   RLX: 0.000
       a = -4.000      CL = -0.8650
      Cm =  0.1485     CD =  0.46422   =>   CDf =  0.00307    CDp =  0.46116

 Side 1 forced transition at x/c =  1.0000   77
 Side 2  free  transition at x/c =  0.0255   15

 102   rms: 0.2933E+05   max: 0.2239E+06   C at   85  2   RLX: 0.000
       a = -4.000      CL = -0.8650
      Cm =  0.1485     CD =  0.46421   =>   CDf =  0.00307    CDp =  0.46114

 Side 1 forced transition at x/c =  1.0000   77
 Side 2  free  transition at x/c =  0.0255   15

 103   rms: 0.2091E+04   max: -.1373E+05   C at   85  2   RLX: 0.000
       a = -4.000      CL = -0.8650
      Cm =  0.1485     CD =  0.46418   =>   CDf =  0.00307    CDp =  0.46111

 Side 1 forced transition at x/c =  1.0000   77
 Side 2  free  transition at x/c =  0.0255   15

 104   rms: 0.8920E+04   max: -.6401E+05   C at   85  2   RLX: 0.000
       a = -4.000      CL = -0.8650
      Cm =  0.1485     CD =  0.46434   =>   CDf =  0.00307    CDp =  0.46128

 MRCHDU: Convergence failed at  74  side 2    Res =  0.5297E-05
 Side 1 forced transition at x/c =  1.0000   77
 Side 2  free  transition at x/c =  0.0255   15

 105   rms: 0.8337E+05   max: 0.6316E+06   C at   85  2   RLX: 0.000
       a = -4.000      CL = -0.8650
      Cm =  0.1485     CD =  0.46434   =>   CDf =  0.00307    CDp =  0.46127

 Side 1 forced transition at x/c =  1.0000   77
 Side 2  free  transition at x/c =  0.0255   15

 106   rms: 0.1733E+04   max: -.1125E+05   C at   85  2   RLX: 0.000
       a = -4.000      CL = -0.8650
      Cm =  0.1485     CD =  0.46429   =>   CDf =  0.00307    CDp =  0.46122

 Side 1 forced transition at x/c =  1.0000   77
 Side 2  free  transition at x/c =  0.0255   15

 107   rms: 0.5360E+04   max: -.3783E+05   C at   85  2   RLX: 0.000
       a = -4.000      CL = -0.8649
      Cm =  0.1485     CD =  0.46446   =>   CDf =  0.00307    CDp =  0.46140

 Side 1 forced transition at x/c =  1.0000   77
 Side 2  free  transition at x/c =  0.0255   15

 108   rms: 0.9346E+05   max: -.7027E+06   C at   85  2   RLX: 0.000
       a = -4.000      CL = -0.8649
      Cm =  0.1485     CD =  0.46454   =>   CDf =  0.00307    CDp =  0.46147

 Side 1 forced transition at x/c =  1.0000   77
 Side 2  free  transition at x/c =  0.0255   15

 109   rms: 0.1741E+05   max: 0.1354E+06   C at   85  2   RLX: 0.000
       a = -4.000      CL = -0.8649
      Cm =  0.1485     CD =  0.46448   =>   CDf =  0.00307    CDp =  0.46141

 Side 1 forced transition at x/c =  1.0000   77
 Side 2  free  transition at x/c =  0.0255   15

 110   rms: 0.3944E+04   max: -.2740E+05   C at   85  2   RLX: 0.000
       a = -4.000      CL = -0.8649
      Cm =  0.1485     CD =  0.46452   =>   CDf =  0.00307    CDp =  0.46145

 Side 1 forced transition at x/c =  1.0000   77
 Side 2  free  transition at x/c =  0.0255   15

 111   rms: 0.2430E+05   max: -.1807E+06   C at   85  2   RLX: 0.000
       a = -4.000      CL = -0.8649
      Cm =  0.1485     CD =  0.46460   =>   CDf =  0.00307    CDp =  0.46153

 Side 1 forced transition at x/c =  1.0000   77
 Side 2  free  transition at x/c =  0.0255   15

 112   rms: 0.2073E+05   max: 0.1605E+06   C at   85  2   RLX: 0.000
       a = -4.000      CL = -0.8649
      Cm =  0.1485     CD =  0.46455   =>   CDf =  0.00307    CDp =  0.46148

 Side 1 forced transition at x/c =  1.0000   77
 Side 2  free  transition at x/c =  0.0255   15

 113   rms: 0.3010E+04   max: -.2058E+05   C at   85  2   RLX: 0.000
       a = -4.000      CL = -0.8649
      Cm =  0.1485     CD =  0.46457   =>   CDf =  0.00307    CDp =  0.46150

 Side 1 forced transition at x/c =  1.0000   77
 Side 2  free  transition at x/c =  0.0255   15

 114   rms: 0.1388E+05   max: -.1021E+06   C at   85  2   RLX: 0.000
       a = -4.000      CL = -0.8649
      Cm =  0.1485     CD =  0.46467   =>   CDf =  0.00307    CDp =  0.46160

 Side 1 forced transition at x/c =  1.0000   77
 Side 2  free  transition at x/c =  0.0255   15

 115   rms: 0.3200E+05   max: 0.2461E+06   C at   85  2   RLX: 0.000
       a = -4.000      CL = -0.8649
      Cm =  0.1485     CD =  0.46464   =>   CDf =  0.00307    CDp =  0.46157

 Side 1 forced transition at x/c =  1.0000   77
 Side 2  free  transition at x/c =  0.0255   15

 116   rms: 0.2093E+04   max: -.1397E+05   C at   85  2   RLX: 0.000
       a = -4.000      CL = -0.8649
      Cm =  0.1485     CD =  0.46461   =>   CDf =  0.00307    CDp =  0.46154

 Side 1 forced transition at x/c =  1.0000   77
 Side 2  free  transition at x/c =  0.0255   15

 117   rms: 0.8479E+04   max: -.6159E+05   C at   85  2   RLX: 0.000
       a = -4.000      CL = -0.8649
      Cm =  0.1485     CD =  0.46476   =>   CDf =  0.00307    CDp =  0.46169

 Side 1 forced transition at x/c =  1.0000   77
 Side 2  free  transition at x/c =  0.0255   15

 118   rms: 0.8263E+05   max: 0.6313E+06   C at   85  2   RLX: 0.000
       a = -4.000      CL = -0.8649
      Cm =  0.1485     CD =  0.46476   =>   CDf =  0.00307    CDp =  0.46169

 Side 1 forced transition at x/c =  1.0000   77
 Side 2  free  transition at x/c =  0.0255   15

 119   rms: 0.1753E+04   max: -.1155E+05   C at   85  2   RLX: 0.000
       a = -4.000      CL = -0.8649
      Cm =  0.1484     CD =  0.46472   =>   CDf =  0.00307    CDp =  0.46165

 Side 1 forced transition at x/c =  1.0000   77
 Side 2  free  transition at x/c =  0.0255   15

 120   rms: 0.5843E+04   max: -.4189E+05   C at   85  2   RLX: 0.000
       a = -4.000      CL = -0.8649
      Cm =  0.1484     CD =  0.46487   =>   CDf =  0.00307    CDp =  0.46180

 Side 1 forced transition at x/c =  1.0000   77
 Side 2  free  transition at x/c =  0.0255   15

 121   rms: 0.7851E+05   max: -.5950E+06   C at   85  2   RLX: 0.000
       a = -4.000      CL = -0.8649
      Cm =  0.1484     CD =  0.46493   =>   CDf =  0.00307    CDp =  0.46187

 Side 1 forced transition at x/c =  1.0000   77
 Side 2  free  transition at x/c =  0.0255   15

 122   rms: 0.1759E+05   max: 0.1375E+06   C at   85  2   RLX: 0.000
       a = -4.000      CL = -0.8649
      Cm =  0.1484     CD =  0.46487   =>   CDf =  0.00307    CDp =  0.46180

 Side 1 forced transition at x/c =  1.0000   77
 Side 2  free  transition at x/c =  0.0255   15

 123   rms: 0.4276E+04   max: -.3015E+05   C at   85  2   RLX: 0.000
       a = -4.000      CL = -0.8649
      Cm =  0.1484     CD =  0.46492   =>   CDf =  0.00307    CDp =  0.46185

 Side 1 forced transition at x/c =  1.0000   77
 Side 2  free  transition at x/c =  0.0255   15

 124   rms: 0.2079E+05   max: -.1558E+06   C at   85  2   RLX: 0.000
       a = -4.000      CL = -0.8649
      Cm =  0.1484     CD =  0.46499   =>   CDf =  0.00307    CDp =  0.46192

 Side 1 forced transition at x/c =  1.0000   77
 Side 2  free  transition at x/c =  0.0255   15

 125   rms: 0.2391E+05   max: 0.1858E+06   C at   85  2   RLX: 0.000
       a = -4.000      CL = -0.8649
      Cm =  0.1484     CD =  0.46495   =>   CDf =  0.00307    CDp =  0.46188

 Side 1 forced transition at x/c =  1.0000   77
 Side 2  free  transition at x/c =  0.0255   15

 126   rms: 0.2937E+04   max: -.2026E+05   C at   85  2   RLX: 0.000
       a = -4.000      CL = -0.8649
      Cm =  0.1484     CD =  0.46496   =>   CDf =  0.00307    CDp =  0.46189

 Side 1 forced transition at x/c =  1.0000   77
 Side 2  free  transition at x/c =  0.0255   15

 127   rms: 0.1391E+05   max: -.1033E+06   C at   85  2   RLX: 0.000
       a = -4.000      CL = -0.8648
      Cm =  0.1484     CD =  0.46507   =>   CDf =  0.00307    CDp =  0.46201

 Side 1 forced transition at x/c =  1.0000   77
 Side 2  free  transition at x/c =  0.0255   15

 128   rms: 0.2871E+05   max: 0.2222E+06   C at   85  2   RLX: 0.000
       a = -4.000      CL = -0.8649
      Cm =  0.1484     CD =  0.46504   =>   CDf =  0.00307    CDp =  0.46197

 Side 1 forced transition at x/c =  1.0000   77
 Side 2  free  transition at x/c =  0.0255   15

 129   rms: 0.2255E+04   max: -.1529E+05   C at   85  2   RLX: 0.000
       a = -4.000      CL = -0.8648
      Cm =  0.1484     CD =  0.46503   =>   CDf =  0.00307    CDp =  0.46196

 Side 1 forced transition at x/c =  1.0000   77
 Side 2  free  transition at x/c =  0.0255   15

 130   rms: 0.8471E+04   max: -.6213E+05   C at   85  2   RLX: 0.000
       a = -4.000      CL = -0.8648
      Cm =  0.1484     CD =  0.46517   =>   CDf =  0.00307    CDp =  0.46210

 Side 1 forced transition at x/c =  1.0000   77
 Side 2  free  transition at x/c =  0.0255   15

 131   rms: 0.7522E+05   max: 0.5781E+06   C at   85  2   RLX: 0.000
       a = -4.000      CL = -0.8648
      Cm =  0.1484     CD =  0.46516   =>   CDf =  0.00307    CDp =  0.46209

 Side 1 forced transition at x/c =  1.0000   77
 Side 2  free  transition at x/c =  0.0255   15

 132   rms: 0.1755E+04   max: -.1162E+05   C at   85  2   RLX: 0.000
       a = -4.000      CL = -0.8648
      Cm =  0.1484     CD =  0.46511   =>   CDf =  0.00307    CDp =  0.46205

 Side 1 forced transition at x/c =  1.0000   77
 Side 2  free  transition at x/c =  0.0255   15

 133   rms: 0.5901E+04   max: -.4270E+05   C at   85  2   RLX: 0.000
       a = -4.000      CL = -0.8648
      Cm =  0.1484     CD =  0.46529   =>   CDf =  0.00307    CDp =  0.46222

 Side 1 forced transition at x/c =  1.0000   77
 Side 2  free  transition at x/c =  0.0255   15

 134   rms: 0.1064E+06   max: -.8118E+06   C at   85  2   RLX: 0.000
       a = -4.000      CL = -0.8648
      Cm =  0.1484     CD =  0.46535   =>   CDf =  0.00307    CDp =  0.46228

 Side 1 forced transition at x/c =  1.0000   77
 Side 2  free  transition at x/c =  0.0255   15

 135   rms: 0.1730E+05   max: 0.1357E+06   C at   85  2   RLX: 0.000
       a = -4.000      CL = -0.8648
      Cm =  0.1484     CD =  0.46529   =>   CDf =  0.00307    CDp =  0.46222

 Side 1 forced transition at x/c =  1.0000   77
 Side 2  free  transition at x/c =  0.0255   15

 136   rms: 0.4205E+04   max: -.2991E+05   C at   85  2   RLX: 0.000
       a = -4.000      CL = -0.8648
      Cm =  0.1484     CD =  0.46533   =>   CDf =  0.00307    CDp =  0.46226

 Side 1 forced transition at x/c =  1.0000   77
 Side 2  free  transition at x/c =  0.0255   15

 137   rms: 0.2807E+05   max: -.2121E+06   C at   85  2   RLX: 0.000
       a = -4.000      CL = -0.8648
      Cm =  0.1484     CD =  0.46542   =>   CDf =  0.00307    CDp =  0.46235

 Side 1 forced transition at x/c =  1.0000   77
 Side 2  free  transition at x/c =  0.0255   15

 138   rms: 0.2145E+05   max: 0.1674E+06   C at   85  2   RLX: 0.000
       a = -4.000      CL = -0.8648
      Cm =  0.1484     CD =  0.46536   =>   CDf =  0.00307    CDp =  0.46230

 Side 1 forced transition at x/c =  1.0000   77
 Side 2  free  transition at x/c =  0.0255   15

 139   rms: 0.2908E+04   max: -.2022E+05   C at   85  2   RLX: 0.000
       a = -4.000      CL = -0.8648
      Cm =  0.1484     CD =  0.46537   =>   CDf =  0.00307    CDp =  0.46230

 Side 1 forced transition at x/c =  1.0000   77
 Side 2  free  transition at x/c =  0.0255   15

 140   rms: 0.1427E+05   max: -.1067E+06   C at   85  2   RLX: 0.000
       a = -4.000      CL = -0.8648
      Cm =  0.1484     CD =  0.46549   =>   CDf =  0.00307    CDp =  0.46242

 Side 1 forced transition at x/c =  1.0000   77
 Side 2  free  transition at x/c =  0.0255   15

 141   rms: 0.3243E+05   max: 0.2519E+06   C at   85  2   RLX: 0.000
       a = -4.000      CL = -0.8648
      Cm =  0.1484     CD =  0.46546   =>   CDf =  0.00307    CDp =  0.46239

 Side 1 forced transition at x/c =  1.0000   77
 Side 2  free  transition at x/c =  0.0255   15

 142   rms: 0.2387E+04   max: -.1638E+05   C at   85  2   RLX: 0.000
       a = -4.000      CL = -0.8648
      Cm =  0.1484     CD =  0.46545   =>   CDf =  0.00307    CDp =  0.46238

 Side 1 forced transition at x/c =  1.0000   77
 Side 2  free  transition at x/c =  0.0255   15

 143   rms: 0.8842E+04   max: -.6531E+05   C at   85  2   RLX: 0.000
       a = -4.000      CL = -0.8647
      Cm =  0.1484     CD =  0.46558   =>   CDf =  0.00307    CDp =  0.46251

 Side 1 forced transition at x/c =  1.0000   77
 Side 2  free  transition at x/c =  0.0255   15

 144   rms: 0.7827E+05   max: 0.6041E+06   C at   85  2   RLX: 0.000
       a = -4.000      CL = -0.8648
      Cm =  0.1484     CD =  0.46557   =>   CDf =  0.00307    CDp =  0.46250

 Side 1 forced transition at x/c =  1.0000   77
 Side 2  free  transition at x/c =  0.0255   15

 145   rms: 0.1900E+04   max: -.1280E+05   C at   85  2   RLX: 0.000
       a = -4.000      CL = -0.8647
      Cm =  0.1484     CD =  0.46554   =>   CDf =  0.00307    CDp =  0.46247

 Side 1 forced transition at x/c =  1.0000   77
 Side 2  free  transition at x/c =  0.0255   15

 146   rms: 0.6560E+04   max: -.4787E+05   C at   85  2   RLX: 0.000
       a = -4.000      CL = -0.8647
      Cm =  0.1484     CD =  0.46569   =>   CDf =  0.00307    CDp =  0.46262

 Side 1 forced transition at x/c =  1.0000   77
 Side 2  free  transition at x/c =  0.0255   15

 147   rms: 0.1332E+06   max: -.1022E+07   C at   85  2   RLX: 0.000
       a = -4.000      CL = -0.8647
      Cm =  0.1484     CD =  0.46575   =>   CDf =  0.00307    CDp =  0.46268

 Side 1 forced transition at x/c =  1.0000   77
 Side 2  free  transition at x/c =  0.0255   15

 148   rms: 0.1832E+05   max: 0.1440E+06   C at   85  2   RLX: 0.000
       a = -4.000      CL = -0.8647
      Cm =  0.1484     CD =  0.46569   =>   CDf =  0.00307    CDp =  0.46262

 Side 1 forced transition at x/c =  1.0000   77
 Side 2  free  transition at x/c =  0.0255   15

 149   rms: 0.4770E+04   max: -.3428E+05   C at   85  2   RLX: 0.000
       a = -4.000      CL = -0.8647
      Cm =  0.1484     CD =  0.46573   =>   CDf =  0.00307    CDp =  0.46266

 Side 1 forced transition at x/c =  1.0000   77
 Side 2  free  transition at x/c =  0.0255   15

 150   rms: 0.3035E+05   max: -.2306E+06   C at   85  2   RLX: 0.000
       a = -4.000      CL = -0.8647
      Cm =  0.1484     CD =  0.46581   =>   CDf =  0.00307    CDp =  0.46274

 Side 1 forced transition at x/c =  1.0000   77
 Side 2  free  transition at x/c =  0.0255   15

 151   rms: 0.2271E+05   max: 0.1777E+06   C at   85  2   RLX: 0.000
       a = -4.000      CL = -0.8647
      Cm =  0.1484     CD =  0.46575   =>   CDf =  0.00307    CDp =  0.46269

 Side 1 forced transition at x/c =  1.0000   77
 Side 2  free  transition at x/c =  0.0255   15

 152   rms: 0.3249E+04   max: -.2290E+05   C at   85  2   RLX: 0.000
       a = -4.000      CL = -0.8647
      Cm =  0.1484     CD =  0.46577   =>   CDf =  0.00307    CDp =  0.46271

 Side 1 forced transition at x/c =  1.0000   77
 Side 2  free  transition at x/c =  0.0255   15

 153   rms: 0.1506E+05   max: -.1132E+06   C at   85  2   RLX: 0.000
       a = -4.000      CL = -0.8647
      Cm =  0.1484     CD =  0.46587   =>   CDf =  0.00307    CDp =  0.46280

 Side 1 forced transition at x/c =  1.0000   77
 Side 2  free  transition at x/c =  0.0255   15

 154   rms: 0.3139E+05   max: 0.2446E+06   C at   85  2   RLX: 0.000
       a = -4.000      CL = -0.8647
      Cm =  0.1484     CD =  0.46583   =>   CDf =  0.00307    CDp =  0.46277

 Side 1 forced transition at x/c =  1.0000   77
 Side 2  free  transition at x/c =  0.0255   15

 155   rms: 0.2615E+04   max: -.1812E+05   C at   85  2   RLX: 0.000
       a = -4.000      CL = -0.8647
      Cm =  0.1484     CD =  0.46585   =>   CDf =  0.00307    CDp =  0.46278
 VISCAL:  Convergence failed
 Calculating wake trajectory ...
 Calculating source influence matrix ...

 Solving BL system ...

 Side 1 forced transition at x/c =  1.0000   77
 Side 2  free  transition at x/c =  0.0255   15

   1   rms: 0.8923E+04   max: -.6617E+05   C at   85  2   RLX: 0.000
       a = -3.500      CL = -0.8655
      Cm =  0.1484     CD =  0.46595   =>   CDf =  0.00307    CDp =  0.46289

 Side 1 forced transition at x/c =  1.0000   77
 Side 2  free  transition at x/c =  0.0255   15

   2   rms: 0.6947E+05   max: 0.5378E+06   C at   85  2   RLX: 0.000
       a = -3.500      CL = -0.8655
      Cm =  0.1484     CD =  0.46594   =>   CDf =  0.00307    CDp =  0.46287

 Side 1 forced transition at x/c =  1.0000   77
 Side 2  free  transition at x/c =  0.0255   15

   3   rms: 0.2024E+04   max: -.1372E+05   C at   85  2   RLX: 0.000
       a = -3.500      CL = -0.8655
      Cm =  0.1484     CD =  0.46592   =>   CDf =  0.00307    CDp =  0.46286

 Side 1 forced transition at x/c =  1.0000   77
 Side 2  free  transition at x/c =  0.0255   15

   4   rms: 0.6985E+04   max: -.5124E+05   C at   85  2   RLX: 0.000
       a = -3.500      CL = -0.8655
      Cm =  0.1484     CD =  0.46606   =>   CDf =  0.00307    CDp =  0.46299

 Side 1 forced transition at x/c =  1.0000   77
 Side 2  free  transition at x/c =  0.0255   15

   5   rms: 0.1953E+06   max: -.1502E+07   C at   85  2   RLX: 0.000
       a = -3.500      CL = -0.8655
      Cm =  0.1484     CD =  0.46612   =>   CDf =  0.00307    CDp =  0.46305

 Side 1 forced transition at x/c =  1.0000   77
 Side 2  free  transition at x/c =  0.0255   15

   6   rms: 0.1823E+05   max: 0.1435E+06   C at   85  2   RLX: 0.000
       a = -3.500      CL = -0.8655
      Cm =  0.1484     CD =  0.46606   =>   CDf =  0.00307    CDp =  0.46299

 Side 1 forced transition at x/c =  1.0000   77
 Side 2  free  transition at x/c =  0.0255   15

   7   rms: 0.4517E+04   max: -.3253E+05   C at   85  2   RLX: 0.000
       a = -3.500      CL = -0.8655
      Cm =  0.1484     CD =  0.46610   =>   CDf =  0.00307    CDp =  0.46303

 Side 1 forced transition at x/c =  1.0000   77
 Side 2  free  transition at x/c =  0.0255   15

   8   rms: 0.3124E+05   max: -.2381E+06   C at   85  2   RLX: 0.000
       a = -3.500      CL = -0.8655
      Cm =  0.1484     CD =  0.46617   =>   CDf =  0.00307    CDp =  0.46310

 Side 1 forced transition at x/c =  1.0000   77
 Side 2  free  transition at x/c =  0.0255   15

   9   rms: 0.2216E+05   max: 0.1738E+06   C at   85  2   RLX: 0.000
       a = -3.500      CL = -0.8655
      Cm =  0.1484     CD =  0.46612   =>   CDf =  0.00307    CDp =  0.46305

 Side 1 forced transition at x/c =  1.0000   77
 Side 2  free  transition at x/c =  0.0255   15

  10   rms: 0.3937E+04   max: -.2804E+05   C at   85  2   RLX: 0.000
       a = -3.500      CL = -0.8655
      Cm =  0.1484     CD =  0.46616   =>   CDf =  0.00307    CDp =  0.46310

 Side 1 forced transition at x/c =  1.0000   77
 Side 2  free  transition at x/c =  0.0255   15

  11   rms: 0.1449E+05   max: -.1092E+06   C at   85  2   RLX: 0.000
       a = -3.500      CL = -0.8654
      Cm =  0.1484     CD =  0.46622   =>   CDf =  0.00307    CDp =  0.46316

 Side 1 forced transition at x/c =  1.0000   77
 Side 2  free  transition at x/c =  0.0255   15

  12   rms: 0.3237E+05   max: 0.2526E+06   C at   85  2   RLX: 0.000
       a = -3.500      CL = -0.8655
      Cm =  0.1484     CD =  0.46619   =>   CDf =  0.00307    CDp =  0.46312

 Side 1 forced transition at x/c =  1.0000   77
 Side 2  free  transition at x/c =  0.0255   15

  13   rms: 0.2634E+04   max: -.1829E+05   C at   85  2   RLX: 0.000
       a = -3.500      CL = -0.8654
      Cm =  0.1484     CD =  0.46620   =>   CDf =  0.00307    CDp =  0.46313

 Side 1 forced transition at x/c =  1.0000   77
 Side 2  free  transition at x/c =  0.0255   15

  14   rms: 0.9336E+04   max: -.6951E+05   C at   85  2   RLX: 0.000
       a = -3.500      CL = -0.8654
      Cm =  0.1484     CD =  0.46631   =>   CDf =  0.00307    CDp =  0.46324

 Side 1 forced transition at x/c =  1.0000   77
 Side 2  free  transition at x/c =  0.0255   15

  15   rms: 0.7016E+05   max: 0.5444E+06   C at   85  2   RLX: 0.000
       a = -3.500      CL = -0.8655
      Cm =  0.1484     CD =  0.46629   =>   CDf =  0.00307    CDp =  0.46322

 Side 1 forced transition at x/c =  1.0000   77
 Side 2  free  transition at x/c =  0.0255   15

  16   rms: 0.2049E+04   max: -.1397E+05   C at   85  2   RLX: 0.000
       a = -3.500      CL = -0.8654
      Cm =  0.1484     CD =  0.46627   =>   CDf =  0.00307    CDp =  0.46320

 Side 1 forced transition at x/c =  1.0000   77
 Side 2  free  transition at x/c =  0.0255   15

  17   rms: 0.6930E+04   max: -.5102E+05   C at   85  2   RLX: 0.000
       a = -3.500      CL = -0.8654
      Cm =  0.1484     CD =  0.46641   =>   CDf =  0.00307    CDp =  0.46334

 Side 1 forced transition at x/c =  1.0000   77
 Side 2  free  transition at x/c =  0.0255   15

  18   rms: 0.2266E+06   max: -.1747E+07   C at   85  2   RLX: 0.000
       a = -3.500      CL = -0.8654
      Cm =  0.1484     CD =  0.46646   =>   CDf =  0.00307    CDp =  0.46340

 Side 1 forced transition at x/c =  1.0000   77
 Side 2  free  transition at x/c =  0.0255   15

  19   rms: 0.1649E+05   max: 0.1301E+06   C at   85  2   RLX: 0.000
       a = -3.500      CL = -0.8654
      Cm =  0.1484     CD =  0.46639   =>   CDf =  0.00307    CDp =  0.46333

 Side 1 forced transition at x/c =  1.0000   77
 Side 2  free  transition at x/c =  0.0255   15

  20   rms: 0.5574E+04   max: -.4057E+05   C at   85  2   RLX: 0.000
       a = -3.500      CL = -0.8654
      Cm =  0.1484     CD =  0.46645   =>   CDf =  0.00307    CDp =  0.46339

 Side 1 forced transition at x/c =  1.0000   77
 Side 2  free  transition at x/c =  0.0255   15

  21   rms: 0.3184E+05   max: -.2432E+06   C at   85  2   RLX: 0.000
       a = -3.500      CL = -0.8654
      Cm =  0.1484     CD =  0.46651   =>   CDf =  0.00307    CDp =  0.46345

 Side 1 forced transition at x/c =  1.0000   77
 Side 2  free  transition at x/c =  0.0255   15

  22   rms: 0.2209E+05   max: 0.1735E+06   C at   85  2   RLX: 0.000
       a = -3.500      CL = -0.8654
      Cm =  0.1484     CD =  0.46646   =>   CDf =  0.00307    CDp =  0.46339

 Side 1 forced transition at x/c =  1.0000   77
 Side 2  free  transition at x/c =  0.0255   15

  23   rms: 0.4008E+04   max: -.2868E+05   C at   85  2   RLX: 0.000
       a = -3.500      CL = -0.8654
      Cm =  0.1484     CD =  0.46651   =>   CDf =  0.00307    CDp =  0.46344

 Side 1 forced transition at x/c =  1.0000   77
 Side 2  free  transition at x/c =  0.0255   15

  24   rms: 0.1564E+05   max: -.1182E+06   C at   85  2   RLX: 0.000
       a = -3.500      CL = -0.8654
      Cm =  0.1483     CD =  0.46657   =>   CDf =  0.00307    CDp =  0.46350

 Side 1 forced transition at x/c =  1.0000   77
 Side 2  free  transition at x/c =  0.0255   15

  25   rms: 0.2984E+05   max: 0.2333E+06   C at   85  2   RLX: 0.000
       a = -3.500      CL = -0.8654
      Cm =  0.1484     CD =  0.46653   =>   CDf =  0.00307    CDp =  0.46346

 Side 1 forced transition at x/c =  1.0000   77
 Side 2  free  transition at x/c =  0.0255   15

  26   rms: 0.2895E+04   max: -.2031E+05   C at   85  2   RLX: 0.000
       a = -3.500      CL = -0.8654
      Cm =  0.1483     CD =  0.46656   =>   CDf =  0.00307    CDp =  0.46349

 Side 1 forced transition at x/c =  1.0000   77
 Side 2  free  transition at x/c =  0.0255   15

  27   rms: 0.1058E+05   max: -.7918E+05   C at   85  2   RLX: 0.000
       a = -3.500      CL = -0.8654
      Cm =  0.1483     CD =  0.46663   =>   CDf =  0.00307    CDp =  0.46356

 Side 1 forced transition at x/c =  1.0000   77
 Side 2  free  transition at x/c =  0.0255   15

  28   rms: 0.7003E+05   max: 0.5441E+06   C at   85  2   RLX: 0.000
       a = -3.500      CL = -0.8654
      Cm =  0.1484     CD =  0.46661   =>   CDf =  0.00307    CDp =  0.46354

 Side 1 forced transition at x/c =  1.0000   77
 Side 2  free  transition at x/c =  0.0255   15

  29   rms: 0.2197E+04   max: -.1508E+05   C at   85  2   RLX: 0.000
       a = -3.500      CL = -0.8654
      Cm =  0.1483     CD =  0.46661   =>   CDf =  0.00307    CDp =  0.46355

 Side 1 forced transition at x/c =  1.0000   77
 Side 2  free  transition at x/c =  0.0255   15

  30   rms: 0.6458E+04   max: -.4754E+05   C at   85  2   RLX: 0.000
       a = -3.500      CL = -0.8654
      Cm =  0.1483     CD =  0.46672   =>   CDf =  0.00307    CDp =  0.46366

 Side 1 forced transition at x/c =  1.0000   77
 Side 2  free  transition at x/c =  0.0255   15

  31   rms: 0.1879E+06   max: -.1450E+07   C at   85  2   RLX: 0.000
       a = -3.500      CL = -0.8653
      Cm =  0.1483     CD =  0.46678   =>   CDf =  0.00307    CDp =  0.46372

 Side 1 forced transition at x/c =  1.0000   77
 Side 2  free  transition at x/c =  0.0255   15

  32   rms: 0.1797E+05   max: 0.1418E+06   C at   85  2   RLX: 0.000
       a = -3.500      CL = -0.8654
      Cm =  0.1483     CD =  0.46672   =>   CDf =  0.00307    CDp =  0.46365

 Side 1 forced transition at x/c =  1.0000   77
 Side 2  free  transition at x/c =  0.0255   15

  33   rms: 0.5046E+04   max: -.3672E+05   C at   85  2   RLX: 0.000
       a = -3.500      CL = -0.8653
      Cm =  0.1483     CD =  0.46677   =>   CDf =  0.00307    CDp =  0.46370

 Side 1 forced transition at x/c =  1.0000   77
 Side 2  free  transition at x/c =  0.0255   15

  34   rms: 0.3104E+05   max: -.2374E+06   C at   85  2   RLX: 0.000
       a = -3.500      CL = -0.8653
      Cm =  0.1483     CD =  0.46683   =>   CDf =  0.00307    CDp =  0.46377

 Side 1 forced transition at x/c =  1.0000   77
 Side 2  free  transition at x/c =  0.0255   15

  35   rms: 0.2089E+05   max: 0.1643E+06   C at   85  2   RLX: 0.000
       a = -3.500      CL = -0.8654
      Cm =  0.1483     CD =  0.46678   =>   CDf =  0.00307    CDp =  0.46371

 Side 1 forced transition at x/c =  1.0000   77
 Side 2  free  transition at x/c =  0.0255   15

  36   rms: 0.3388E+04   max: -.2406E+05   C at   85  2   RLX: 0.000
       a = -3.500      CL = -0.8653
      Cm =  0.1483     CD =  0.46681   =>   CDf =  0.00307    CDp =  0.46375

 Side 1 forced transition at x/c =  1.0000   77
 Side 2  free  transition at x/c =  0.0255   15

  37   rms: 0.1438E+05   max: -.1088E+06   C at   85  2   RLX: 0.000
       a = -3.500      CL = -0.8653
[...]

  86   rms: 0.6026E+04   max: -.5126E+05   C at   85  2   RLX: 0.000
       a = 10.750      CL = -0.8875
      Cm =  0.1502     CD =  0.63768   =>   CDf =  0.00305    CDp =  0.63463

 MRCHDU: Convergence failed at  74  side 2    Res =  0.8239E-05
 Side 1 forced transition at x/c =  1.0000   77
 Side 2  free  transition at x/c =  0.0255   15

  87   rms: 0.2607E+05   max: -.2532E+06   C at   85  2   RLX: 0.000
       a = 10.750      CL = -0.8875
      Cm =  0.1502     CD =  0.63777   =>   CDf =  0.00305    CDp =  0.63472

 Side 1 forced transition at x/c =  1.0000   77
 Side 2  free  transition at x/c =  0.0255   15

  88   rms: 0.4176E+05   max: 0.4001E+06   C at   85  2   RLX: 0.000
       a = 10.750      CL = -0.8875
      Cm =  0.1502     CD =  0.63771   =>   CDf =  0.00305    CDp =  0.63466

 MRCHDU: Convergence failed at  74  side 2    Res =  0.1571E-04
 Side 1 forced transition at x/c =  1.0000   77
 Side 2  free  transition at x/c =  0.0255   15

  89   rms: 0.2990E+04   max: -.2851E+05   C at   85  2   RLX: 0.000
       a = 10.750      CL = -0.8875
      Cm =  0.1502     CD =  0.63776   =>   CDf =  0.00305    CDp =  0.63471

 Side 1 forced transition at x/c =  1.0000   77
 Side 2  free  transition at x/c =  0.0255   15

  90   rms: 0.7382E+04   max: -.6877E+05   C at   85  2   RLX: 0.000
       a = 10.750      CL = -0.8875
      Cm =  0.1502     CD =  0.63786   =>   CDf =  0.00305    CDp =  0.63481

 Side 1 forced transition at x/c =  1.0000   77
 Side 2  free  transition at x/c =  0.0255   15

  91   rms: 0.4571E+05   max: -.4364E+06   C at   85  2   RLX: 0.000
       a = 10.750      CL = -0.8875
      Cm =  0.1502     CD =  0.63792   =>   CDf =  0.00305    CDp =  0.63487

 Side 1 forced transition at x/c =  1.0000   77
 Side 2  free  transition at x/c =  0.0255   15

  92   rms: 0.3255E+05   max: 0.3092E+06   C at   85  2   RLX: 0.000
       a = 10.750      CL = -0.8875
      Cm =  0.1502     CD =  0.63786   =>   CDf =  0.00305    CDp =  0.63481

 Side 1 forced transition at x/c =  1.0000   77
 Side 2  free  transition at x/c =  0.0255   15

  93   rms: 0.3971E+04   max: -.3279E+05   C at   85  2   RLX: 0.000
       a = 10.750      CL = -0.8875
      Cm =  0.1502     CD =  0.63790   =>   CDf =  0.00305    CDp =  0.63485

 Side 1 forced transition at x/c =  1.0000   77
 Side 2  free  transition at x/c =  0.0255   15

  94   rms: 0.1099E+05   max: -.9956E+05   C at   85  2   RLX: 0.000
       a = 10.750      CL = -0.8875
      Cm =  0.1502     CD =  0.63801   =>   CDf =  0.00305    CDp =  0.63496

 Side 1 forced transition at x/c =  1.0000   77
 Side 2  free  transition at x/c =  0.0255   15

  95   rms: 0.4328E+06   max: -.4180E+07   C at   85  2   RLX: 0.000
       a = 10.750      CL = -0.8875
      Cm =  0.1502     CD =  0.63806   =>   CDf =  0.00305    CDp =  0.63501

 Side 1 forced transition at x/c =  1.0000   77
 Side 2  free  transition at x/c =  0.0255   15

  96   rms: 0.2170E+05   max: 0.2089E+06   C at   85  2   RLX: 0.000
       a = 10.750      CL = -0.8875
      Cm =  0.1502     CD =  0.63798   =>   CDf =  0.00305    CDp =  0.63493

 Side 1 forced transition at x/c =  1.0000   77
 Side 2  free  transition at x/c =  0.0255   15

  97   rms: 0.5094E+04   max: -.4768E+05   C at   85  2   RLX: 0.000
       a = 10.750      CL = -0.8876
      Cm =  0.1502     CD =  0.63805   =>   CDf =  0.00305    CDp =  0.63500

 Side 1 forced transition at x/c =  1.0000   77
 Side 2  free  transition at x/c =  0.0255   15

  98   rms: 0.1584E+05   max: -.1511E+06   C at   85  2   RLX: 0.000
       a = 10.750      CL = -0.8876
      Cm =  0.1502     CD =  0.63813   =>   CDf =  0.00305    CDp =  0.63508

 Side 1 forced transition at x/c =  1.0000   77
 Side 2  free  transition at x/c =  0.0255   15

  99   rms: 0.9159E+05   max: 0.8816E+06   C at   85  2   RLX: 0.000
       a = 10.750      CL = -0.8876
      Cm =  0.1502     CD =  0.63808   =>   CDf =  0.00305    CDp =  0.63503

 MRCHDU: Convergence failed at  74  side 2    Res =  0.9047E-05
 Side 1 forced transition at x/c =  1.0000   77
 Side 2  free  transition at x/c =  0.0255   15

 100   rms: 0.2899E+04   max: -.2149E+05   C at   83  2   RLX: 0.000
       a = 10.750      CL = -0.8876
      Cm =  0.1502     CD =  0.63809   =>   CDf =  0.00305    CDp =  0.63504

 Side 1 forced transition at x/c =  1.0000   77
 Side 2  free  transition at x/c =  0.0255   15

 101   rms: 0.6301E+04   max: -.6014E+05   C at   85  2   RLX: 0.000
       a = 10.750      CL = -0.8876
      Cm =  0.1502     CD =  0.63823   =>   CDf =  0.00305    CDp =  0.63518

 Side 1 forced transition at x/c =  1.0000   77
 Side 2  free  transition at x/c =  0.0255   15

 102   rms: 0.2432E+05   max: -.2383E+06   C at   85  2   RLX: 0.000
       a = 10.750      CL = -0.8876
      Cm =  0.1502     CD =  0.63830   =>   CDf =  0.00305    CDp =  0.63525

 Side 1 forced transition at x/c =  1.0000   77
 Side 2  free  transition at x/c =  0.0255   15

 103   rms: 0.4505E+05   max: 0.4380E+06   C at   85  2   RLX: 0.000
       a = 10.750      CL = -0.8876
      Cm =  0.1502     CD =  0.63824   =>   CDf =  0.00305    CDp =  0.63520

 Side 1 forced transition at x/c =  1.0000   77
 Side 2  free  transition at x/c =  0.0255   15

 104   rms: 0.3327E+04   max: -.3012E+05   C at   85  2   RLX: 0.000
       a = 10.750      CL = -0.8876
      Cm =  0.1502     CD =  0.63829   =>   CDf =  0.00305    CDp =  0.63524

 Side 1 forced transition at x/c =  1.0000   77
 Side 2  free  transition at x/c =  0.0255   15

 105   rms: 0.8074E+04   max: -.7656E+05   C at   85  2   RLX: 0.000
       a = 10.750      CL = -0.8876
      Cm =  0.1502     CD =  0.63839   =>   CDf =  0.00305    CDp =  0.63534

 Side 1 forced transition at x/c =  1.0000   77
 Side 2  free  transition at x/c =  0.0255   15

 106   rms: 0.4160E+05   max: -.4061E+06   C at   85  2   RLX: 0.000
       a = 10.750      CL = -0.8876
      Cm =  0.1502     CD =  0.63845   =>   CDf =  0.00305    CDp =  0.63540

 Side 1 forced transition at x/c =  1.0000   77
 Side 2  free  transition at x/c =  0.0255   15

 107   rms: 0.3542E+05   max: 0.3405E+06   C at   85  2   RLX: 0.000
       a = 10.750      CL = -0.8876
      Cm =  0.1502     CD =  0.63839   =>   CDf =  0.00305    CDp =  0.63534

 Side 1 forced transition at x/c =  1.0000   77
 Side 2  free  transition at x/c =  0.0255   15

 108   rms: 0.3992E+04   max: -.3217E+05   C at   85  2   RLX: 0.000
       a = 10.750      CL = -0.8877
      Cm =  0.1502     CD =  0.63843   =>   CDf =  0.00305    CDp =  0.63538

 Side 1 forced transition at x/c =  1.0000   77
 Side 2  free  transition at x/c =  0.0255   15

 109   rms: 0.1049E+05   max: -.1013E+06   C at   85  2   RLX: 0.000
       a = 10.750      CL = -0.8877
      Cm =  0.1502     CD =  0.63853   =>   CDf =  0.00305    CDp =  0.63548

 Side 1 forced transition at x/c =  1.0000   77
 Side 2  free  transition at x/c =  0.0255   15

 110   rms: 0.1421E+06   max: -.1390E+07   C at   85  2   RLX: 0.000
       a = 10.750      CL = -0.8877
      Cm =  0.1502     CD =  0.63858   =>   CDf =  0.00305    CDp =  0.63553

 Side 1 forced transition at x/c =  1.0000   77
 Side 2  free  transition at x/c =  0.0255   15

 111   rms: 0.2583E+05   max: 0.2506E+06   C at   85  2   RLX: 0.000
       a = 10.750      CL = -0.8877
      Cm =  0.1502     CD =  0.63851   =>   CDf =  0.00305    CDp =  0.63546

 Side 1 forced transition at x/c =  1.0000   77
 Side 2  free  transition at x/c =  0.0255   15

 112   rms: 0.5009E+04   max: -.4847E+05   C at   85  2   RLX: 0.000
       a = 10.750      CL = -0.8877
      Cm =  0.1502     CD =  0.63858   =>   CDf =  0.00305    CDp =  0.63553

 Side 1 forced transition at x/c =  1.0000   77
 Side 2  free  transition at x/c =  0.0255   15

 113   rms: 0.1372E+05   max: -.1307E+06   C at   85  2   RLX: 0.000
       a = 10.750      CL = -0.8877
      Cm =  0.1502     CD =  0.63864   =>   CDf =  0.00305    CDp =  0.63559

 Side 1 forced transition at x/c =  1.0000   77
 Side 2  free  transition at x/c =  0.0255   15

 114   rms: 0.1549E+06   max: 0.1514E+07   C at   85  2   RLX: 0.000
       a = 10.750      CL = -0.8877
      Cm =  0.1502     CD =  0.63861   =>   CDf =  0.00305    CDp =  0.63556

 Side 1 forced transition at x/c =  1.0000   77
 Side 2  free  transition at x/c =  0.0255   15

 115   rms: 0.2909E+04   max: -.2253E+05   C at   85  2   RLX: 0.000
       a = 10.750      CL = -0.8877
      Cm =  0.1502     CD =  0.63863   =>   CDf =  0.00305    CDp =  0.63558

 Side 1 forced transition at x/c =  1.0000   77
 Side 2  free  transition at x/c =  0.0255   15

 116   rms: 0.5646E+04   max: -.5270E+05   C at   85  2   RLX: 0.000
       a = 10.750      CL = -0.8877
      Cm =  0.1502     CD =  0.63876   =>   CDf =  0.00305    CDp =  0.63571

 Side 1 forced transition at x/c =  1.0000   77
 Side 2  free  transition at x/c =  0.0255   15

 117   rms: 0.1996E+05   max: -.1954E+06   C at   85  2   RLX: 0.000
       a = 10.750      CL = -0.8877
      Cm =  0.1502     CD =  0.63882   =>   CDf =  0.00305    CDp =  0.63578

 Side 1 forced transition at x/c =  1.0000   77
 Side 2  free  transition at x/c =  0.0255   15

 118   rms: 0.5767E+05   max: 0.5659E+06   C at   85  2   RLX: 0.000
       a = 10.750      CL = -0.8877
      Cm =  0.1502     CD =  0.63878   =>   CDf =  0.00305    CDp =  0.63573

 Side 1 forced transition at x/c =  1.0000   77
 Side 2  free  transition at x/c =  0.0255   15

 119   rms: 0.3330E+04   max: -.3213E+05   C at   85  2   RLX: 0.000
       a = 10.750      CL = -0.8878
      Cm =  0.1502     CD =  0.63882   =>   CDf =  0.00305    CDp =  0.63577

 Side 1 forced transition at x/c =  1.0000   77
 Side 2  free  transition at x/c =  0.0255   15

 120   rms: 0.7446E+04   max: -.7005E+05   C at   85  2   RLX: 0.000
       a = 10.750      CL = -0.8878
      Cm =  0.1502     CD =  0.63891   =>   CDf =  0.00305    CDp =  0.63586

 Side 1 forced transition at x/c =  1.0000   77
 Side 2  free  transition at x/c =  0.0255   15

 121   rms: 0.3664E+05   max: -.3602E+06   C at   85  2   RLX: 0.000
       a = 10.750      CL = -0.8878
      Cm =  0.1502     CD =  0.63897   =>   CDf =  0.00305    CDp =  0.63592

 Side 1 forced transition at x/c =  1.0000   77
 Side 2  free  transition at x/c =  0.0255   15

 122   rms: 0.3567E+05   max: 0.3511E+06   C at   85  2   RLX: 0.000
       a = 10.750      CL = -0.8878
      Cm =  0.1502     CD =  0.63891   =>   CDf =  0.00305    CDp =  0.63587

 Side 1 forced transition at x/c =  1.0000   77
 Side 2  free  transition at x/c =  0.0255   15

 123   rms: 0.4138E+04   max: -.3475E+05   C at   85  2   RLX: 0.000
       a = 10.750      CL = -0.8878
      Cm =  0.1502     CD =  0.63895   =>   CDf =  0.00305    CDp =  0.63590

 Side 1 forced transition at x/c =  1.0000   77
 Side 2  free  transition at x/c =  0.0255   15

 124   rms: 0.1011E+05   max: -.9667E+05   C at   85  2   RLX: 0.000
       a = 10.750      CL = -0.8878
      Cm =  0.1502     CD =  0.63905   =>   CDf =  0.00305    CDp =  0.63600

 Side 1 forced transition at x/c =  1.0000   77
 Side 2  free  transition at x/c =  0.0255   15

 125   rms: 0.6771E+05   max: -.6641E+06   C at   85  2   RLX: 0.000
       a = 10.750      CL = -0.8878
      Cm =  0.1502     CD =  0.63910   =>   CDf =  0.00305    CDp =  0.63605

 Side 1 forced transition at x/c =  1.0000   77
 Side 2  free  transition at x/c =  0.0255   15

 126   rms: 0.2692E+05   max: 0.2679E+06   C at   85  2   RLX: 0.000
       a = 10.750      CL = -0.8878
      Cm =  0.1502     CD =  0.63904   =>   CDf =  0.00305    CDp =  0.63599

 Side 1 forced transition at x/c =  1.0000   77
 Side 2  free  transition at x/c =  0.0255   15

 127   rms: 0.4641E+04   max: -.3520E+05   C at   85  2   RLX: 0.000
       a = 10.750      CL = -0.8878
      Cm =  0.1502     CD =  0.63906   =>   CDf =  0.00305    CDp =  0.63601

 MRCHDU: Convergence failed at  74  side 2    Res =  0.1160E-04
 Side 1 forced transition at x/c =  1.0000   77
 Side 2  free  transition at x/c =  0.0255   15

 128   rms: 0.1277E+05   max: -.1239E+06   C at   85  2   RLX: 0.000
       a = 10.750      CL = -0.8878
      Cm =  0.1502     CD =  0.63916   =>   CDf =  0.00305    CDp =  0.63611

 Side 1 forced transition at x/c =  1.0000   77
 Side 2  free  transition at x/c =  0.0255   15

 129   rms: 0.3320E+06   max: -.3292E+07   C at   85  2   RLX: 0.000
       a = 10.750      CL = -0.8878
      Cm =  0.1502     CD =  0.63921   =>   CDf =  0.00305    CDp =  0.63617

 Side 1 forced transition at x/c =  1.0000   77
 Side 2  free  transition at x/c =  0.0255   15

 130   rms: 0.2369E+05   max: 0.2366E+06   C at   85  2   RLX: 0.000
       a = 10.750      CL = -0.8878
      Cm =  0.1502     CD =  0.63914   =>   CDf =  0.00305    CDp =  0.63609

 Side 1 forced transition at x/c =  1.0000   77
 Side 2  free  transition at x/c =  0.0255   15

 131   rms: 0.5643E+04   max: -.5788E+05   C at   85  2   RLX: 0.000
       a = 10.750      CL = -0.8878
      Cm =  0.1502     CD =  0.63920   =>   CDf =  0.00305    CDp =  0.63615

 Side 1 forced transition at x/c =  1.0000   77
 Side 2  free  transition at x/c =  0.0255   15

 132   rms: 0.1589E+05   max: -.1523E+06   C at   85  2   RLX: 0.000
       a = 10.750      CL = -0.8878
      Cm =  0.1502     CD =  0.63925   =>   CDf =  0.00305    CDp =  0.63621

 Side 1 forced transition at x/c =  1.0000   77
 Side 2  free  transition at x/c =  0.0255   15

 133   rms: 0.1343E+06   max: 0.1337E+07   C at   85  2   RLX: 0.000
       a = 10.750      CL = -0.8878
      Cm =  0.1502     CD =  0.63923   =>   CDf =  0.00305    CDp =  0.63618

 Side 1 forced transition at x/c =  1.0000   77
 Side 2  free  transition at x/c =  0.0255   15

 134   rms: 0.2981E+04   max: -.2755E+05   C at   85  2   RLX: 0.000
       a = 10.750      CL = -0.8879
      Cm =  0.1502     CD =  0.63926   =>   CDf =  0.00305    CDp =  0.63621

 Side 1 forced transition at x/c =  1.0000   77
 Side 2  free  transition at x/c =  0.0255   15

 135   rms: 0.6916E+04   max: -.6620E+05   C at   85  2   RLX: 0.000
       a = 10.750      CL = -0.8879
      Cm =  0.1502     CD =  0.63935   =>   CDf =  0.00305    CDp =  0.63630

 Side 1 forced transition at x/c =  1.0000   77
 Side 2  free  transition at x/c =  0.0255   15

 136   rms: 0.2288E+05   max: -.2238E+06   C at   85  2   RLX: 0.000
       a = 10.750      CL = -0.8879
      Cm =  0.1502     CD =  0.63941   =>   CDf =  0.00305    CDp =  0.63636

 Side 1 forced transition at x/c =  1.0000   77
 Side 2  free  transition at x/c =  0.0255   15

 137   rms: 0.6216E+05   max: 0.6171E+06   C at   85  2   RLX: 0.000
       a = 10.750      CL = -0.8879
      Cm =  0.1502     CD =  0.63937   =>   CDf =  0.00305    CDp =  0.63632

 Side 1 forced transition at x/c =  1.0000   77
 Side 2  free  transition at x/c =  0.0255   15

 138   rms: 0.4193E+04   max: -.3151E+05   C at   82  2   RLX: 0.000
       a = 10.750      CL = -0.8879
      Cm =  0.1502     CD =  0.63940   =>   CDf =  0.00305    CDp =  0.63635

 Side 1 forced transition at x/c =  1.0000   77
 Side 2  free  transition at x/c =  0.0255   15

 139   rms: 0.8147E+04   max: -.7866E+05   C at   85  2   RLX: 0.000
       a = 10.750      CL = -0.8879
      Cm =  0.1502     CD =  0.63951   =>   CDf =  0.00305    CDp =  0.63646

 Side 1 forced transition at x/c =  1.0000   77
 Side 2  free  transition at x/c =  0.0255   15

 140   rms: 0.3056E+05   max: -.2988E+06   C at   85  2   RLX: 0.000
       a = 10.750      CL = -0.8879
      Cm =  0.1502     CD =  0.63956   =>   CDf =  0.00305    CDp =  0.63651

 Side 1 forced transition at x/c =  1.0000   77
 Side 2  free  transition at x/c =  0.0255   15

 141   rms: 0.4704E+05   max: 0.4683E+06   C at   85  2   RLX: 0.000
       a = 10.750      CL = -0.8879
      Cm =  0.1502     CD =  0.63952   =>   CDf =  0.00305    CDp =  0.63647

 Side 1 forced transition at x/c =  1.0000   77
 Side 2  free  transition at x/c =  0.0255   15

 142   rms: 0.4129E+04   max: -.3583E+05   C at   85  2   RLX: 0.000
       a = 10.750      CL = -0.8879
      Cm =  0.1502     CD =  0.63955   =>   CDf =  0.00305    CDp =  0.63650

 Side 1 forced transition at x/c =  1.0000   77
 Side 2  free  transition at x/c =  0.0255   15

 143   rms: 0.1058E+05   max: -.1037E+06   C at   85  2   RLX: 0.000
       a = 10.750      CL = -0.8879
      Cm =  0.1502     CD =  0.63964   =>   CDf =  0.00305    CDp =  0.63659

 Side 1 forced transition at x/c =  1.0000   77
 Side 2  free  transition at x/c =  0.0255   15

 144   rms: 0.5347E+05   max: -.5336E+06   C at   85  2   RLX: 0.000
       a = 10.750      CL = -0.8879
      Cm =  0.1502     CD =  0.63968   =>   CDf =  0.00305    CDp =  0.63663

 Side 1 forced transition at x/c =  1.0000   77
 Side 2  free  transition at x/c =  0.0255   15

 145   rms: 0.3615E+05   max: 0.3623E+06   C at   85  2   RLX: 0.000
       a = 10.750      CL = -0.8879
      Cm =  0.1502     CD =  0.63963   =>   CDf =  0.00305    CDp =  0.63658

 Side 1 forced transition at x/c =  1.0000   77
 Side 2  free  transition at x/c =  0.0255   15

 146   rms: 0.4787E+04   max: -.5091E+05   C at   85  2   RLX: 0.000
       a = 10.750      CL = -0.8880
      Cm =  0.1502     CD =  0.63968   =>   CDf =  0.00305    CDp =  0.63663

 Side 1 forced transition at x/c =  1.0000   77
 Side 2  free  transition at x/c =  0.0255   15

 147   rms: 0.1276E+05   max: -.1279E+06   C at   85  2   RLX: 0.000
       a = 10.750      CL = -0.8880
      Cm =  0.1502     CD =  0.63975   =>   CDf =  0.00305    CDp =  0.63670

 Side 1 forced transition at x/c =  1.0000   77
 Side 2  free  transition at x/c =  0.0255   15

 148   rms: 0.1938E+06   max: -.1946E+07   C at   85  2   RLX: 0.000
       a = 10.750      CL = -0.8880
      Cm =  0.1502     CD =  0.63978   =>   CDf =  0.00305    CDp =  0.63673

 Side 1 forced transition at x/c =  1.0000   77
 Side 2  free  transition at x/c =  0.0255   15

 149   rms: 0.3094E+05   max: 0.3070E+06   C at   85  2   RLX: 0.000
       a = 10.750      CL = -0.8880
      Cm =  0.1502     CD =  0.63972   =>   CDf =  0.00305    CDp =  0.63667

 Side 1 forced transition at x/c =  1.0000   77
 Side 2  free  transition at x/c =  0.0255   15

 150   rms: 0.5716E+04   max: -.5833E+05   C at   85  2   RLX: 0.000
       a = 10.750      CL = -0.8880
      Cm =  0.1502     CD =  0.63978   =>   CDf =  0.00305    CDp =  0.63673

 Side 1 forced transition at x/c =  1.0000   77
 Side 2  free  transition at x/c =  0.0255   15

 151   rms: 0.1682E+05   max: -.1710E+06   C at   85  2   RLX: 0.000
       a = 10.750      CL = -0.8880
      Cm =  0.1502     CD =  0.63984   =>   CDf =  0.00305    CDp =  0.63679

 Side 1 forced transition at x/c =  1.0000   77
 Side 2  free  transition at x/c =  0.0255   15

 152   rms: 0.2011E+06   max: 0.2019E+07   C at   85  2   RLX: 0.000
       a = 10.750      CL = -0.8880
      Cm =  0.1502     CD =  0.63980   =>   CDf =  0.00305    CDp =  0.63675

 Side 1 forced transition at x/c =  1.0000   77
 Side 2  free  transition at x/c =  0.0255   15

 153   rms: 0.2824E+04   max: -.3287E+05   C at   85  2   RLX: 0.000
       a = 10.750      CL = -0.8880
      Cm =  0.1502     CD =  0.63984   =>   CDf =  0.00305    CDp =  0.63679

 Side 1 forced transition at x/c =  1.0000   77
 Side 2  free  transition at x/c =  0.0255   15

 154   rms: 0.6524E+04   max: -.6134E+05   C at   85  2   RLX: 0.000
       a = 10.750      CL = -0.8880
      Cm =  0.1502     CD =  0.63991   =>   CDf =  0.00305    CDp =  0.63686

 Side 1 forced transition at x/c =  1.0000   77
 Side 2  free  transition at x/c =  0.0255   15

 155   rms: 0.2615E+05   max: -.2678E+06   C at   85  2   RLX: 0.000
       a = 10.750      CL = -0.8880
      Cm =  0.1502     CD =  0.63999   =>   CDf =  0.00305    CDp =  0.63694
 VISCAL:  Convergence failed

 Sequence halted since previous  4 points did not converge
 Last-converged  alpha =  -2.500    CL =  -0.86789

.OPERva   c>  
 Polar accumulation disabled

.OPERv   c>  
 XFOIL   c>  
 XFOIL   c>  