  
       XFOIL         Version 6.99
  
 Calculated polar for: KC-135 Winglet (supercritical Whitcomb)         
  
 1 1 Reynolds number fixed          Mach number fixed         
  
 xtrf =   1.000 (top)        1.000 (bottom)  
 Mach =   0.000     Re =     0.150 e 6     Ncrit =   9.000
  
   alpha    CL        CD       CDp       CM     Top_Xtr  Bot_Xtr
  ------ -------- --------- --------- -------- -------- --------
-4.000  -0.2210   0.03322   0.02776  -0.0703   1.0000   0.1184
-2.500   0.0071   0.02090   0.01295  -0.0788   1.0000   0.0481
-2.000   0.0665   0.01988   0.01164  -0.0791   1.0000   0.0414
-1.500   0.1500   0.01801   0.00986  -0.0852   0.9978   0.0406
-1.000   0.2374   0.01730   0.00896  -0.0923   0.9937   0.0509
-0.500   0.2937   0.01614   0.01043  -0.0902   0.9893   0.8553
0.000   0.3340   0.01607   0.01038  -0.0857   0.9775   0.9226
0.500   0.3887   0.01560   0.00990  -0.0853   0.9618   1.0000
1.000   0.4778   0.01553   0.00978  -0.0926   0.9438   1.0000
1.500   0.5869   0.01411   0.00840  -0.1015   0.9195   1.0000
2.000   0.6729   0.01275   0.00715  -0.1054   0.8916   1.0000
2.500   0.7451   0.01189   0.00642  -0.1070   0.8597   1.0000
3.000   0.8075   0.01125   0.00586  -0.1064   0.7991   1.0000
3.500   0.8643   0.01125   0.00551  -0.1048   0.6499   1.0000
4.000   0.8902   0.01521   0.00687  -0.0997   0.2248   1.0000
4.500   0.9371   0.01754   0.00864  -0.0990   0.1541   1.0000
5.000   0.9877   0.01954   0.01055  -0.0985   0.1297   1.0000
5.500   1.0384   0.02141   0.01231  -0.0983   0.1091   1.0000
6.000   1.0896   0.02346   0.01445  -0.0980   0.0931   1.0000
6.500   1.1403   0.02604   0.01728  -0.0972   0.0767   1.0000
7.000   1.1902   0.02960   0.02112  -0.0963   0.0643   1.0000
7.500   1.2378   0.03292   0.02478  -0.0952   0.0574   1.0000
8.000   1.2781   0.03952   0.03213  -0.0930   0.0547   1.0000
8.500   1.3040   0.04696   0.04064  -0.0888   0.0539   1.0000
9.000   1.3107   0.05610   0.05081  -0.0831   0.0538   1.0000
9.500   1.2968   0.06592   0.06149  -0.0766   0.0536   1.0000
10.000   1.2718   0.07671   0.07275  -0.0712   0.0549   1.0000
10.250   1.1766   0.08859   0.08529  -0.0665   0.0644   1.0000
10.500   1.1592   0.09447   0.09124  -0.0670   0.0659   1.0000
10.750   0.9714   0.09260   0.08957  -0.0526   0.0642   1.0000
11.000   0.9348   0.10192   0.09894  -0.0572   0.0656   1.0000
11.500   0.8032   0.13656   0.13342  -0.0783   0.0997   1.0000
11.750   0.8028   0.13967   0.13654  -0.0786   0.0978   1.0000
12.000   0.8115   0.14233   0.13925  -0.0778   0.0963   1.0000
12.250   0.8448   0.14612   0.14312  -0.0732   0.0946   1.0000
12.500   0.8181   0.15096   0.14792  -0.0779   0.0943   1.0000
12.750   0.7805   0.15523   0.15212  -0.0848   0.0920   1.0000
13.000   0.7729   0.15866   0.15555  -0.0871   0.0888   1.0000
13.250   0.7726   0.16178   0.15867  -0.0882   0.0863   1.0000
13.500   0.7795   0.16461   0.16153  -0.0883   0.0838   1.0000
13.750   0.8144   0.16972   0.16673  -0.0836   0.0809   1.0000
14.000   0.7992   0.17310   0.17008  -0.0874   0.0805   1.0000
14.250   0.7765   0.17539   0.17234  -0.0925   0.0790   1.0000
14.500   0.7704   0.17838   0.17533  -0.0950   0.0758   1.0000
14.750   0.7719   0.18147   0.17844  -0.0962   0.0730   1.0000
15.000   0.7786   0.18439   0.18139  -0.0964   0.0703   1.0000
15.250   0.8038   0.19119   0.18825  -0.0936   0.0675   1.0000
15.500   0.7892   0.19311   0.19013  -0.0975   0.0670   1.0000
15.750   0.7769   0.19507   0.19208  -0.1013   0.0646   1.0000
16.000   0.7779   0.19814   0.19516  -0.1028   0.0606   1.0000
