
 ===================================================
  XFOIL Version 6.99
  Copyright (C) 2000   Mark Drela, Harold Youngren

  This software comes with ABSOLUTELY NO WARRANTY,
    subject to the GNU General Public License.

  Caveat computor
 ===================================================

 File  xfoil.def  not found

   QUIT    Exit program

  .OPER    Direct operating point(s)
  .MDES    Complex mapping design routine
  .QDES    Surface speed design routine
  .GDES    Geometry design routine

   SAVE f  Write airfoil to labeled coordinate file
   PSAV f  Write airfoil to plain coordinate file
   ISAV f  Write airfoil to ISES coordinate file
   MSAV f  Write airfoil to MSES coordinate file
   REVE    Reverse written-airfoil node ordering

   LOAD f  Read buffer airfoil from coordinate file
   NACA i  Set NACA 4,5-digit airfoil and buffer airfoil
   INTE    Set buffer airfoil by interpolating two airfoils
   NORM    Buffer airfoil normalization toggle
   XYCM rr Change CM reference location, currently  0.25000 0.00000

   BEND    Display structural properties of current airfoil

   PCOP    Set current-airfoil panel nodes directly from buffer airfoil points
   PANE    Set current-airfoil panel nodes ( 160 ) based on curvature
  .PPAR    Show/change paneling

  .PLOP    Plotting options

   WDEF f  Write  current-settings file
   RDEF f  Reread current-settings file
   NAME s  Specify new airfoil name
   NINC    Increment name version number

   Z       Zoom    | (available in all menus)
   U       Unzoom  | 

 XFOIL   c>  
 Labeled airfoil file.  Name:   LOCKHEED L-188 TIP AIRFOIL                     

 Number of input coordinate points:  91
 Counterclockwise ordering
 Max thickness =     0.119894  at x =   0.413
 Max camber    =     0.026577  at x =   0.517

  LE  x,y  =  -0.00000   0.00009  |   Chord =   1.00000
  TE  x,y  =   1.00000   0.00000  |

 Current airfoil nodes set from buffer airfoil nodes (  91 )

 XFOIL   c>  
 XFOIL   c>  
 Blunt trailing edge.  Gap =  0.00240

 Paneling parameters used...
   Number of panel nodes       160
   Panel bunching parameter    1.000
   TE/LE panel density ratio   0.150
   Refined-area/LE panel density ratio    0.200
   Top    side refined area x/c limits  1.000 1.000
   Bottom side refined area x/c limits  1.000 1.000

 XFOIL   c>  
.OPERi   c>  
 Xtr/c     =  1.0000    top    side
 Xtr/c     =  1.0000    bottom side
 Ncrit     =    9.00   ( 0.070 % turb. level )
 Vacc      =  0.0100

 Klag  =  5.6000     Uxwt  =    1.00
 A     =  6.7000     B     =  0.7500       KCt = 0.01485
 CtiniK=  1.8000     CtiniX=  3.3000

..VPAR   c>  
..VPAR   c>  
.OPERi   c>  
 M  =    0.0000
 Re =    200000

.OPERv   c>  
.OPERv   c>  
.OPERv   c>  
 Polar  1 newly created for accumulation
 Airfoil archived with polar: LOCKHEED L-188 TIP AIRFOIL                      

Enter  polar save filename  OR  <return> for no file   s>  
 New polar save file available

Enter  polar dump filename  OR  <return> for no file   s>  
 Polar dump file will NOT be written

 Polar accumulation enabled

.OPERva   c>   Calculating unit vorticity distributions ...
 Calculating wake trajectory ...
 Calculating source influence matrix ...

 Solving BL system ...

 Initializing BL ...
    side            1  ...
 MRCHUE: Inverse mode at  62     Hk =   3.986
 MRCHUE: Inverse mode at  63     Hk =   4.347
 MRCHUE: Inverse mode at  64     Hk =   4.702
 MRCHUE: Inverse mode at  65     Hk =   5.056
 MRCHUE: Inverse mode at  66     Hk =   5.412
 MRCHUE: Inverse mode at  67     Hk =   5.766
 MRCHUE: Inverse mode at  68     Hk =   6.119
 MRCHUE: Inverse mode at  69     Hk =   6.471
 MRCHUE: Inverse mode at  70     Hk =   6.820
 MRCHUE: Inverse mode at  71     Hk =   7.166
 MRCHUE: Inverse mode at  72     Hk =   7.502
 MRCHUE: Inverse mode at  73     Hk =   7.823
 MRCHUE: Inverse mode at  74     Hk =   8.118
 MRCHUE: Inverse mode at  75     Hk =   8.378
 MRCHUE: Inverse mode at  76     Hk =   8.597
 MRCHUE: Inverse mode at  77     Hk =   8.721
    side            2  ...
 MRCHUE: Inverse mode at  19     Hk =   3.800
 MRCHUE: Inverse mode at  20     Hk =   4.382
 MRCHUE: Inverse mode at  21     Hk =   4.978
 MRCHUE: Inverse mode at  22     Hk =   5.603
 MRCHUE: Inverse mode at  23     Hk =   6.273
 MRCHUE: Inverse mode at  24     Hk =   7.002
 MRCHUE: Inverse mode at  25     Hk =   7.799
 MRCHUE: Inverse mode at  26     Hk =   8.667
 MRCHUE: Inverse mode at  27     Hk =   9.598
 MRCHUE: Inverse mode at  28     Hk =   8.873
 MRCHUE: Inverse mode at  29     Hk =   4.845
 MRCHUE: Inverse mode at  30     Hk =   2.864
 MRCHUE: Inverse mode at  85     Hk =   2.500

 Side 1 forced transition at x/c =  1.0000   77
 Side 2  free  transition at x/c =  0.0883   28
 idif Ue xi dudx           1  0.19383882      3.47268581E-03   55.818127    
 Uenew xinew           2  5.76439425E-02  1.03271008E-03

   1   rms: 0.6513E+00   max: 0.4498E+01   T at   28  2   RLX: 0.182
       a = -4.000      CL = -0.1971
      Cm = -0.0858     CD =  0.01049   =>   CDf =  0.00815    CDp =  0.00234

 Side 1  free  transition at x/c =  0.9852   75
 Side 2  free  transition at x/c =  0.0765   28

   2   rms: 0.2270E+00   max: 0.1633E+01   T at   75  1   RLX: 0.548
       a = -4.000      CL = -0.1718
      Cm = -0.0817     CD =  0.01491   =>   CDf =  0.00809    CDp =  0.00682

 MRCHDU: Convergence failed at  30  side 2    Res =  0.7367E+00
 MRCHDU: Convergence failed at  31  side 2    Res =  0.1025E+01
 MRCHDU: Convergence failed at  32  side 2    Res =  0.1643E+01
 MRCHDU: Convergence failed at  33  side 2    Res =  0.2762E+01
 MRCHDU: Convergence failed at  34  side 2    Res =  0.5319E+01
 MRCHDU: Convergence failed at  35  side 2    Res =  0.1048E+02
 MRCHDU: Convergence failed at  36  side 2    Res =  0.2860E+02
 MRCHDU: Convergence failed at  37  side 2    Res =  0.1545E+03
 MRCHDU: Convergence failed at  38  side 2    Res =  0.2713E+02
 MRCHDU: Convergence failed at  39  side 2    Res =  0.1792E+02
 MRCHDU: Convergence failed at  40  side 2    Res =  0.1459E+02
 MRCHDU: Convergence failed at  41  side 2    Res =  0.1253E+02
 MRCHDU: Convergence failed at  42  side 2    Res =  0.1151E+02
 MRCHDU: Convergence failed at  43  side 2    Res =  0.1101E+02
 MRCHDU: Convergence failed at  44  side 2    Res =  0.1075E+02
 MRCHDU: Convergence failed at  45  side 2    Res =  0.1071E+02
 MRCHDU: Convergence failed at  46  side 2    Res =  0.1075E+02
 MRCHDU: Convergence failed at  47  side 2    Res =  0.1094E+02
 MRCHDU: Convergence failed at  48  side 2    Res =  0.1133E+02
 MRCHDU: Convergence failed at  49  side 2    Res =  0.1191E+02
 MRCHDU: Convergence failed at  50  side 2    Res =  0.1280E+02
 MRCHDU: Convergence failed at  51  side 2    Res =  0.1366E+02
 MRCHDU: Convergence failed at  52  side 2    Res =  0.1471E+02
 MRCHDU: Convergence failed at  53  side 2    Res =  0.1609E+02
 MRCHDU: Convergence failed at  54  side 2    Res =  0.1788E+02
 MRCHDU: Convergence failed at  55  side 2    Res =  0.2020E+02
 MRCHDU: Convergence failed at  56  side 2    Res =  0.2396E+02
 MRCHDU: Convergence failed at  57  side 2    Res =  0.3029E+02
 MRCHDU: Convergence failed at  58  side 2    Res =  0.3899E+02
 MRCHDU: Convergence failed at  59  side 2    Res =  0.5513E+02
 MRCHDU: Convergence failed at  60  side 2    Res =  0.9438E+02
 MRCHDU: Convergence failed at  61  side 2    Res =  0.3493E+03
 MRCHDU: Convergence failed at  62  side 2    Res =  0.1249E+03
 MRCHDU: Convergence failed at  63  side 2    Res =  0.6269E+02
 MRCHDU: Convergence failed at  64  side 2    Res =  0.4236E+02
 MRCHDU: Convergence failed at  65  side 2    Res =  0.2792E+02
 MRCHDU: Convergence failed at  66  side 2    Res =  0.2062E+02
 MRCHDU: Convergence failed at  67  side 2    Res =  0.1614E+02
 MRCHDU: Convergence failed at  68  side 2    Res =  0.1307E+02
 MRCHDU: Convergence failed at  69  side 2    Res =  0.1179E+02
 MRCHDU: Convergence failed at  70  side 2    Res =  0.9989E+01
 MRCHDU: Convergence failed at  71  side 2    Res =  0.8131E+01
 MRCHDU: Convergence failed at  72  side 2    Res =  0.7243E+01
 MRCHDU: Convergence failed at  73  side 2    Res =  0.7050E+01
 MRCHDU: Convergence failed at  74  side 2    Res =  0.7161E+01
 MRCHDU: Convergence failed at  75  side 2    Res =  0.7348E+01
 MRCHDU: Convergence failed at  76  side 2    Res =  0.7449E+01
 MRCHDU: Convergence failed at  77  side 2    Res =  0.7513E+01
 MRCHDU: Convergence failed at  78  side 2    Res =  0.7544E+01
 MRCHDU: Convergence failed at  79  side 2    Res =  0.7511E+01
 MRCHDU: Convergence failed at  80  side 2    Res =  0.2259E+02
 MRCHDU: Convergence failed at  81  side 2    Res =  0.2641E+02
 MRCHDU: Convergence failed at  82  side 2    Res =  0.1845E+02
 MRCHDU: Convergence failed at  83  side 2    Res =  0.3583E+02
 MRCHDU: Convergence failed at  84  side 2    Res =  0.2222E+02
 MRCHDU: Convergence failed at  85  side 2    Res =  0.2675E+02
 MRCHDU: Convergence failed at  86  side 2    Res =  0.2626E+03
 Side 1  free  transition at x/c =  0.9637   73
 Side 2  free  transition at x/c =  0.0851   29

   3   rms: 0.5340E+00   max: 0.1930E+01   D at   89  2   RLX: 0.777
       a = -4.000      CL = -0.3048
      Cm = -0.0245     CD =  0.01100   =>   CDf =  0.00385    CDp =  0.00715

 MRCHDU: Convergence failed at  88  side 2    Res =  0.2110E+01
 MRCHDU: Convergence failed at  89  side 2    Res =  0.2386E+01
 MRCHDU: Convergence failed at  90  side 2    Res =  0.3078E+02
 MRCHDU: Convergence failed at  91  side 2    Res =  0.3253E+01
 MRCHDU: Convergence failed at  92  side 2    Res =  0.1479E+01
 Side 1  free  transition at x/c =  0.9592   74
 Side 2  free  transition at x/c =  0.0886   28

   4   rms: 0.1520E+00   max: 0.6822E+00   T at   74  1
       a = -4.000      CL = -0.1440
      Cm = -0.0806     CD =  0.01782   =>   CDf =  0.00904    CDp =  0.00878

 Side 1  free  transition at x/c =  0.9446   73
 Side 2  free  transition at x/c =  0.0890   28
 idif Ue xi dudx           1  0.16011475      2.84528732E-03   56.273666    
 Uenew xinew           2  2.28083692E-02  4.05311584E-04

   5   rms: 0.6338E-01   max: 0.5407E+00   T at   73  1
       a = -4.000      CL = -0.1797
      Cm = -0.0730     CD =  0.01970   =>   CDf =  0.00808    CDp =  0.01162

 Side 1  free  transition at x/c =  0.9328   71
 Side 2  free  transition at x/c =  0.0837   29

   6   rms: 0.2002E-01   max: -.2375E+00   D at   71  1
       a = -4.000      CL = -0.1908
      Cm = -0.0707     CD =  0.01963   =>   CDf =  0.00805    CDp =  0.01158

 Side 1  free  transition at x/c =  0.9291   71
 Side 2  free  transition at x/c =  0.0824   29

   7   rms: 0.1019E-01   max: -.6503E-01   T at   71  1
       a = -4.000      CL = -0.1858
      Cm = -0.0717     CD =  0.01948   =>   CDf =  0.00806    CDp =  0.01142

 Side 1  free  transition at x/c =  0.9307   71
 Side 2  free  transition at x/c =  0.0830   29

   8   rms: 0.1089E-02   max: -.6583E-02   D at   71  1
       a = -4.000      CL = -0.1853
      Cm = -0.0718     CD =  0.01949   =>   CDf =  0.00805    CDp =  0.01143

 Side 1  free  transition at x/c =  0.9308   71
 Side 2  free  transition at x/c =  0.0831   29

   9   rms: 0.1261E-04   max: -.9458E-04   T at   71  1
       a = -4.000      CL = -0.1853
      Cm = -0.0718     CD =  0.01949   =>   CDf =  0.00805    CDp =  0.01143
 plradd ia,ip,cpol            1           0  6.24765968E-03

 Point added to stored polar  1
 Point written to save file  l188tip_Re200k.base.pol                         
 Dump file unspecified or not available
 Calculating wake trajectory ...
 Calculating source influence matrix ...

 Solving BL system ...

 Side 1  free  transition at x/c =  0.9308   71
 Side 2  free  transition at x/c =  0.0831   29

   1   rms: 0.1138E+00   max: -.9259E+00   T at   29  2   RLX: 0.540
       a = -3.500      CL = -0.1467
      Cm = -0.0738     CD =  0.01890   =>   CDf =  0.00805    CDp =  0.01086

 Side 1  free  transition at x/c =  0.9280   72
 Side 2  free  transition at x/c =  0.0928   29

   2   rms: 0.1491E+00   max: -.9016E+00   T at   29  2   RLX: 0.555
       a = -3.500      CL = -0.1284
      Cm = -0.0749     CD =  0.01804   =>   CDf =  0.00817    CDp =  0.00987

 Side 1  free  transition at x/c =  0.9276   72
 Side 2  free  transition at x/c =  0.1016   29

   3   rms: 0.4476E-01   max: -.2313E+00   T at   29  2
       a = -3.500      CL = -0.1089
      Cm = -0.0762     CD =  0.01839   =>   CDf =  0.00805    CDp =  0.01035

 Side 1  free  transition at x/c =  0.9269   72
 Side 2  free  transition at x/c =  0.1071   30

   4   rms: 0.5234E-02   max: -.7189E-01   D at   29  2
       a = -3.500      CL = -0.1091
      Cm = -0.0763     CD =  0.01833   =>   CDf =  0.00803    CDp =  0.01030

 Side 1  free  transition at x/c =  0.9269   72
 Side 2  free  transition at x/c =  0.1072   30

   5   rms: 0.5478E-03   max: 0.5479E-02   D at   30  2
       a = -3.500      CL = -0.1091
      Cm = -0.0763     CD =  0.01833   =>   CDf =  0.00800    CDp =  0.01033

 Side 1  free  transition at x/c =  0.9269   72
 Side 2  free  transition at x/c =  0.1071   30

   6   rms: 0.2935E-05   max: -.2256E-04   D at   87  2
       a = -3.500      CL = -0.1091
      Cm = -0.0763     CD =  0.01833   =>   CDf =  0.00800    CDp =  0.01033
 plradd ia,ip,cpol            2           0  6.24765968E-03

 Point added to stored polar  1
 Point written to save file  l188tip_Re200k.base.pol                         
 Dump file unspecified or not available
 Calculating wake trajectory ...
 Calculating source influence matrix ...

 Solving BL system ...

 Side 1  free  transition at x/c =  0.9269   72
 Side 2  free  transition at x/c =  0.1071   30

   1   rms: 0.1762E+00   max: -.1414E+01   T at   30  2   RLX: 0.354
       a = -3.000      CL = -0.0827
      Cm = -0.0781     CD =  0.01752   =>   CDf =  0.00800    CDp =  0.00952

 Side 1  free  transition at x/c =  0.9260   71
 Side 2  free  transition at x/c =  0.1201   31

   2   rms: 0.3622E+00   max: -.1900E+01   T at   31  2   RLX: 0.263
       a = -3.000      CL = -0.0642
      Cm = -0.0804     CD =  0.01668   =>   CDf =  0.00805    CDp =  0.00863

 Side 1  free  transition at x/c =  0.9285   72
 Side 2  free  transition at x/c =  0.1392   32

   3   rms: 0.8640E-01   max: -.5698E+00   T at   32  2   RLX: 0.878
       a = -3.000      CL = -0.0373
      Cm = -0.0813     CD =  0.01671   =>   CDf =  0.00785    CDp =  0.00886

 Side 1  free  transition at x/c =  0.9245   72
 Side 2  free  transition at x/c =  0.1556   32

   4   rms: 0.2094E+00   max: -.1744E+01   T at   32  2   RLX: 0.287
       a = -3.000      CL = -0.0117
      Cm = -0.0863     CD =  0.01637   =>   CDf =  0.00788    CDp =  0.00849

 Side 1  free  transition at x/c =  0.9324   73
 Side 2  free  transition at x/c =  0.1675   33

   5   rms: 0.9054E-01   max: -.5144E+00   D at   32  2   RLX: 0.972
       a = -3.000      CL = -0.0332
      Cm = -0.0811     CD =  0.01664   =>   CDf =  0.00792    CDp =  0.00872

 Side 1  free  transition at x/c =  0.9236   72
 Side 2  free  transition at x/c =  0.1852   34

   6   rms: 0.6868E+00   max: -.8496E+01   C at   34  2   RLX: 0.059
       a = -3.000      CL = -0.0184
      Cm = -0.0855     CD =  0.01603   =>   CDf =  0.00758    CDp =  0.00845

 Side 1  free  transition at x/c =  0.9290   73
 Side 2  free  transition at x/c =  0.2029   35

   7   rms: 0.6715E-01   max: -.4830E+00   D at   35  2
       a = -3.000      CL = -0.0303
      Cm = -0.0815     CD =  0.01706   =>   CDf =  0.00750    CDp =  0.00956

 Side 1  free  transition at x/c =  0.9240   72
 Side 2  free  transition at x/c =  0.1741   33

   8   rms: 0.2834E+00   max: -.2169E+01   C at   33  2   RLX: 0.231
       a = -3.000      CL =  0.0083
      Cm = -0.0897     CD =  0.01588   =>   CDf =  0.00763    CDp =  0.00825

 Side 1  free  transition at x/c =  0.9380   73
 Side 2  free  transition at x/c =  0.2176   36

   9   rms: 0.1224E+00   max: 0.7942E+00   D at   75  1
       a = -3.000      CL = -0.0239
      Cm = -0.0829     CD =  0.01654   =>   CDf =  0.00750    CDp =  0.00904

 Side 1  free  transition at x/c =  0.9256   72
 Side 2  free  transition at x/c =  0.1928   34

  10   rms: 0.9448E-01   max: -.1128E+01   C at   34  2   RLX: 0.443
       a = -3.000      CL =  0.0002
      Cm = -0.0884     CD =  0.01614   =>   CDf =  0.00752    CDp =  0.00862

 Side 1  free  transition at x/c =  0.9348   73
 Side 2  free  transition at x/c =  0.2173   36

  11   rms: 0.1208E+00   max: 0.7596E+00   C at   36  2   RLX: 0.751
       a = -3.000      CL = -0.0256
      Cm = -0.0828     CD =  0.01628   =>   CDf =  0.00745    CDp =  0.00883

 Side 1  free  transition at x/c =  0.9251   72
 Side 2  free  transition at x/c =  0.1836   34

  12   rms: 0.1364E+00   max: -.1103E+01   C at   34  2   RLX: 0.453
       a = -3.000      CL =  0.0069
      Cm = -0.0895     CD =  0.01591   =>   CDf =  0.00757    CDp =  0.00834

 Side 1  free  transition at x/c =  0.9374   73
 Side 2  free  transition at x/c =  0.2147   35

  13   rms: 0.1254E+00   max: -.8752E+00   C at   35  2   RLX: 0.571
       a = -3.000      CL = -0.0140
      Cm = -0.0858     CD =  0.01492   =>   CDf =  0.00750    CDp =  0.00742

 Side 1  free  transition at x/c =  0.9290   73
 Side 2  free  transition at x/c =  0.1910   34

  14   rms: 0.4939E-01   max: -.3540E+00   D at   35  2
       a = -3.000      CL = -0.0328
      Cm = -0.0812     CD =  0.01686   =>   CDf =  0.00754    CDp =  0.00932

 Side 1  free  transition at x/c =  0.9237   72
 Side 2  free  transition at x/c =  0.1704   33

  15   rms: 0.3127E+00   max: -.2392E+01   T at   33  2   RLX: 0.209
       a = -3.000      CL =  0.0075
      Cm = -0.0896     CD =  0.01604   =>   CDf =  0.00765    CDp =  0.00839

 Side 1  free  transition at x/c =  0.9378   73
 Side 2  free  transition at x/c =  0.2007   35

  16   rms: 0.1157E+00   max: 0.7882E+00   D at   75  1
       a = -3.000      CL = -0.0247
      Cm = -0.0827     CD =  0.01659   =>   CDf =  0.00760    CDp =  0.00899

 Side 1  free  transition at x/c =  0.9254   72
 Side 2  free  transition at x/c =  0.1881   34

  17   rms: 0.1189E+00   max: -.1463E+01   C at   34  2   RLX: 0.342
       a = -3.000      CL = -0.0038
      Cm = -0.0877     CD =  0.01611   =>   CDf =  0.00753    CDp =  0.00858

 Side 1  free  transition at x/c =  0.9332   73
 Side 2  free  transition at x/c =  0.2066   35

  18   rms: 0.9464E-01   max: 0.5742E+00   D at   76  1   RLX: 0.974
       a = -3.000      CL = -0.0358
      Cm = -0.0806     CD =  0.01681   =>   CDf =  0.00748    CDp =  0.00933

 Side 1  free  transition at x/c =  0.9228   72
 Side 2  free  transition at x/c =  0.1692   33
 idif Ue xi dudx           1  0.14912689      2.35521793E-03   63.317661    
 Uenew xinew           2  4.24955413E-03  6.71148300E-05

  19   rms: 0.1448E+02   max: 0.1424E+03   T at   33  2   RLX: 0.008
       a = -3.000      CL = -0.0972
      Cm = -0.0684     CD =  0.01798   =>   CDf =  0.00771    CDp =  0.01027

 MRCHDU: Convergence failed at  34  side 2    Res =  0.2143E+01
 Side 1  free  transition at x/c =  0.9058   70
 Side 2  free  transition at x/c =  0.1350   31

  20   rms: 0.1685E+00   max: -.1713E+01   T at    2  2   RLX: 0.292
       a = -3.000      CL = -0.0757
      Cm = -0.0727     CD =  0.01994   =>   CDf =  0.00813    CDp =  0.01181

 Side 1  free  transition at x/c =  0.9132   72
 Side 2  free  transition at x/c =  0.1489   31

  21   rms: 0.3558E-01   max: 0.4011E+00   D at   32  2
       a = -3.000      CL = -0.0600
      Cm = -0.0755     CD =  0.01744   =>   CDf =  0.00795    CDp =  0.00949

 Side 1  free  transition at x/c =  0.9149   72
 Side 2  free  transition at x/c =  0.1508   31

  22   rms: 0.9597E-02   max: -.1466E+00   C at   31  2
       a = -3.000      CL = -0.0592
      Cm = -0.0756     CD =  0.01746   =>   CDf =  0.00783    CDp =  0.00963

 Side 1  free  transition at x/c =  0.9152   72
 Side 2  free  transition at x/c =  0.1501   31

  23   rms: 0.7097E-03   max: 0.1013E-01   C at   31  2
       a = -3.000      CL = -0.0591
      Cm = -0.0757     CD =  0.01747   =>   CDf =  0.00779    CDp =  0.00967

 Side 1  free  transition at x/c =  0.9152   72
 Side 2  free  transition at x/c =  0.1499   31

  24   rms: 0.3106E-05   max: 0.3580E-04   T at   31  2
       a = -3.000      CL = -0.0591
      Cm = -0.0757     CD =  0.01747   =>   CDf =  0.00780    CDp =  0.00967
 plradd ia,ip,cpol            3           0  8.30197241E-03

 Point added to stored polar  1
 Point written to save file  l188tip_Re200k.base.pol                         
 Dump file unspecified or not available
 Calculating wake trajectory ...
 Calculating source influence matrix ...

 Solving BL system ...

 Side 1  free  transition at x/c =  0.9152   72
 Side 2  free  transition at x/c =  0.1499   31

   1   rms: 0.1433E+00   max: -.1454E+01   T at   31  2   RLX: 0.344
       a = -2.500      CL = -0.0340
      Cm = -0.0769     CD =  0.01724   =>   CDf =  0.00780    CDp =  0.00944

 MRCHDU: Convergence failed at  34  side 2    Res =  0.6545E+01
 MRCHDU: Convergence failed at  35  side 2    Res =  0.2391E+01
 MRCHDU: Convergence failed at  36  side 2    Res =  0.3075E+01
 MRCHDU: Convergence failed at  37  side 2    Res =  0.3219E+01
 MRCHDU: Convergence failed at  38  side 2    Res =  0.3156E+01
 MRCHDU: Convergence failed at  39  side 2    Res =  0.3078E+01
 MRCHDU: Convergence failed at  40  side 2    Res =  0.3036E+01
 MRCHDU: Convergence failed at  41  side 2    Res =  0.3037E+01
 MRCHDU: Convergence failed at  42  side 2    Res =  0.3128E+01
 MRCHDU: Convergence failed at  43  side 2    Res =  0.3270E+01
 MRCHDU: Convergence failed at  44  side 2    Res =  0.3373E+01
 MRCHDU: Convergence failed at  45  side 2    Res =  0.3443E+01
 MRCHDU: Convergence failed at  46  side 2    Res =  0.3804E+01
 MRCHDU: Convergence failed at  47  side 2    Res =  0.3664E+01
 MRCHDU: Convergence failed at  48  side 2    Res =  0.3680E+01
 MRCHDU: Convergence failed at  49  side 2    Res =  0.3733E+01
 MRCHDU: Convergence failed at  50  side 2    Res =  0.3780E+01
 MRCHDU: Convergence failed at  51  side 2    Res =  0.3838E+01
 MRCHDU: Convergence failed at  52  side 2    Res =  0.3908E+01
 MRCHDU: Convergence failed at  53  side 2    Res =  0.3985E+01
 MRCHDU: Convergence failed at  54  side 2    Res =  0.4067E+01
 MRCHDU: Convergence failed at  55  side 2    Res =  0.4157E+01
 MRCHDU: Convergence failed at  56  side 2    Res =  0.4269E+01
 MRCHDU: Convergence failed at  57  side 2    Res =  0.4361E+01
 MRCHDU: Convergence failed at  58  side 2    Res =  0.4451E+01
 MRCHDU: Convergence failed at  59  side 2    Res =  0.4560E+01
 MRCHDU: Convergence failed at  60  side 2    Res =  0.4645E+01
 MRCHDU: Convergence failed at  61  side 2    Res =  0.4724E+01
 MRCHDU: Convergence failed at  62  side 2    Res =  0.4810E+01
 MRCHDU: Convergence failed at  63  side 2    Res =  0.4876E+01
 MRCHDU: Convergence failed at  64  side 2    Res =  0.4934E+01
 MRCHDU: Convergence failed at  65  side 2    Res =  0.4970E+01
 MRCHDU: Convergence failed at  66  side 2    Res =  0.5001E+01
 MRCHDU: Convergence failed at  67  side 2    Res =  0.5022E+01
 MRCHDU: Convergence failed at  68  side 2    Res =  0.5018E+01
 MRCHDU: Convergence failed at  69  side 2    Res =  0.5006E+01
 MRCHDU: Convergence failed at  70  side 2    Res =  0.5032E+01
 MRCHDU: Convergence failed at  71  side 2    Res =  0.5106E+01
 MRCHDU: Convergence failed at  72  side 2    Res =  0.5269E+01
 MRCHDU: Convergence failed at  73  side 2    Res =  0.5461E+01
 MRCHDU: Convergence failed at  74  side 2    Res =  0.5633E+01
 MRCHDU: Convergence failed at  75  side 2    Res =  0.5785E+01
 MRCHDU: Convergence failed at  76  side 2    Res =  0.5912E+01
 MRCHDU: Convergence failed at  77  side 2    Res =  0.5999E+01
 MRCHDU: Convergence failed at  78  side 2    Res =  0.6029E+01
 MRCHDU: Convergence failed at  79  side 2    Res =  0.6000E+01
 MRCHDU: Convergence failed at  80  side 2    Res =  0.5896E+01
 MRCHDU: Convergence failed at  81  side 2    Res =  0.6290E+01
 MRCHDU: Convergence failed at  82  side 2    Res =  0.6793E+01
 MRCHDU: Convergence failed at  83  side 2    Res =  0.7562E+01
 MRCHDU: Convergence failed at  84  side 2    Res =  0.7946E+01
 Side 1  free  transition at x/c =  0.9133   72
 Side 2  free  transition at x/c =  0.1932   34

   2   rms: 0.3613E+00   max: -.1528E+01   D at   41  2   RLX: 0.327
       a = -2.500      CL = -0.1874
      Cm = -0.0034     CD =  0.01301   =>   CDf =  0.00362    CDp =  0.00939

 Side 1  free  transition at x/c =  0.9134   72
 Side 2  free  transition at x/c =  0.3622   44

   3   rms: 0.2283E+00   max: -.3792E+01   C at   44  2   RLX: 0.132
       a = -2.500      CL = -0.1566
      Cm = -0.0167     CD =  0.01418   =>   CDf =  0.00797    CDp =  0.00621

 Side 1  free  transition at x/c =  0.9131   72
 Side 2  free  transition at x/c =  0.3868   46

   4   rms: 0.6019E+00   max: -.1104E+02   C at   46  2   RLX: 0.045
       a = -2.500      CL = -0.1482
      Cm = -0.0198     CD =  0.01411   =>   CDf =  0.00763    CDp =  0.00648

 Side 1  free  transition at x/c =  0.9130   72
 Side 2  free  transition at x/c =  0.3959   46

   5   rms: 0.9378E+00   max: -.1540E+02   C at   46  2   RLX: 0.032
       a = -2.500      CL = -0.1431
      Cm = -0.0218     CD =  0.01408   =>   CDf =  0.00746    CDp =  0.00662

 Side 1  free  transition at x/c =  0.9130   72
 Side 2  free  transition at x/c =  0.4022   47

   6   rms: 0.7464E+00   max: -.1332E+02   C at   47  2   RLX: 0.038
       a = -2.500      CL = -0.1362
      Cm = -0.0243     CD =  0.01411   =>   CDf =  0.00744    CDp =  0.00668

 Side 1  free  transition at x/c =  0.9129   72
 Side 2  free  transition at x/c =  0.4193   48

   7   rms: 0.1569E+01   max: -.2658E+02   C at   48  2   RLX: 0.019
       a = -2.500      CL = -0.1334
      Cm = -0.0255     CD =  0.01405   =>   CDf =  0.00728    CDp =  0.00678

 Side 1  free  transition at x/c =  0.9129   72
 Side 2  free  transition at x/c =  0.4388   49

   8   rms: 0.1891E+01   max: -.3088E+02   C at   49  2   RLX: 0.016
       a = -2.500      CL = -0.1312
      Cm = -0.0264     CD =  0.01400   =>   CDf =  0.00716    CDp =  0.00685

 Side 1  free  transition at x/c =  0.9129   72
 Side 2  free  transition at x/c =  0.4630   51

   9   rms: 0.1635E+01   max: -.2773E+02   C at   51  2   RLX: 0.018
       a = -2.500      CL = -0.1290
      Cm = -0.0274     CD =  0.01394   =>   CDf =  0.00704    CDp =  0.00691

 Side 1  free  transition at x/c =  0.9129   72
 Side 2  free  transition at x/c =  0.4931   52

  10   rms: 0.1743E+01   max: -.2844E+02   C at   52  2   RLX: 0.018
       a = -2.500      CL = -0.1268
      Cm = -0.0283     CD =  0.01389   =>   CDf =  0.00691    CDp =  0.00698

 Side 1  free  transition at x/c =  0.9129   72
 Side 2  free  transition at x/c =  0.5025   53

  11   rms: 0.7791E+00   max: -.1316E+02   C at   53  2   RLX: 0.038
       a = -2.500      CL = -0.1214
      Cm = -0.0304     CD =  0.01390   =>   CDf =  0.00686    CDp =  0.00704

 Side 1  free  transition at x/c =  0.9129   72
 Side 2  free  transition at x/c =  0.5213   54

  12   rms: 0.5025E+00   max: -.8403E+01   C at   54  2   RLX: 0.060
       a = -2.500      CL = -0.1137
      Cm = -0.0335     CD =  0.01390   =>   CDf =  0.00675    CDp =  0.00715

 Side 1  free  transition at x/c =  0.9128   72
 Side 2  free  transition at x/c =  0.5535   56

  13   rms: 0.3149E+00   max: -.5109E+01   C at   56  2   RLX: 0.098
       a = -2.500      CL = -0.1025
      Cm = -0.0379     CD =  0.01389   =>   CDf =  0.00655    CDp =  0.00733

 Side 1  free  transition at x/c =  0.9126   72
 Side 2  free  transition at x/c =  0.5669   57

  14   rms: 0.1326E+00   max: -.1652E+01   C at   57  2   RLX: 0.303
       a = -2.500      CL = -0.0691
      Cm = -0.0507     CD =  0.01409   =>   CDf =  0.00642    CDp =  0.00767

 Side 1  free  transition at x/c =  0.9122   72
 Side 2  free  transition at x/c =  0.5902   58

  15   rms: 0.6820E-01   max: -.7586E-01   U at   84  2
       a = -2.500      CL =  0.0068
      Cm = -0.0790     CD =  0.01480   =>   CDf =  0.00616    CDp =  0.00863

 Side 1  free  transition at x/c =  0.9113   72
 Side 2  free  transition at x/c =  0.5619   57

  16   rms: 0.9633E-02   max: -.1207E+00   D at   58  2
       a = -2.500      CL =  0.0093
      Cm = -0.0796     CD =  0.01505   =>   CDf =  0.00593    CDp =  0.00912

 Side 1  free  transition at x/c =  0.9114   72
 Side 2  free  transition at x/c =  0.5555   56

  17   rms: 0.6735E-03   max: 0.1001E-01   C at   56  2
       a = -2.500      CL =  0.0094
      Cm = -0.0796     CD =  0.01506   =>   CDf =  0.00593    CDp =  0.00913

 Side 1  free  transition at x/c =  0.9114   72
 Side 2  free  transition at x/c =  0.5547   56

  18   rms: 0.2620E-05   max: -.3402E-04   D at   58  2
       a = -2.500      CL =  0.0094
      Cm = -0.0796     CD =  0.01506   =>   CDf =  0.00593    CDp =  0.00913
 plradd ia,ip,cpol            4           0  8.30197241E-03

 Point added to stored polar  1
 Point written to save file  l188tip_Re200k.base.pol                         
 Dump file unspecified or not available
 Calculating wake trajectory ...
 Calculating source influence matrix ...

 Solving BL system ...

 Side 1  free  transition at x/c =  0.9114   72
 Side 2  free  transition at x/c =  0.5547   56

   1   rms: 0.3376E+00   max: -.5318E+01   C at   56  2   RLX: 0.094
       a = -2.000      CL =  0.0156
      Cm = -0.0797     CD =  0.01496   =>   CDf =  0.00590    CDp =  0.00907

 Side 1  free  transition at x/c =  0.9110   73
 Side 2  free  transition at x/c =  0.5976   58

   2   rms: 0.2649E+00   max: -.2842E+01   D at    2  1   RLX: 0.176
       a = -2.000      CL =  0.0256
      Cm = -0.0796     CD =  0.01486   =>   CDf =  0.00576    CDp =  0.00910

 Side 1  free  transition at x/c =  0.9105   73
 Side 2  free  transition at x/c =  0.6510   61

   3   rms: 0.1143E+00   max: 0.7243E+00   C at   62  2
       a = -2.000      CL =  0.0831
      Cm = -0.0825     CD =  0.01501   =>   CDf =  0.00557    CDp =  0.00945

 MRCHDU: Convergence failed at  65  side 2    Res =  0.1297E+01
 MRCHDU: Convergence failed at  66  side 2    Res =  0.3325E+01
 MRCHDU: Convergence failed at  67  side 2    Res =  0.1429E+01
 MRCHDU: Convergence failed at  68  side 2    Res =  0.1772E+01
 MRCHDU: Convergence failed at  69  side 2    Res =  0.2437E+01
 MRCHDU: Convergence failed at  70  side 2    Res =  0.3096E+01
 MRCHDU: Convergence failed at  71  side 2    Res =  0.3642E+01
 MRCHDU: Convergence failed at  72  side 2    Res =  0.3938E+01
 MRCHDU: Convergence failed at  73  side 2    Res =  0.3993E+01
 MRCHDU: Convergence failed at  74  side 2    Res =  0.3886E+01
 MRCHDU: Convergence failed at  75  side 2    Res =  0.3716E+01
 MRCHDU: Convergence failed at  76  side 2    Res =  0.3541E+01
 MRCHDU: Convergence failed at  77  side 2    Res =  0.3411E+01
 MRCHDU: Convergence failed at  78  side 2    Res =  0.5119E+01
 MRCHDU: Convergence failed at  79  side 2    Res =  0.4426E+01
 MRCHDU: Convergence failed at  80  side 2    Res =  0.4070E+01
 MRCHDU: Convergence failed at  81  side 2    Res =  0.3819E+01
 MRCHDU: Convergence failed at  82  side 2    Res =  0.3612E+01
 MRCHDU: Convergence failed at  83  side 2    Res =  0.3616E+01
 Side 1  free  transition at x/c =  0.9083   72
 Side 2  free  transition at x/c =  0.9260   78

   4   rms: 0.7221E+00   max: -.5929E+01   T at   72  1   RLX: 0.084
       a = -2.000      CL =  0.0767
      Cm = -0.0611     CD =  0.01140   =>   CDf =  0.00516    CDp =  0.00624

 Side 1  free  transition at x/c =  0.9260   74
 Side 2 forced transition at x/c =  1.0000   82

   5   rms: 0.6456E+00   max: -.6217E+01   T at    2  1   RLX: 0.080
       a = -2.000      CL =  0.1249
      Cm = -0.0764     CD =  0.00904   =>   CDf =  0.00526    CDp =  0.00378

 MRCHDU: Convergence failed at  77  side 1    Res =  0.9101E+00
 MRCHDU: Convergence failed at  78  side 1    Res =  0.2092E+01
 MRCHDU: Convergence failed at  79  side 1    Res =  0.2881E+01
 MRCHDU: Convergence failed at  80  side 1    Res =  0.3330E+01
 Side 1  free  transition at x/c =  0.9375   75
 Side 2  free  transition at x/c =  0.9619   79
 idif Ue xi dudx           1  0.16960776      2.22539902E-03   76.214539    
 Uenew xinew           2  1.68172251E-02  2.20656395E-04

   6   rms: 0.7199E+00   max: 0.8626E+01   C at   79  2   RLX: 0.174
       a = -2.000      CL =  0.0814
      Cm = -0.0726     CD =  0.00630   =>   CDf =  0.00524    CDp =  0.00106

 Side 1  free  transition at x/c =  0.9309   74
 Side 2  free  transition at x/c =  0.8557   73

   7   rms: 0.2476E+00   max: 0.1547E+01   C at   73  2   RLX: 0.970
       a = -2.000      CL =  0.1597
      Cm = -0.0977     CD =  0.01063   =>   CDf =  0.00538    CDp =  0.00525

 MRCHDU: Convergence failed at  78  side 1    Res =  0.2700E+01
 MRCHDU: Convergence failed at  79  side 1    Res =  0.3115E+01
 MRCHDU: Convergence failed at  80  side 1    Res =  0.3415E+01
 Side 1  free  transition at x/c =  0.9314   75
 Side 2  free  transition at x/c =  0.7962   69
 idif Ue xi dudx           1  0.18369704      2.43186951E-03   75.537376    
 Uenew xinew           2  3.22640426E-02  4.27126884E-04

   8   rms: 0.1690E+00   max: 0.7649E+00   T at   75  1   RLX: 0.841
       a = -2.000      CL =  0.0928
      Cm = -0.0847     CD =  0.01176   =>   CDf =  0.00537    CDp =  0.00639

 Side 1  free  transition at x/c =  0.9135   73
 Side 2  free  transition at x/c =  0.7415   66

   9   rms: 0.6533E-01   max: 0.4666E+00   T at   73  1
       a = -2.000      CL =  0.0591
      Cm = -0.0773     CD =  0.01508   =>   CDf =  0.00548    CDp =  0.00960

 Side 1  free  transition at x/c =  0.9018   72
 Side 2  free  transition at x/c =  0.7160   65

  10   rms: 0.2275E-01   max: -.2032E+00   D at   72  1
       a = -2.000      CL =  0.0490
      Cm = -0.0758     CD =  0.01508   =>   CDf =  0.00554    CDp =  0.00954

 Side 1  free  transition at x/c =  0.8969   72
 Side 2  free  transition at x/c =  0.7151   65

  11   rms: 0.1380E-01   max: -.7701E-01   T at   72  1
       a = -2.000      CL =  0.0535
      Cm = -0.0765     CD =  0.01493   =>   CDf =  0.00549    CDp =  0.00944

 Side 1  free  transition at x/c =  0.8989   72
 Side 2  free  transition at x/c =  0.7174   65

  12   rms: 0.2126E-02   max: -.1086E-01   T at   72  1
       a = -2.000      CL =  0.0544
      Cm = -0.0767     CD =  0.01493   =>   CDf =  0.00549    CDp =  0.00944

 Side 1  free  transition at x/c =  0.8992   72
 Side 2  free  transition at x/c =  0.7180   65

  13   rms: 0.4175E-04   max: -.2933E-03   T at   72  1
       a = -2.000      CL =  0.0545
      Cm = -0.0767     CD =  0.01493   =>   CDf =  0.00549    CDp =  0.00944
 plradd ia,ip,cpol            5           0  1.06640188E-02

 Point added to stored polar  1
 Point written to save file  l188tip_Re200k.base.pol                         
 Dump file unspecified or not available
 Calculating wake trajectory ...
 Calculating source influence matrix ...

 Solving BL system ...

 Side 1  free  transition at x/c =  0.8993   72
 Side 2  free  transition at x/c =  0.7180   65

   1   rms: 0.1237E+00   max: 0.5996E+00   D at   67  2   RLX: 0.857
       a = -1.500      CL =  0.1113
      Cm = -0.0775     CD =  0.01477   =>   CDf =  0.00545    CDp =  0.00932

 Side 1  free  transition at x/c =  0.8944   73
 Side 2  free  transition at x/c =  0.7639   67

   2   rms: 0.3989E-01   max: -.3702E+00   T at   67  2
       a = -1.500      CL =  0.1223
      Cm = -0.0779     CD =  0.01459   =>   CDf =  0.00556    CDp =  0.00902

 Side 1  free  transition at x/c =  0.8947   73
 Side 2  free  transition at x/c =  0.7885   68

   3   rms: 0.1685E-01   max: -.1890E+00   D at   68  2
       a = -1.500      CL =  0.1228
      Cm = -0.0782     CD =  0.01470   =>   CDf =  0.00551    CDp =  0.00919

 Side 1  free  transition at x/c =  0.8947   73
 Side 2  free  transition at x/c =  0.7979   69

   4   rms: 0.6257E-02   max: 0.6452E-01   C at   69  2
       a = -1.500      CL =  0.1223
      Cm = -0.0779     CD =  0.01470   =>   CDf =  0.00540    CDp =  0.00930

 Side 1  free  transition at x/c =  0.8947   73
 Side 2  free  transition at x/c =  0.7949   69

   5   rms: 0.6399E-03   max: -.8574E-02   D at   72  2
       a = -1.500      CL =  0.1223
      Cm = -0.0779     CD =  0.01470   =>   CDf =  0.00542    CDp =  0.00927

 Side 1  free  transition at x/c =  0.8947   73
 Side 2  free  transition at x/c =  0.7946   69

   6   rms: 0.4372E-05   max: -.7721E-04   D at   72  2
       a = -1.500      CL =  0.1223
      Cm = -0.0779     CD =  0.01470   =>   CDf =  0.00542    CDp =  0.00927
 plradd ia,ip,cpol            6           0  1.33528281E-02

 Point added to stored polar  1
 Point written to save file  l188tip_Re200k.base.pol                         
 Dump file unspecified or not available
 Calculating wake trajectory ...
 Calculating source influence matrix ...

 Solving BL system ...

 Side 1  free  transition at x/c =  0.8947   73
 Side 2  free  transition at x/c =  0.7946   69

   1   rms: 0.1141E+00   max: -.5722E+00   C at   69  2   RLX: 0.874
       a = -1.000      CL =  0.1790
      Cm = -0.0780     CD =  0.01429   =>   CDf =  0.00538    CDp =  0.00890

 Side 1  free  transition at x/c =  0.8921   73
 Side 2  free  transition at x/c =  0.8243   69

   2   rms: 0.9727E+00   max: -.7595E+01   T at   73  1   RLX: 0.066
       a = -1.000      CL =  0.2247
      Cm = -0.0889     CD =  0.01385   =>   CDf =  0.00554    CDp =  0.00831

 Side 1  free  transition at x/c =  0.9109   75
 Side 2  free  transition at x/c =  0.8331   70

   3   rms: 0.9406E-01   max: 0.7485E+00   D at   75  1
       a = -1.000      CL =  0.2204
      Cm = -0.0852     CD =  0.01395   =>   CDf =  0.00553    CDp =  0.00842

 Side 1  free  transition at x/c =  0.9001   74
 Side 2  free  transition at x/c =  0.8559   71
 idif Ue xi dudx           1  0.17443666      2.11763382E-03   82.373383    
 Uenew xinew           2  1.89814270E-02  2.30431557E-04

   4   rms: 0.1133E+00   max: 0.7211E+00   T at   74  1
       a = -1.000      CL =  0.1487
      Cm = -0.0712     CD =  0.01509   =>   CDf =  0.00542    CDp =  0.00967

 Side 1  free  transition at x/c =  0.8785   72
 Side 2  free  transition at x/c =  0.8447   72

   5   rms: 0.4062E-01   max: -.4057E+00   D at   72  1
       a = -1.000      CL =  0.1709
      Cm = -0.0756     CD =  0.01457   =>   CDf =  0.00528    CDp =  0.00929

 Side 1  free  transition at x/c =  0.8837   73
 Side 2  free  transition at x/c =  0.8487   71
 idif Ue xi dudx           1  0.15594327      1.88827515E-03   82.585037    
 Uenew xinew           2  8.86041307E-05  1.07288361E-06

   6   rms: 0.1095E-01   max: 0.6893E-01   D at    2  1
       a = -1.000      CL =  0.1663
      Cm = -0.0747     CD =  0.01467   =>   CDf =  0.00537    CDp =  0.00930

 Side 1  free  transition at x/c =  0.8820   72
 Side 2  free  transition at x/c =  0.8479   72

   7   rms: 0.6313E-02   max: 0.1117E+00   D at    2  2
       a = -1.000      CL =  0.1666
      Cm = -0.0748     CD =  0.01465   =>   CDf =  0.00531    CDp =  0.00934

 Side 1  free  transition at x/c =  0.8821   72
 Side 2  free  transition at x/c =  0.8480   72

   8   rms: 0.1987E-03   max: 0.2130E-02   T at    2  2
       a = -1.000      CL =  0.1666
      Cm = -0.0748     CD =  0.01465   =>   CDf =  0.00531    CDp =  0.00934

 Side 1  free  transition at x/c =  0.8821   72
 Side 2  free  transition at x/c =  0.8480   72

   9   rms: 0.1879E-05   max: 0.1838E-04   T at    2  2
       a = -1.000      CL =  0.1666
      Cm = -0.0748     CD =  0.01465   =>   CDf =  0.00531    CDp =  0.00934
 plradd ia,ip,cpol            7           0  1.64096206E-02

 Point added to stored polar  1
 Point written to save file  l188tip_Re200k.base.pol                         
 Dump file unspecified or not available
 Calculating wake trajectory ...
 Calculating source influence matrix ...

 Solving BL system ...

 Side 1  free  transition at x/c =  0.8821   72
 Side 2  free  transition at x/c =  0.8480   72

   1   rms: 0.3700E+00   max: 0.6642E+01   T at    2  2   RLX: 0.226
       a = -0.500      CL =  0.1806
      Cm = -0.0747     CD =  0.01455   =>   CDf =  0.00528    CDp =  0.00928

 Side 1  free  transition at x/c =  0.8810   73
 Side 2  free  transition at x/c =  0.8582   71

   2   rms: 0.7936E-01   max: -.4305E+00   T at   71  2
       a = -0.500      CL =  0.2314
      Cm = -0.0760     CD =  0.01438   =>   CDf =  0.00536    CDp =  0.00903

 MRCHDU: Convergence failed at  75  side 2    Res =  0.8963E+01
 MRCHDU: Convergence failed at  76  side 2    Res =  0.2153E+01
 MRCHDU: Convergence failed at  77  side 2    Res =  0.3444E+01
 MRCHDU: Convergence failed at  78  side 2    Res =  0.5350E+01
 MRCHDU: Convergence failed at  79  side 2    Res =  0.7475E+01
 MRCHDU: Convergence failed at  80  side 2    Res =  0.9236E+01
 MRCHDU: Convergence failed at  81  side 2    Res =  0.9409E+01
 Side 1  free  transition at x/c =  0.8774   72
 Side 2  free  transition at x/c =  0.9181   75

   3   rms: 0.6664E-01   max: 0.4697E+00   T at   81  2
       a = -0.500      CL =  0.2402
      Cm = -0.0764     CD =  0.01433   =>   CDf =  0.00517    CDp =  0.00917

 Side 1  free  transition at x/c =  0.8804   73
 Side 2  free  transition at x/c =  0.9021   74

   4   rms: 0.2824E-01   max: 0.1396E+00   D at   76  1
       a = -0.500      CL =  0.2317
      Cm = -0.0750     CD =  0.01434   =>   CDf =  0.00527    CDp =  0.00906

 Side 1  free  transition at x/c =  0.8779   72
 Side 2  free  transition at x/c =  0.9072   74

   5   rms: 0.7690E-02   max: -.6558E-01   T at   72  1
       a = -0.500      CL =  0.2367
      Cm = -0.0758     CD =  0.01425   =>   CDf =  0.00525    CDp =  0.00899

 Side 1  free  transition at x/c =  0.8801   73
 Side 2  free  transition at x/c =  0.9064   74

   6   rms: 0.2240E-01   max: 0.1243E+00   D at   76  1
       a = -0.500      CL =  0.2322
      Cm = -0.0751     CD =  0.01434   =>   CDf =  0.00526    CDp =  0.00908

 Side 1  free  transition at x/c =  0.8779   72
 Side 2  free  transition at x/c =  0.9065   74

   7   rms: 0.7110E-02   max: -.6348E-01   T at   72  1
       a = -0.500      CL =  0.2366
      Cm = -0.0758     CD =  0.01425   =>   CDf =  0.00525    CDp =  0.00899

 Side 1  free  transition at x/c =  0.8801   73
 Side 2  free  transition at x/c =  0.9064   74

   8   rms: 0.2220E-01   max: 0.1231E+00   D at   76  1
       a = -0.500      CL =  0.2322
      Cm = -0.0751     CD =  0.01434   =>   CDf =  0.00526    CDp =  0.00908

 Side 1  free  transition at x/c =  0.8779   72
 Side 2  free  transition at x/c =  0.9065   74

   9   rms: 0.7089E-02   max: -.6335E-01   T at   72  1
       a = -0.500      CL =  0.2366
      Cm = -0.0758     CD =  0.01425   =>   CDf =  0.00525    CDp =  0.00899

 Side 1  free  transition at x/c =  0.8800   73
 Side 2  free  transition at x/c =  0.9064   74

  10   rms: 0.2218E-01   max: 0.1230E+00   D at   76  1
       a = -0.500      CL =  0.2322
      Cm = -0.0751     CD =  0.01434   =>   CDf =  0.00526    CDp =  0.00908

 Side 1  free  transition at x/c =  0.8779   72
 Side 2  free  transition at x/c =  0.9065   74

  11   rms: 0.7087E-02   max: -.6335E-01   T at   72  1
       a = -0.500      CL =  0.2366
      Cm = -0.0758     CD =  0.01425   =>   CDf =  0.00525    CDp =  0.00899

 Side 1  free  transition at x/c =  0.8801   73
 Side 2  free  transition at x/c =  0.9064   74

  12   rms: 0.2218E-01   max: 0.1230E+00   D at   76  1
       a = -0.500      CL =  0.2322
      Cm = -0.0751     CD =  0.01434   =>   CDf =  0.00526    CDp =  0.00908

 Side 1  free  transition at x/c =  0.8779   72
 Side 2  free  transition at x/c =  0.9065   74

  13   rms: 0.7090E-02   max: -.6338E-01   T at   72  1
       a = -0.500      CL =  0.2366
      Cm = -0.0758     CD =  0.01425   =>   CDf =  0.00525    CDp =  0.00899

 Side 1  free  transition at x/c =  0.8801   73
 Side 2  free  transition at x/c =  0.9064   74

  14   rms: 0.2219E-01   max: 0.1231E+00   D at   76  1
       a = -0.500      CL =  0.2322
      Cm = -0.0751     CD =  0.01434   =>   CDf =  0.00526    CDp =  0.00908

 Side 1  free  transition at x/c =  0.8779   72
 Side 2  free  transition at x/c =  0.9065   74

  15   rms: 0.7090E-02   max: -.6337E-01   T at   72  1
       a = -0.500      CL =  0.2366
      Cm = -0.0758     CD =  0.01425   =>   CDf =  0.00525    CDp =  0.00899

 Side 1  free  transition at x/c =  0.8801   73
 Side 2  free  transition at x/c =  0.9064   74

  16   rms: 0.2219E-01   max: 0.1231E+00   D at   76  1
       a = -0.500      CL =  0.2322
      Cm = -0.0751     CD =  0.01434   =>   CDf =  0.00526    CDp =  0.00908

 Side 1  free  transition at x/c =  0.8779   72
 Side 2  free  transition at x/c =  0.9065   74

  17   rms: 0.7089E-02   max: -.6336E-01   T at   72  1
       a = -0.500      CL =  0.2366
      Cm = -0.0758     CD =  0.01425   =>   CDf =  0.00525    CDp =  0.00899

 Side 1  free  transition at x/c =  0.8801   73
 Side 2  free  transition at x/c =  0.9064   74

  18   rms: 0.2218E-01   max: 0.1230E+00   D at   76  1
       a = -0.500      CL =  0.2322
      Cm = -0.0751     CD =  0.01434   =>   CDf =  0.00526    CDp =  0.00908

 Side 1  free  transition at x/c =  0.8779   72
 Side 2  free  transition at x/c =  0.9065   74

  19   rms: 0.7088E-02   max: -.6336E-01   T at   72  1
       a = -0.500      CL =  0.2366
      Cm = -0.0758     CD =  0.01425   =>   CDf =  0.00525    CDp =  0.00899

 Side 1  free  transition at x/c =  0.8801   73
 Side 2  free  transition at x/c =  0.9064   74

  20   rms: 0.2219E-01   max: 0.1230E+00   D at   76  1
       a = -0.500      CL =  0.2322
      Cm = -0.0751     CD =  0.01434   =>   CDf =  0.00526    CDp =  0.00908

 Side 1  free  transition at x/c =  0.8779   72
 Side 2  free  transition at x/c =  0.9065   74

  21   rms: 0.7089E-02   max: -.6336E-01   T at   72  1
       a = -0.500      CL =  0.2366
      Cm = -0.0758     CD =  0.01425   =>   CDf =  0.00525    CDp =  0.00899

 Side 1  free  transition at x/c =  0.8801   73
 Side 2  free  transition at x/c =  0.9064   74

  22   rms: 0.2218E-01   max: 0.1230E+00   D at   76  1
       a = -0.500      CL =  0.2322
      Cm = -0.0751     CD =  0.01434   =>   CDf =  0.00526    CDp =  0.00908

 Side 1  free  transition at x/c =  0.8779   72
 Side 2  free  transition at x/c =  0.9065   74

  23   rms: 0.7088E-02   max: -.6336E-01   T at   72  1
       a = -0.500      CL =  0.2366
      Cm = -0.0758     CD =  0.01425   =>   CDf =  0.00525    CDp =  0.00899

 Side 1  free  transition at x/c =  0.8801   73
 Side 2  free  transition at x/c =  0.9064   74

  24   rms: 0.2218E-01   max: 0.1230E+00   D at   76  1
       a = -0.500      CL =  0.2322
      Cm = -0.0751     CD =  0.01434   =>   CDf =  0.00526    CDp =  0.00908

 Side 1  free  transition at x/c =  0.8779   72
 Side 2  free  transition at x/c =  0.9065   74

  25   rms: 0.7089E-02   max: -.6336E-01   T at   72  1
       a = -0.500      CL =  0.2366
      Cm = -0.0758     CD =  0.01425   =>   CDf =  0.00525    CDp =  0.00899

 Side 1  free  transition at x/c =  0.8801   73
 Side 2  free  transition at x/c =  0.9064   74

  26   rms: 0.2218E-01   max: 0.1230E+00   D at   76  1
       a = -0.500      CL =  0.2322
      Cm = -0.0751     CD =  0.01434   =>   CDf =  0.00526    CDp =  0.00908

 Side 1  free  transition at x/c =  0.8779   72
 Side 2  free  transition at x/c =  0.9065   74

  27   rms: 0.7088E-02   max: -.6335E-01   T at   72  1
       a = -0.500      CL =  0.2366
      Cm = -0.0758     CD =  0.01425   =>   CDf =  0.00525    CDp =  0.00899

 Side 1  free  transition at x/c =  0.8800   73
 Side 2  free  transition at x/c =  0.9064   74

  28   rms: 0.2218E-01   max: 0.1230E+00   D at   76  1
       a = -0.500      CL =  0.2322
      Cm = -0.0751     CD =  0.01434   =>   CDf =  0.00526    CDp =  0.00908

 Side 1  free  transition at x/c =  0.8779   72
 Side 2  free  transition at x/c =  0.9065   74

  29   rms: 0.7088E-02   max: -.6336E-01   T at   72  1
       a = -0.500      CL =  0.2366
      Cm = -0.0758     CD =  0.01425   =>   CDf =  0.00525    CDp =  0.00899

 Side 1  free  transition at x/c =  0.8801   73
 Side 2  free  transition at x/c =  0.9064   74

  30   rms: 0.2218E-01   max: 0.1230E+00   D at   76  1
       a = -0.500      CL =  0.2322
      Cm = -0.0751     CD =  0.01434   =>   CDf =  0.00526    CDp =  0.00908

 Side 1  free  transition at x/c =  0.8779   72
 Side 2  free  transition at x/c =  0.9065   74

  31   rms: 0.7088E-02   max: -.6335E-01   T at   72  1
       a = -0.500      CL =  0.2366
      Cm = -0.0758     CD =  0.01425   =>   CDf =  0.00525    CDp =  0.00899

 Side 1  free  transition at x/c =  0.8801   73
 Side 2  free  transition at x/c =  0.9064   74

  32   rms: 0.2218E-01   max: 0.1230E+00   D at   76  1
       a = -0.500      CL =  0.2322
      Cm = -0.0751     CD =  0.01434   =>   CDf =  0.00526    CDp =  0.00908

 Side 1  free  transition at x/c =  0.8779   72
 Side 2  free  transition at x/c =  0.9065   74

  33   rms: 0.7090E-02   max: -.6338E-01   T at   72  1
       a = -0.500      CL =  0.2366
      Cm = -0.0758     CD =  0.01425   =>   CDf =  0.00525    CDp =  0.00899

 Side 1  free  transition at x/c =  0.8801   73
 Side 2  free  transition at x/c =  0.9064   74

  34   rms: 0.2219E-01   max: 0.1231E+00   D at   76  1
       a = -0.500      CL =  0.2322
      Cm = -0.0751     CD =  0.01434   =>   CDf =  0.00526    CDp =  0.00908

 Side 1  free  transition at x/c =  0.8779   72
 Side 2  free  transition at x/c =  0.9065   74

  35   rms: 0.7087E-02   max: -.6335E-01   T at   72  1
       a = -0.500      CL =  0.2366
      Cm = -0.0758     CD =  0.01425   =>   CDf =  0.00525    CDp =  0.00899

 Side 1  free  transition at x/c =  0.8801   73
 Side 2  free  transition at x/c =  0.9064   74

  36   rms: 0.2218E-01   max: 0.1230E+00   D at   76  1
       a = -0.500      CL =  0.2322
      Cm = -0.0751     CD =  0.01434   =>   CDf =  0.00526    CDp =  0.00908

 Side 1  free  transition at x/c =  0.8779   72
 Side 2  free  transition at x/c =  0.9065   74

  37   rms: 0.7089E-02   max: -.6337E-01   T at   72  1
       a = -0.500      CL =  0.2366
      Cm = -0.0758     CD =  0.01425   =>   CDf =  0.00525    CDp =  0.00899

 Side 1  free  transition at x/c =  0.8801   73
 Side 2  free  transition at x/c =  0.9064   74

  38   rms: 0.2218E-01   max: 0.1230E+00   D at   76  1
       a = -0.500      CL =  0.2322
      Cm = -0.0751     CD =  0.01434   =>   CDf =  0.00526    CDp =  0.00908

 Side 1  free  transition at x/c =  0.8779   72
 Side 2  free  transition at x/c =  0.9065   74

  39   rms: 0.7088E-02   max: -.6336E-01   T at   72  1
       a = -0.500      CL =  0.2366
      Cm = -0.0758     CD =  0.01425   =>   CDf =  0.00525    CDp =  0.00899

 Side 1  free  transition at x/c =  0.8801   73
 Side 2  free  transition at x/c =  0.9064   74

  40   rms: 0.2218E-01   max: 0.1230E+00   D at   76  1
       a = -0.500      CL =  0.2322
      Cm = -0.0751     CD =  0.01434   =>   CDf =  0.00526    CDp =  0.00908

 Side 1  free  transition at x/c =  0.8779   72
 Side 2  free  transition at x/c =  0.9065   74

  41   rms: 0.7088E-02   max: -.6336E-01   T at   72  1
       a = -0.500      CL =  0.2366
      Cm = -0.0758     CD =  0.01425   =>   CDf =  0.00525    CDp =  0.00899

 Side 1  free  transition at x/c =  0.8801   73
 Side 2  free  transition at x/c =  0.9064   74

  42   rms: 0.2218E-01   max: 0.1230E+00   D at   76  1
       a = -0.500      CL =  0.2322
      Cm = -0.0751     CD =  0.01434   =>   CDf =  0.00526    CDp =  0.00908

 Side 1  free  transition at x/c =  0.8779   72
 Side 2  free  transition at x/c =  0.9065   74

  43   rms: 0.7086E-02   max: -.6334E-01   T at   72  1
       a = -0.500      CL =  0.2366
      Cm = -0.0758     CD =  0.01425   =>   CDf =  0.00525    CDp =  0.00899

 Side 1  free  transition at x/c =  0.8801   73
 Side 2  free  transition at x/c =  0.9064   74

  44   rms: 0.2218E-01   max: 0.1230E+00   D at   76  1
       a = -0.500      CL =  0.2322
      Cm = -0.0751     CD =  0.01434   =>   CDf =  0.00526    CDp =  0.00908

 Side 1  free  transition at x/c =  0.8779   72
 Side 2  free  transition at x/c =  0.9065   74

  45   rms: 0.7088E-02   max: -.6335E-01   T at   72  1
       a = -0.500      CL =  0.2366
      Cm = -0.0758     CD =  0.01425   =>   CDf =  0.00525    CDp =  0.00899

 Side 1  free  transition at x/c =  0.8801   73
 Side 2  free  transition at x/c =  0.9064   74

  46   rms: 0.2218E-01   max: 0.1230E+00   D at   76  1
       a = -0.500      CL =  0.2322
      Cm = -0.0751     CD =  0.01434   =>   CDf =  0.00526    CDp =  0.00908

 Side 1  free  transition at x/c =  0.8779   72
 Side 2  free  transition at x/c =  0.9065   74

  47   rms: 0.7088E-02   max: -.6335E-01   T at   72  1
       a = -0.500      CL =  0.2366
      Cm = -0.0758     CD =  0.01425   =>   CDf =  0.00525    CDp =  0.00899

 Side 1  free  transition at x/c =  0.8801   73
 Side 2  free  transition at x/c =  0.9064   74

  48   rms: 0.2218E-01   max: 0.1230E+00   D at   76  1
       a = -0.500      CL =  0.2322
      Cm = -0.0751     CD =  0.01434   =>   CDf =  0.00526    CDp =  0.00908

 Side 1  free  transition at x/c =  0.8779   72
 Side 2  free  transition at x/c =  0.9065   74

  49   rms: 0.7088E-02   max: -.6336E-01   T at   72  1
       a = -0.500      CL =  0.2366
      Cm = -0.0758     CD =  0.01425   =>   CDf =  0.00525    CDp =  0.00899

 Side 1  free  transition at x/c =  0.8801   73
 Side 2  free  transition at x/c =  0.9064   74

  50   rms: 0.2218E-01   max: 0.1230E+00   D at   76  1
       a = -0.500      CL =  0.2322
      Cm = -0.0751     CD =  0.01434   =>   CDf =  0.00526    CDp =  0.00908

 Side 1  free  transition at x/c =  0.8779   72
 Side 2  free  transition at x/c =  0.9065   74

  51   rms: 0.7088E-02   max: -.6335E-01   T at   72  1
       a = -0.500      CL =  0.2366
      Cm = -0.0758     CD =  0.01425   =>   CDf =  0.00525    CDp =  0.00899

 Side 1  free  transition at x/c =  0.8801   73
 Side 2  free  transition at x/c =  0.9064   74

  52   rms: 0.2218E-01   max: 0.1230E+00   D at   76  1
       a = -0.500      CL =  0.2322
      Cm = -0.0751     CD =  0.01434   =>   CDf =  0.00526    CDp =  0.00908

 Side 1  free  transition at x/c =  0.8779   72
 Side 2  free  transition at x/c =  0.9065   74

  53   rms: 0.7090E-02   max: -.6337E-01   T at   72  1
       a = -0.500      CL =  0.2366
      Cm = -0.0758     CD =  0.01425   =>   CDf =  0.00525    CDp =  0.00899

 Side 1  free  transition at x/c =  0.8801   73
 Side 2  free  transition at x/c =  0.9064   74

  54   rms: 0.2219E-01   max: 0.1231E+00   D at   76  1
       a = -0.500      CL =  0.2322
      Cm = -0.0751     CD =  0.01434   =>   CDf =  0.00526    CDp =  0.00908

 Side 1  free  transition at x/c =  0.8779   72
 Side 2  free  transition at x/c =  0.9065   74

  55   rms: 0.7090E-02   max: -.6337E-01   T at   72  1
       a = -0.500      CL =  0.2366
      Cm = -0.0758     CD =  0.01425   =>   CDf =  0.00525    CDp =  0.00899

 Side 1  free  transition at x/c =  0.8801   73
 Side 2  free  transition at x/c =  0.9064   74

  56   rms: 0.2218E-01   max: 0.1230E+00   D at   76  1
       a = -0.500      CL =  0.2322
      Cm = -0.0751     CD =  0.01434   =>   CDf =  0.00526    CDp =  0.00908

 Side 1  free  transition at x/c =  0.8779   72
 Side 2  free  transition at x/c =  0.9065   74

  57   rms: 0.7089E-02   max: -.6336E-01   T at   72  1
       a = -0.500      CL =  0.2366
      Cm = -0.0758     CD =  0.01425   =>   CDf =  0.00525    CDp =  0.00899

 Side 1  free  transition at x/c =  0.8801   73
 Side 2  free  transition at x/c =  0.9064   74

  58   rms: 0.2219E-01   max: 0.1231E+00   D at   76  1
       a = -0.500      CL =  0.2322
      Cm = -0.0751     CD =  0.01434   =>   CDf =  0.00526    CDp =  0.00908

 Side 1  free  transition at x/c =  0.8779   72
 Side 2  free  transition at x/c =  0.9065   74

  59   rms: 0.7089E-02   max: -.6336E-01   T at   72  1
       a = -0.500      CL =  0.2366
      Cm = -0.0758     CD =  0.01425   =>   CDf =  0.00525    CDp =  0.00899

 Side 1  free  transition at x/c =  0.8801   73
 Side 2  free  transition at x/c =  0.9064   74

  60   rms: 0.2218E-01   max: 0.1230E+00   D at   76  1
       a = -0.500      CL =  0.2322
      Cm = -0.0751     CD =  0.01434   =>   CDf =  0.00526    CDp =  0.00908

 Side 1  free  transition at x/c =  0.8779   72
 Side 2  free  transition at x/c =  0.9065   74

  61   rms: 0.7087E-02   max: -.6334E-01   T at   72  1
       a = -0.500      CL =  0.2366
      Cm = -0.0758     CD =  0.01425   =>   CDf =  0.00525    CDp =  0.00899

 Side 1  free  transition at x/c =  0.8800   73
 Side 2  free  transition at x/c =  0.9064   74

  62   rms: 0.2218E-01   max: 0.1230E+00   D at   76  1
       a = -0.500      CL =  0.2322
      Cm = -0.0751     CD =  0.01434   =>   CDf =  0.00526    CDp =  0.00908

 Side 1  free  transition at x/c =  0.8779   72
 Side 2  free  transition at x/c =  0.9065   74

  63   rms: 0.7086E-02   max: -.6335E-01   T at   72  1
       a = -0.500      CL =  0.2366
      Cm = -0.0758     CD =  0.01425   =>   CDf =  0.00525    CDp =  0.00899

 Side 1  free  transition at x/c =  0.8800   73
 Side 2  free  transition at x/c =  0.9064   74

  64   rms: 0.2218E-01   max: 0.1230E+00   D at   76  1
       a = -0.500      CL =  0.2322
      Cm = -0.0751     CD =  0.01434   =>   CDf =  0.00526    CDp =  0.00908

 Side 1  free  transition at x/c =  0.8779   72
 Side 2  free  transition at x/c =  0.9065   74

  65   rms: 0.7088E-02   max: -.6335E-01   T at   72  1
       a = -0.500      CL =  0.2366
      Cm = -0.0758     CD =  0.01425   =>   CDf =  0.00525    CDp =  0.00899

 Side 1  free  transition at x/c =  0.8801   73
 Side 2  free  transition at x/c =  0.9064   74

  66   rms: 0.2218E-01   max: 0.1230E+00   D at   76  1
       a = -0.500      CL =  0.2322
      Cm = -0.0751     CD =  0.01434   =>   CDf =  0.00526    CDp =  0.00908

 Side 1  free  transition at x/c =  0.8779   72
 Side 2  free  transition at x/c =  0.9065   74

  67   rms: 0.7087E-02   max: -.6335E-01   T at   72  1
       a = -0.500      CL =  0.2366
      Cm = -0.0758     CD =  0.01425   =>   CDf =  0.00525    CDp =  0.00899

 Side 1  free  transition at x/c =  0.8801   73
 Side 2  free  transition at x/c =  0.9064   74

  68   rms: 0.2218E-01   max: 0.1230E+00   D at   76  1
       a = -0.500      CL =  0.2322
      Cm = -0.0751     CD =  0.01434   =>   CDf =  0.00526    CDp =  0.00908

 Side 1  free  transition at x/c =  0.8779   72
 Side 2  free  transition at x/c =  0.9065   74

  69   rms: 0.7089E-02   max: -.6336E-01   T at   72  1
       a = -0.500      CL =  0.2366
      Cm = -0.0758     CD =  0.01425   =>   CDf =  0.00525    CDp =  0.00899

 Side 1  free  transition at x/c =  0.8801   73
 Side 2  free  transition at x/c =  0.9064   74

  70   rms: 0.2218E-01   max: 0.1230E+00   D at   76  1
       a = -0.500      CL =  0.2322
      Cm = -0.0751     CD =  0.01434   =>   CDf =  0.00526    CDp =  0.00908

 Side 1  free  transition at x/c =  0.8779   72
 Side 2  free  transition at x/c =  0.9065   74

  71   rms: 0.7091E-02   max: -.6337E-01   T at   72  1
       a = -0.500      CL =  0.2366
      Cm = -0.0758     CD =  0.01425   =>   CDf =  0.00525    CDp =  0.00899

 Side 1  free  transition at x/c =  0.8801   73
 Side 2  free  transition at x/c =  0.9064   74

  72   rms: 0.2219E-01   max: 0.1231E+00   D at   76  1
       a = -0.500      CL =  0.2322
      Cm = -0.0751     CD =  0.01434   =>   CDf =  0.00526    CDp =  0.00908

 Side 1  free  transition at x/c =  0.8779   72
 Side 2  free  transition at x/c =  0.9065   74

  73   rms: 0.7091E-02   max: -.6338E-01   T at   72  1
       a = -0.500      CL =  0.2366
      Cm = -0.0758     CD =  0.01425   =>   CDf =  0.00525    CDp =  0.00899

 Side 1  free  transition at x/c =  0.8801   73
 Side 2  free  transition at x/c =  0.9064   74

  74   rms: 0.2219E-01   max: 0.1231E+00   D at   76  1
       a = -0.500      CL =  0.2322
      Cm = -0.0751     CD =  0.01434   =>   CDf =  0.00526    CDp =  0.00908

 Side 1  free  transition at x/c =  0.8779   72
 Side 2  free  transition at x/c =  0.9065   74

  75   rms: 0.7089E-02   max: -.6336E-01   T at   72  1
       a = -0.500      CL =  0.2366
      Cm = -0.0758     CD =  0.01425   =>   CDf =  0.00525    CDp =  0.00899

 Side 1  free  transition at x/c =  0.8800   73
 Side 2  free  transition at x/c =  0.9064   74

  76   rms: 0.2218E-01   max: 0.1230E+00   D at   76  1
       a = -0.500      CL =  0.2322
      Cm = -0.0751     CD =  0.01434   =>   CDf =  0.00526    CDp =  0.00908

 Side 1  free  transition at x/c =  0.8779   72
 Side 2  free  transition at x/c =  0.9065   74

  77   rms: 0.7088E-02   max: -.6337E-01   T at   72  1
       a = -0.500      CL =  0.2366
      Cm = -0.0758     CD =  0.01425   =>   CDf =  0.00525    CDp =  0.00899

 Side 1  free  transition at x/c =  0.8801   73
 Side 2  free  transition at x/c =  0.9064   74

  78   rms: 0.2219E-01   max: 0.1231E+00   D at   76  1
       a = -0.500      CL =  0.2322
      Cm = -0.0751     CD =  0.01434   =>   CDf =  0.00526    CDp =  0.00908

 Side 1  free  transition at x/c =  0.8779   72
 Side 2  free  transition at x/c =  0.9065   74

  79   rms: 0.7088E-02   max: -.6335E-01   T at   72  1
       a = -0.500      CL =  0.2366
      Cm = -0.0758     CD =  0.01425   =>   CDf =  0.00525    CDp =  0.00899

 Side 1  free  transition at x/c =  0.8800   73
 Side 2  free  transition at x/c =  0.9064   74

  80   rms: 0.2218E-01   max: 0.1230E+00   D at   76  1
       a = -0.500      CL =  0.2322
      Cm = -0.0751     CD =  0.01434   =>   CDf =  0.00526    CDp =  0.00908

 Side 1  free  transition at x/c =  0.8779   72
 Side 2  free  transition at x/c =  0.9065   74

  81   rms: 0.7086E-02   max: -.6335E-01   T at   72  1
       a = -0.500      CL =  0.2366
      Cm = -0.0758     CD =  0.01425   =>   CDf =  0.00525    CDp =  0.00899

 Side 1  free  transition at x/c =  0.8801   73
 Side 2  free  transition at x/c =  0.9064   74

  82   rms: 0.2218E-01   max: 0.1230E+00   D at   76  1
       a = -0.500      CL =  0.2322
      Cm = -0.0751     CD =  0.01434   =>   CDf =  0.00526    CDp =  0.00908

 Side 1  free  transition at x/c =  0.8779   72
 Side 2  free  transition at x/c =  0.9065   74

  83   rms: 0.7086E-02   max: -.6334E-01   T at   72  1
       a = -0.500      CL =  0.2366
      Cm = -0.0758     CD =  0.01425   =>   CDf =  0.00525    CDp =  0.00899

 Side 1  free  transition at x/c =  0.8800   73
 Side 2  free  transition at x/c =  0.9064   74

  84   rms: 0.2218E-01   max: 0.1230E+00   D at   76  1
       a = -0.500      CL =  0.2322
      Cm = -0.0751     CD =  0.01434   =>   CDf =  0.00526    CDp =  0.00908

 Side 1  free  transition at x/c =  0.8779   72
 Side 2  free  transition at x/c =  0.9065   74

  85   rms: 0.7089E-02   max: -.6336E-01   T at   72  1
       a = -0.500      CL =  0.2366
      Cm = -0.0758     CD =  0.01425   =>   CDf =  0.00525    CDp =  0.00899

 Side 1  free  transition at x/c =  0.8801   73
 Side 2  free  transition at x/c =  0.9064   74

  86   rms: 0.2219E-01   max: 0.1231E+00   D at   76  1
       a = -0.500      CL =  0.2322
      Cm = -0.0751     CD =  0.01434   =>   CDf =  0.00526    CDp =  0.00908

 Side 1  free  transition at x/c =  0.8779   72
 Side 2  free  transition at x/c =  0.9065   74

  87   rms: 0.7089E-02   max: -.6336E-01   T at   72  1
       a = -0.500      CL =  0.2366
      Cm = -0.0758     CD =  0.01425   =>   CDf =  0.00525    CDp =  0.00899

 Side 1  free  transition at x/c =  0.8801   73
 Side 2  free  transition at x/c =  0.9064   74

  88   rms: 0.2218E-01   max: 0.1230E+00   D at   76  1
       a = -0.500      CL =  0.2322
      Cm = -0.0751     CD =  0.01434   =>   CDf =  0.00526    CDp =  0.00908

 Side 1  free  transition at x/c =  0.8779   72
 Side 2  free  transition at x/c =  0.9065   74

  89   rms: 0.7087E-02   max: -.6335E-01   T at   72  1
       a = -0.500      CL =  0.2366
      Cm = -0.0758     CD =  0.01425   =>   CDf =  0.00525    CDp =  0.00899

 Side 1  free  transition at x/c =  0.8801   73
 Side 2  free  transition at x/c =  0.9064   74

  90   rms: 0.2218E-01   max: 0.1230E+00   D at   76  1
       a = -0.500      CL =  0.2322
      Cm = -0.0751     CD =  0.01434   =>   CDf =  0.00526    CDp =  0.00908

 Side 1  free  transition at x/c =  0.8779   72
 Side 2  free  transition at x/c =  0.9065   74

  91   rms: 0.7087E-02   max: -.6335E-01   T at   72  1
       a = -0.500      CL =  0.2366
      Cm = -0.0758     CD =  0.01425   =>   CDf =  0.00525    CDp =  0.00899

 Side 1  free  transition at x/c =  0.8801   73
 Side 2  free  transition at x/c =  0.9064   74

  92   rms: 0.2218E-01   max: 0.1230E+00   D at   76  1
       a = -0.500      CL =  0.2322
      Cm = -0.0751     CD =  0.01434   =>   CDf =  0.00526    CDp =  0.00908

 Side 1  free  transition at x/c =  0.8779   72
 Side 2  free  transition at x/c =  0.9065   74

  93   rms: 0.7088E-02   max: -.6336E-01   T at   72  1
       a = -0.500      CL =  0.2366
      Cm = -0.0758     CD =  0.01425   =>   CDf =  0.00525    CDp =  0.00899

 Side 1  free  transition at x/c =  0.8800   73
 Side 2  free  transition at x/c =  0.9064   74

  94   rms: 0.2218E-01   max: 0.1230E+00   D at   76  1
       a = -0.500      CL =  0.2322
      Cm = -0.0751     CD =  0.01434   =>   CDf =  0.00526    CDp =  0.00908

 Side 1  free  transition at x/c =  0.8779   72
 Side 2  free  transition at x/c =  0.9065   74

  95   rms: 0.7089E-02   max: -.6337E-01   T at   72  1
       a = -0.500      CL =  0.2366
      Cm = -0.0758     CD =  0.01425   =>   CDf =  0.00525    CDp =  0.00899

 Side 1  free  transition at x/c =  0.8801   73
 Side 2  free  transition at x/c =  0.9064   74

  96   rms: 0.2218E-01   max: 0.1230E+00   D at   76  1
       a = -0.500      CL =  0.2322
      Cm = -0.0751     CD =  0.01434   =>   CDf =  0.00526    CDp =  0.00908

 Side 1  free  transition at x/c =  0.8779   72
 Side 2  free  transition at x/c =  0.9065   74

  97   rms: 0.7089E-02   max: -.6337E-01   T at   72  1
       a = -0.500      CL =  0.2366
      Cm = -0.0758     CD =  0.01425   =>   CDf =  0.00525    CDp =  0.00899

 Side 1  free  transition at x/c =  0.8801   73
 Side 2  free  transition at x/c =  0.9064   74

  98   rms: 0.2219E-01   max: 0.1231E+00   D at   76  1
       a = -0.500      CL =  0.2322
      Cm = -0.0751     CD =  0.01434   =>   CDf =  0.00526    CDp =  0.00908

 Side 1  free  transition at x/c =  0.8779   72
 Side 2  free  transition at x/c =  0.9065   74

  99   rms: 0.7092E-02   max: -.6338E-01   T at   72  1
       a = -0.500      CL =  0.2366
      Cm = -0.0758     CD =  0.01425   =>   CDf =  0.00525    CDp =  0.00899

 Side 1  free  transition at x/c =  0.8801   73
 Side 2  free  transition at x/c =  0.9064   74

 100   rms: 0.2219E-01   max: 0.1231E+00   D at   76  1
       a = -0.500      CL =  0.2322
      Cm = -0.0751     CD =  0.01434   =>   CDf =  0.00526    CDp =  0.00908

 Side 1  free  transition at x/c =  0.8779   72
 Side 2  free  transition at x/c =  0.9065   74

 101   rms: 0.7089E-02   max: -.6336E-01   T at   72  1
       a = -0.500      CL =  0.2366
      Cm = -0.0758     CD =  0.01425   =>   CDf =  0.00525    CDp =  0.00899

 Side 1  free  transition at x/c =  0.8801   73
 Side 2  free  transition at x/c =  0.9064   74

 102   rms: 0.2218E-01   max: 0.1230E+00   D at   76  1
       a = -0.500      CL =  0.2322
      Cm = -0.0751     CD =  0.01434   =>   CDf =  0.00526    CDp =  0.00908

 Side 1  free  transition at x/c =  0.8779   72
 Side 2  free  transition at x/c =  0.9065   74

 103   rms: 0.7087E-02   max: -.6335E-01   T at   72  1
       a = -0.500      CL =  0.2366
      Cm = -0.0758     CD =  0.01425   =>   CDf =  0.00525    CDp =  0.00899

 Side 1  free  transition at x/c =  0.8801   73
 Side 2  free  transition at x/c =  0.9064   74

 104   rms: 0.2218E-01   max: 0.1230E+00   D at   76  1
       a = -0.500      CL =  0.2322
      Cm = -0.0751     CD =  0.01434   =>   CDf =  0.00526    CDp =  0.00908

 Side 1  free  transition at x/c =  0.8779   72
 Side 2  free  transition at x/c =  0.9065   74

 105   rms: 0.7091E-02   max: -.6338E-01   T at   72  1
       a = -0.500      CL =  0.2366
      Cm = -0.0758     CD =  0.01425   =>   CDf =  0.00525    CDp =  0.00899

 Side 1  free  transition at x/c =  0.8801   73
 Side 2  free  transition at x/c =  0.9064   74

 106   rms: 0.2219E-01   max: 0.1231E+00   D at   76  1
       a = -0.500      CL =  0.2322
      Cm = -0.0751     CD =  0.01434   =>   CDf =  0.00526    CDp =  0.00908

 Side 1  free  transition at x/c =  0.8779   72
 Side 2  free  transition at x/c =  0.9065   74

 107   rms: 0.7088E-02   max: -.6336E-01   T at   72  1
       a = -0.500      CL =  0.2366
      Cm = -0.0758     CD =  0.01425   =>   CDf =  0.00525    CDp =  0.00899

 Side 1  free  transition at x/c =  0.8801   73
 Side 2  free  transition at x/c =  0.9064   74

 108   rms: 0.2218E-01   max: 0.1230E+00   D at   76  1
       a = -0.500      CL =  0.2322
      Cm = -0.0751     CD =  0.01434   =>   CDf =  0.00526    CDp =  0.00908

 Side 1  free  transition at x/c =  0.8779   72
 Side 2  free  transition at x/c =  0.9065   74

 109   rms: 0.7088E-02   max: -.6335E-01   T at   72  1
       a = -0.500      CL =  0.2366
      Cm = -0.0758     CD =  0.01425   =>   CDf =  0.00525    CDp =  0.00899

 Side 1  free  transition at x/c =  0.8800   73
 Side 2  free  transition at x/c =  0.9064   74

 110   rms: 0.2218E-01   max: 0.1230E+00   D at   76  1
       a = -0.500      CL =  0.2322
      Cm = -0.0751     CD =  0.01434   =>   CDf =  0.00526    CDp =  0.00908

 Side 1  free  transition at x/c =  0.8779   72
 Side 2  free  transition at x/c =  0.9065   74

 111   rms: 0.7087E-02   max: -.6335E-01   T at   72  1
       a = -0.500      CL =  0.2366
      Cm = -0.0758     CD =  0.01425   =>   CDf =  0.00525    CDp =  0.00899

 Side 1  free  transition at x/c =  0.8801   73
 Side 2  free  transition at x/c =  0.9064   74

 112   rms: 0.2218E-01   max: 0.1230E+00   D at   76  1
       a = -0.500      CL =  0.2322
      Cm = -0.0751     CD =  0.01434   =>   CDf =  0.00526    CDp =  0.00908

 Side 1  free  transition at x/c =  0.8779   72
 Side 2  free  transition at x/c =  0.9065   74

 113   rms: 0.7089E-02   max: -.6337E-01   T at   72  1
       a = -0.500      CL =  0.2366
      Cm = -0.0758     CD =  0.01425   =>   CDf =  0.00525    CDp =  0.00899

 Side 1  free  transition at x/c =  0.8801   73
 Side 2  free  transition at x/c =  0.9064   74

 114   rms: 0.2219E-01   max: 0.1231E+00   D at   76  1
       a = -0.500      CL =  0.2322
      Cm = -0.0751     CD =  0.01434   =>   CDf =  0.00526    CDp =  0.00908

 Side 1  free  transition at x/c =  0.8779   72
 Side 2  free  transition at x/c =  0.9065   74

 115   rms: 0.7089E-02   max: -.6336E-01   T at   72  1
       a = -0.500      CL =  0.2366
      Cm = -0.0758     CD =  0.01425   =>   CDf =  0.00525    CDp =  0.00899

 Side 1  free  transition at x/c =  0.8800   73
 Side 2  free  transition at x/c =  0.9064   74

 116   rms: 0.2218E-01   max: 0.1230E+00   D at   76  1
       a = -0.500      CL =  0.2322
      Cm = -0.0751     CD =  0.01434   =>   CDf =  0.00526    CDp =  0.00908

 Side 1  free  transition at x/c =  0.8779   72
 Side 2  free  transition at x/c =  0.9065   74

 117   rms: 0.7088E-02   max: -.6336E-01   T at   72  1
       a = -0.500      CL =  0.2366
      Cm = -0.0758     CD =  0.01425   =>   CDf =  0.00525    CDp =  0.00899

 Side 1  free  transition at x/c =  0.8801   73
 Side 2  free  transition at x/c =  0.9064   74

 118   rms: 0.2218E-01   max: 0.1230E+00   D at   76  1
       a = -0.500      CL =  0.2322
      Cm = -0.0751     CD =  0.01434   =>   CDf =  0.00526    CDp =  0.00908

 Side 1  free  transition at x/c =  0.8779   72
 Side 2  free  transition at x/c =  0.9065   74

 119   rms: 0.7088E-02   max: -.6335E-01   T at   72  1
       a = -0.500      CL =  0.2366
      Cm = -0.0758     CD =  0.01425   =>   CDf =  0.00525    CDp =  0.00899

 Side 1  free  transition at x/c =  0.8801   73
 Side 2  free  transition at x/c =  0.9064   74

 120   rms: 0.2218E-01   max: 0.1230E+00   D at   76  1
       a = -0.500      CL =  0.2322
      Cm = -0.0751     CD =  0.01434   =>   CDf =  0.00526    CDp =  0.00908

 Side 1  free  transition at x/c =  0.8779   72
 Side 2  free  transition at x/c =  0.9065   74

 121   rms: 0.7089E-02   max: -.6337E-01   T at   72  1
       a = -0.500      CL =  0.2366
      Cm = -0.0758     CD =  0.01425   =>   CDf =  0.00525    CDp =  0.00899

 Side 1  free  transition at x/c =  0.8801   73
 Side 2  free  transition at x/c =  0.9064   74

 122   rms: 0.2218E-01   max: 0.1230E+00   D at   76  1
       a = -0.500      CL =  0.2322
      Cm = -0.0751     CD =  0.01434   =>   CDf =  0.00526    CDp =  0.00908

 Side 1  free  transition at x/c =  0.8779   72
 Side 2  free  transition at x/c =  0.9065   74

 123   rms: 0.7089E-02   max: -.6337E-01   T at   72  1
       a = -0.500      CL =  0.2366
      Cm = -0.0758     CD =  0.01425   =>   CDf =  0.00525    CDp =  0.00899

 Side 1  free  transition at x/c =  0.8801   73
 Side 2  free  transition at x/c =  0.9064   74

 124   rms: 0.2218E-01   max: 0.1230E+00   D at   76  1
       a = -0.500      CL =  0.2322
      Cm = -0.0751     CD =  0.01434   =>   CDf =  0.00526    CDp =  0.00908

 Side 1  free  transition at x/c =  0.8779   72
 Side 2  free  transition at x/c =  0.9065   74

 125   rms: 0.7087E-02   max: -.6335E-01   T at   72  1
       a = -0.500      CL =  0.2366
      Cm = -0.0758     CD =  0.01425   =>   CDf =  0.00525    CDp =  0.00899

 Side 1  free  transition at x/c =  0.8800   73
 Side 2  free  transition at x/c =  0.9064   74

 126   rms: 0.2218E-01   max: 0.1230E+00   D at   76  1
       a = -0.500      CL =  0.2322
      Cm = -0.0751     CD =  0.01434   =>   CDf =  0.00526    CDp =  0.00908

 Side 1  free  transition at x/c =  0.8779   72
 Side 2  free  transition at x/c =  0.9065   74

 127   rms: 0.7086E-02   max: -.6334E-01   T at   72  1
       a = -0.500      CL =  0.2366
      Cm = -0.0758     CD =  0.01425   =>   CDf =  0.00525    CDp =  0.00899

 Side 1  free  transition at x/c =  0.8800   73
 Side 2  free  transition at x/c =  0.9064   74

 128   rms: 0.2218E-01   max: 0.1230E+00   D at   76  1
       a = -0.500      CL =  0.2322
      Cm = -0.0751     CD =  0.01434   =>   CDf =  0.00526    CDp =  0.00908

 Side 1  free  transition at x/c =  0.8779   72
 Side 2  free  transition at x/c =  0.9065   74

 129   rms: 0.7091E-02   max: -.6338E-01   T at   72  1
       a = -0.500      CL =  0.2366
      Cm = -0.0758     CD =  0.01425   =>   CDf =  0.00525    CDp =  0.00899

 Side 1  free  transition at x/c =  0.8801   73
 Side 2  free  transition at x/c =  0.9064   74

 130   rms: 0.2219E-01   max: 0.1231E+00   D at   76  1
       a = -0.500      CL =  0.2322
      Cm = -0.0751     CD =  0.01434   =>   CDf =  0.00526    CDp =  0.00908

 Side 1  free  transition at x/c =  0.8779   72
 Side 2  free  transition at x/c =  0.9065   74

 131   rms: 0.7088E-02   max: -.6335E-01   T at   72  1
       a = -0.500      CL =  0.2366
      Cm = -0.0758     CD =  0.01425   =>   CDf =  0.00525    CDp =  0.00899

 Side 1  free  transition at x/c =  0.8801   73
 Side 2  free  transition at x/c =  0.9064   74

 132   rms: 0.2218E-01   max: 0.1230E+00   D at   76  1
       a = -0.500      CL =  0.2322
      Cm = -0.0751     CD =  0.01434   =>   CDf =  0.00526    CDp =  0.00908

 Side 1  free  transition at x/c =  0.8779   72
 Side 2  free  transition at x/c =  0.9065   74

 133   rms: 0.7089E-02   max: -.6336E-01   T at   72  1
       a = -0.500      CL =  0.2366
      Cm = -0.0758     CD =  0.01425   =>   CDf =  0.00525    CDp =  0.00899

 Side 1  free  transition at x/c =  0.8801   73
 Side 2  free  transition at x/c =  0.9064   74

 134   rms: 0.2218E-01   max: 0.1230E+00   D at   76  1
       a = -0.500      CL =  0.2322
      Cm = -0.0751     CD =  0.01434   =>   CDf =  0.00526    CDp =  0.00908

 Side 1  free  transition at x/c =  0.8779   72
 Side 2  free  transition at x/c =  0.9065   74

 135   rms: 0.7090E-02   max: -.6337E-01   T at   72  1
       a = -0.500      CL =  0.2366
      Cm = -0.0758     CD =  0.01425   =>   CDf =  0.00525    CDp =  0.00899

 Side 1  free  transition at x/c =  0.8801   73
 Side 2  free  transition at x/c =  0.9064   74

 136   rms: 0.2218E-01   max: 0.1230E+00   D at   76  1
       a = -0.500      CL =  0.2322
      Cm = -0.0751     CD =  0.01434   =>   CDf =  0.00526    CDp =  0.00908

 Side 1  free  transition at x/c =  0.8779   72
 Side 2  free  transition at x/c =  0.9065   74

 137   rms: 0.7089E-02   max: -.6336E-01   T at   72  1
       a = -0.500      CL =  0.2366
      Cm = -0.0758     CD =  0.01425   =>   CDf =  0.00525    CDp =  0.00899

 Side 1  free  transition at x/c =  0.8801   73
 Side 2  free  transition at x/c =  0.9064   74

 138   rms: 0.2219E-01   max: 0.1231E+00   D at   76  1
       a = -0.500      CL =  0.2322
      Cm = -0.0751     CD =  0.01434   =>   CDf =  0.00526    CDp =  0.00908

 Side 1  free  transition at x/c =  0.8779   72
 Side 2  free  transition at x/c =  0.9065   74

 139   rms: 0.7089E-02   max: -.6337E-01   T at   72  1
       a = -0.500      CL =  0.2366
      Cm = -0.0758     CD =  0.01425   =>   CDf =  0.00525    CDp =  0.00899

 Side 1  free  transition at x/c =  0.8801   73
 Side 2  free  transition at x/c =  0.9064   74

 140   rms: 0.2218E-01   max: 0.1230E+00   D at   76  1
       a = -0.500      CL =  0.2322
      Cm = -0.0751     CD =  0.01434   =>   CDf =  0.00526    CDp =  0.00908

 Side 1  free  transition at x/c =  0.8779   72
 Side 2  free  transition at x/c =  0.9065   74

 141   rms: 0.7088E-02   max: -.6336E-01   T at   72  1
       a = -0.500      CL =  0.2366
      Cm = -0.0758     CD =  0.01425   =>   CDf =  0.00525    CDp =  0.00899

 Side 1  free  transition at x/c =  0.8801   73
 Side 2  free  transition at x/c =  0.9064   74

 142   rms: 0.2218E-01   max: 0.1230E+00   D at   76  1
       a = -0.500      CL =  0.2322
      Cm = -0.0751     CD =  0.01434   =>   CDf =  0.00526    CDp =  0.00908

 Side 1  free  transition at x/c =  0.8779   72
 Side 2  free  transition at x/c =  0.9065   74

 143   rms: 0.7087E-02   max: -.6335E-01   T at   72  1
       a = -0.500      CL =  0.2366
      Cm = -0.0758     CD =  0.01425   =>   CDf =  0.00525    CDp =  0.00899

 Side 1  free  transition at x/c =  0.8801   73
 Side 2  free  transition at x/c =  0.9064   74

 144   rms: 0.2218E-01   max: 0.1230E+00   D at   76  1
       a = -0.500      CL =  0.2322
      Cm = -0.0751     CD =  0.01434   =>   CDf =  0.00526    CDp =  0.00908

 Side 1  free  transition at x/c =  0.8779   72
 Side 2  free  transition at x/c =  0.9065   74

 145   rms: 0.7090E-02   max: -.6336E-01   T at   72  1
       a = -0.500      CL =  0.2366
      Cm = -0.0758     CD =  0.01425   =>   CDf =  0.00525    CDp =  0.00899

 Side 1  free  transition at x/c =  0.8801   73
 Side 2  free  transition at x/c =  0.9064   74

 146   rms: 0.2219E-01   max: 0.1231E+00   D at   76  1
       a = -0.500      CL =  0.2322
      Cm = -0.0751     CD =  0.01434   =>   CDf =  0.00526    CDp =  0.00908

 Side 1  free  transition at x/c =  0.8779   72
 Side 2  free  transition at x/c =  0.9065   74

 147   rms: 0.7089E-02   max: -.6336E-01   T at   72  1
       a = -0.500      CL =  0.2366
      Cm = -0.0758     CD =  0.01425   =>   CDf =  0.00525    CDp =  0.00899

 Side 1  free  transition at x/c =  0.8801   73
 Side 2  free  transition at x/c =  0.9064   74

 148   rms: 0.2219E-01   max: 0.1231E+00   D at   76  1
       a = -0.500      CL =  0.2322
      Cm = -0.0751     CD =  0.01434   =>   CDf =  0.00526    CDp =  0.00908

[...]
       a = 14.750      CL =  1.3328
      Cm = -0.0071     CD =  0.06648   =>   CDf =  0.00590    CDp =  0.06058

 Side 1  free  transition at x/c =  0.0392   32
 Side 2 forced transition at x/c =  1.0000   65

 110   rms: 0.1112E-01   max: 0.3811E-01   D at   76  1
       a = 14.750      CL =  1.3336
      Cm = -0.0071     CD =  0.06657   =>   CDf =  0.00599    CDp =  0.06058

 Side 1  free  transition at x/c =  0.0392   32
 Side 2 forced transition at x/c =  1.0000   65

 111   rms: 0.1257E-02   max: -.5306E-02   T at   32  1
       a = 14.750      CL =  1.3328
      Cm = -0.0071     CD =  0.06648   =>   CDf =  0.00590    CDp =  0.06058

 Side 1  free  transition at x/c =  0.0392   32
 Side 2 forced transition at x/c =  1.0000   65

 112   rms: 0.1113E-01   max: 0.3810E-01   D at   76  1
       a = 14.750      CL =  1.3336
      Cm = -0.0071     CD =  0.06657   =>   CDf =  0.00599    CDp =  0.06058

 Side 1  free  transition at x/c =  0.0392   32
 Side 2 forced transition at x/c =  1.0000   65

 113   rms: 0.1255E-02   max: -.5303E-02   T at   32  1
       a = 14.750      CL =  1.3328
      Cm = -0.0071     CD =  0.06648   =>   CDf =  0.00590    CDp =  0.06058

 Side 1  free  transition at x/c =  0.0392   32
 Side 2 forced transition at x/c =  1.0000   65

 114   rms: 0.1112E-01   max: 0.3810E-01   D at   76  1
       a = 14.750      CL =  1.3336
      Cm = -0.0071     CD =  0.06657   =>   CDf =  0.00599    CDp =  0.06058

 Side 1  free  transition at x/c =  0.0392   32
 Side 2 forced transition at x/c =  1.0000   65

 115   rms: 0.1257E-02   max: -.5309E-02   T at   32  1
       a = 14.750      CL =  1.3328
      Cm = -0.0071     CD =  0.06648   =>   CDf =  0.00590    CDp =  0.06058

 Side 1  free  transition at x/c =  0.0392   32
 Side 2 forced transition at x/c =  1.0000   65

 116   rms: 0.1113E-01   max: 0.3811E-01   D at   76  1
       a = 14.750      CL =  1.3336
      Cm = -0.0071     CD =  0.06657   =>   CDf =  0.00599    CDp =  0.06058

 Side 1  free  transition at x/c =  0.0392   32
 Side 2 forced transition at x/c =  1.0000   65

 117   rms: 0.1255E-02   max: -.5306E-02   T at   32  1
       a = 14.750      CL =  1.3328
      Cm = -0.0071     CD =  0.06648   =>   CDf =  0.00590    CDp =  0.06058

 Side 1  free  transition at x/c =  0.0392   32
 Side 2 forced transition at x/c =  1.0000   65

 118   rms: 0.1112E-01   max: 0.3809E-01   D at   76  1
       a = 14.750      CL =  1.3336
      Cm = -0.0071     CD =  0.06657   =>   CDf =  0.00599    CDp =  0.06058

 Side 1  free  transition at x/c =  0.0392   32
 Side 2 forced transition at x/c =  1.0000   65

 119   rms: 0.1256E-02   max: -.5312E-02   T at   32  1
       a = 14.750      CL =  1.3328
      Cm = -0.0071     CD =  0.06648   =>   CDf =  0.00590    CDp =  0.06058

 Side 1  free  transition at x/c =  0.0392   32
 Side 2 forced transition at x/c =  1.0000   65

 120   rms: 0.1112E-01   max: 0.3810E-01   D at   76  1
       a = 14.750      CL =  1.3336
      Cm = -0.0071     CD =  0.06657   =>   CDf =  0.00599    CDp =  0.06058

 Side 1  free  transition at x/c =  0.0392   32
 Side 2 forced transition at x/c =  1.0000   65

 121   rms: 0.1257E-02   max: -.5310E-02   T at   32  1
       a = 14.750      CL =  1.3328
      Cm = -0.0071     CD =  0.06648   =>   CDf =  0.00590    CDp =  0.06058

 Side 1  free  transition at x/c =  0.0392   32
 Side 2 forced transition at x/c =  1.0000   65

 122   rms: 0.1113E-01   max: 0.3811E-01   D at   76  1
       a = 14.750      CL =  1.3336
      Cm = -0.0071     CD =  0.06657   =>   CDf =  0.00599    CDp =  0.06058

 Side 1  free  transition at x/c =  0.0392   32
 Side 2 forced transition at x/c =  1.0000   65

 123   rms: 0.1256E-02   max: -.5311E-02   T at   32  1
       a = 14.750      CL =  1.3328
      Cm = -0.0071     CD =  0.06648   =>   CDf =  0.00590    CDp =  0.06058

 Side 1  free  transition at x/c =  0.0392   32
 Side 2 forced transition at x/c =  1.0000   65

 124   rms: 0.1113E-01   max: 0.3811E-01   D at   76  1
       a = 14.750      CL =  1.3336
      Cm = -0.0071     CD =  0.06657   =>   CDf =  0.00599    CDp =  0.06058

 Side 1  free  transition at x/c =  0.0392   32
 Side 2 forced transition at x/c =  1.0000   65

 125   rms: 0.1255E-02   max: -.5303E-02   T at   32  1
       a = 14.750      CL =  1.3328
      Cm = -0.0071     CD =  0.06648   =>   CDf =  0.00590    CDp =  0.06058

 Side 1  free  transition at x/c =  0.0392   32
 Side 2 forced transition at x/c =  1.0000   65

 126   rms: 0.1112E-01   max: 0.3810E-01   D at   76  1
       a = 14.750      CL =  1.3336
      Cm = -0.0071     CD =  0.06657   =>   CDf =  0.00599    CDp =  0.06058

 Side 1  free  transition at x/c =  0.0392   32
 Side 2 forced transition at x/c =  1.0000   65

 127   rms: 0.1256E-02   max: -.5309E-02   T at   32  1
       a = 14.750      CL =  1.3328
      Cm = -0.0071     CD =  0.06648   =>   CDf =  0.00590    CDp =  0.06058

 Side 1  free  transition at x/c =  0.0392   32
 Side 2 forced transition at x/c =  1.0000   65

 128   rms: 0.1113E-01   max: 0.3810E-01   D at   76  1
       a = 14.750      CL =  1.3336
      Cm = -0.0071     CD =  0.06657   =>   CDf =  0.00599    CDp =  0.06058

 Side 1  free  transition at x/c =  0.0392   32
 Side 2 forced transition at x/c =  1.0000   65

 129   rms: 0.1258E-02   max: -.5318E-02   T at   32  1
       a = 14.750      CL =  1.3328
      Cm = -0.0071     CD =  0.06648   =>   CDf =  0.00590    CDp =  0.06058

 Side 1  free  transition at x/c =  0.0392   32
 Side 2 forced transition at x/c =  1.0000   65

 130   rms: 0.1113E-01   max: 0.3811E-01   D at   76  1
       a = 14.750      CL =  1.3336
      Cm = -0.0071     CD =  0.06657   =>   CDf =  0.00599    CDp =  0.06058

 Side 1  free  transition at x/c =  0.0392   32
 Side 2 forced transition at x/c =  1.0000   65

 131   rms: 0.1255E-02   max: -.5302E-02   T at   32  1
       a = 14.750      CL =  1.3328
      Cm = -0.0071     CD =  0.06648   =>   CDf =  0.00590    CDp =  0.06058

 Side 1  free  transition at x/c =  0.0392   32
 Side 2 forced transition at x/c =  1.0000   65

 132   rms: 0.1113E-01   max: 0.3811E-01   D at   76  1
       a = 14.750      CL =  1.3336
      Cm = -0.0071     CD =  0.06657   =>   CDf =  0.00599    CDp =  0.06058

 Side 1  free  transition at x/c =  0.0392   32
 Side 2 forced transition at x/c =  1.0000   65

 133   rms: 0.1258E-02   max: -.5308E-02   T at   32  1
       a = 14.750      CL =  1.3328
      Cm = -0.0071     CD =  0.06648   =>   CDf =  0.00590    CDp =  0.06058

 Side 1  free  transition at x/c =  0.0392   32
 Side 2 forced transition at x/c =  1.0000   65

 134   rms: 0.1112E-01   max: 0.3811E-01   D at   76  1
       a = 14.750      CL =  1.3336
      Cm = -0.0071     CD =  0.06657   =>   CDf =  0.00599    CDp =  0.06058

 Side 1  free  transition at x/c =  0.0392   32
 Side 2 forced transition at x/c =  1.0000   65

 135   rms: 0.1257E-02   max: -.5307E-02   T at   32  1
       a = 14.750      CL =  1.3328
      Cm = -0.0071     CD =  0.06648   =>   CDf =  0.00590    CDp =  0.06058

 Side 1  free  transition at x/c =  0.0392   32
 Side 2 forced transition at x/c =  1.0000   65

 136   rms: 0.1113E-01   max: 0.3811E-01   D at   76  1
       a = 14.750      CL =  1.3336
      Cm = -0.0071     CD =  0.06657   =>   CDf =  0.00599    CDp =  0.06058

 Side 1  free  transition at x/c =  0.0392   32
 Side 2 forced transition at x/c =  1.0000   65

 137   rms: 0.1256E-02   max: -.5308E-02   T at   32  1
       a = 14.750      CL =  1.3328
      Cm = -0.0071     CD =  0.06648   =>   CDf =  0.00590    CDp =  0.06058

 Side 1  free  transition at x/c =  0.0392   32
 Side 2 forced transition at x/c =  1.0000   65

 138   rms: 0.1113E-01   max: 0.3810E-01   D at   76  1
       a = 14.750      CL =  1.3336
      Cm = -0.0071     CD =  0.06657   =>   CDf =  0.00599    CDp =  0.06058

 Side 1  free  transition at x/c =  0.0392   32
 Side 2 forced transition at x/c =  1.0000   65

 139   rms: 0.1258E-02   max: -.5311E-02   T at   32  1
       a = 14.750      CL =  1.3328
      Cm = -0.0071     CD =  0.06648   =>   CDf =  0.00590    CDp =  0.06058

 Side 1  free  transition at x/c =  0.0392   32
 Side 2 forced transition at x/c =  1.0000   65

 140   rms: 0.1113E-01   max: 0.3811E-01   D at   76  1
       a = 14.750      CL =  1.3336
      Cm = -0.0071     CD =  0.06657   =>   CDf =  0.00599    CDp =  0.06058

 Side 1  free  transition at x/c =  0.0392   32
 Side 2 forced transition at x/c =  1.0000   65

 141   rms: 0.1255E-02   max: -.5307E-02   T at   32  1
       a = 14.750      CL =  1.3328
      Cm = -0.0071     CD =  0.06648   =>   CDf =  0.00590    CDp =  0.06058

 Side 1  free  transition at x/c =  0.0392   32
 Side 2 forced transition at x/c =  1.0000   65

 142   rms: 0.1113E-01   max: 0.3811E-01   D at   76  1
       a = 14.750      CL =  1.3336
      Cm = -0.0071     CD =  0.06657   =>   CDf =  0.00599    CDp =  0.06058

 Side 1  free  transition at x/c =  0.0392   32
 Side 2 forced transition at x/c =  1.0000   65

 143   rms: 0.1255E-02   max: -.5302E-02   T at   32  1
       a = 14.750      CL =  1.3328
      Cm = -0.0071     CD =  0.06648   =>   CDf =  0.00590    CDp =  0.06058

 Side 1  free  transition at x/c =  0.0392   32
 Side 2 forced transition at x/c =  1.0000   65

 144   rms: 0.1113E-01   max: 0.3811E-01   D at   76  1
       a = 14.750      CL =  1.3336
      Cm = -0.0071     CD =  0.06657   =>   CDf =  0.00599    CDp =  0.06058

 Side 1  free  transition at x/c =  0.0392   32
 Side 2 forced transition at x/c =  1.0000   65

 145   rms: 0.1257E-02   max: -.5305E-02   T at   32  1
       a = 14.750      CL =  1.3328
      Cm = -0.0071     CD =  0.06648   =>   CDf =  0.00590    CDp =  0.06058

 Side 1  free  transition at x/c =  0.0392   32
 Side 2 forced transition at x/c =  1.0000   65

 146   rms: 0.1113E-01   max: 0.3810E-01   D at   76  1
       a = 14.750      CL =  1.3336
      Cm = -0.0071     CD =  0.06657   =>   CDf =  0.00599    CDp =  0.06058

 Side 1  free  transition at x/c =  0.0392   32
 Side 2 forced transition at x/c =  1.0000   65

 147   rms: 0.1257E-02   max: -.5314E-02   T at   32  1
       a = 14.750      CL =  1.3328
      Cm = -0.0071     CD =  0.06648   =>   CDf =  0.00590    CDp =  0.06058

 Side 1  free  transition at x/c =  0.0392   32
 Side 2 forced transition at x/c =  1.0000   65

 148   rms: 0.1113E-01   max: 0.3811E-01   D at   76  1
       a = 14.750      CL =  1.3336
      Cm = -0.0071     CD =  0.06657   =>   CDf =  0.00599    CDp =  0.06058

 Side 1  free  transition at x/c =  0.0392   32
 Side 2 forced transition at x/c =  1.0000   65

 149   rms: 0.1258E-02   max: -.5303E-02   T at   32  1
       a = 14.750      CL =  1.3328
      Cm = -0.0071     CD =  0.06648   =>   CDf =  0.00590    CDp =  0.06058

 Side 1  free  transition at x/c =  0.0392   32
 Side 2 forced transition at x/c =  1.0000   65

 150   rms: 0.1112E-01   max: 0.3810E-01   D at   76  1
       a = 14.750      CL =  1.3336
      Cm = -0.0071     CD =  0.06657   =>   CDf =  0.00599    CDp =  0.06058

 Side 1  free  transition at x/c =  0.0392   32
 Side 2 forced transition at x/c =  1.0000   65

 151   rms: 0.1255E-02   max: -.5302E-02   T at   32  1
       a = 14.750      CL =  1.3328
      Cm = -0.0071     CD =  0.06648   =>   CDf =  0.00590    CDp =  0.06058

 Side 1  free  transition at x/c =  0.0392   32
 Side 2 forced transition at x/c =  1.0000   65

 152   rms: 0.1112E-01   max: 0.3810E-01   D at   76  1
       a = 14.750      CL =  1.3336
      Cm = -0.0071     CD =  0.06657   =>   CDf =  0.00599    CDp =  0.06058

 Side 1  free  transition at x/c =  0.0392   32
 Side 2 forced transition at x/c =  1.0000   65

 153   rms: 0.1256E-02   max: -.5310E-02   T at   32  1
       a = 14.750      CL =  1.3328
      Cm = -0.0071     CD =  0.06648   =>   CDf =  0.00590    CDp =  0.06058

 Side 1  free  transition at x/c =  0.0392   32
 Side 2 forced transition at x/c =  1.0000   65

 154   rms: 0.1113E-01   max: 0.3811E-01   D at   76  1
       a = 14.750      CL =  1.3336
      Cm = -0.0071     CD =  0.06657   =>   CDf =  0.00599    CDp =  0.06058

 Side 1  free  transition at x/c =  0.0392   32
 Side 2 forced transition at x/c =  1.0000   65

 155   rms: 0.1256E-02   max: -.5308E-02   T at   32  1
       a = 14.750      CL =  1.3328
      Cm = -0.0071     CD =  0.06648   =>   CDf =  0.00590    CDp =  0.06058
 VISCAL:  Convergence failed
 Calculating wake trajectory ...
 Calculating source influence matrix ...

 Solving BL system ...

 Side 1  free  transition at x/c =  0.0392   32
 Side 2 forced transition at x/c =  1.0000   65

   1   rms: 0.4628E-01   max: 0.1730E+00   D at   76  1   RLX: 0.602
       a = 15.000      CL =  1.3210
      Cm = -0.0056     CD =  0.06878   =>   CDf =  0.00599    CDp =  0.06279

 Side 1  free  transition at x/c =  0.0391   32
 Side 2 forced transition at x/c =  1.0000   65

   2   rms: 0.2021E-01   max: 0.7255E-01   D at   79  1
       a = 15.000      CL =  1.3125
      Cm = -0.0057     CD =  0.07075   =>   CDf =  0.00575    CDp =  0.06500

 Side 1  free  transition at x/c =  0.0390   32
 Side 2 forced transition at x/c =  1.0000   65

   3   rms: 0.1624E-02   max: 0.1311E-01   D at   80  1
       a = 15.000      CL =  1.3115
      Cm = -0.0056     CD =  0.07048   =>   CDf =  0.00561    CDp =  0.06487

 Side 1  free  transition at x/c =  0.0391   32
 Side 2 forced transition at x/c =  1.0000   65

   4   rms: 0.7097E-04   max: -.3008E-03   D at   77  2
       a = 15.000      CL =  1.3115
      Cm = -0.0056     CD =  0.07047   =>   CDf =  0.00562    CDp =  0.06485
 plradd ia,ip,cpol           45           0  1.07345101E-03

 Point added to stored polar  1
 Point written to save file  l188tip_Re200k.base.pol                         
 Dump file unspecified or not available
 Calculating wake trajectory ...
 Calculating source influence matrix ...

 Solving BL system ...

 Side 1  free  transition at x/c =  0.0391   32
 Side 2 forced transition at x/c =  1.0000   65

   1   rms: 0.4114E-01   max: 0.1452E+00   D at   73  1   RLX: 0.565
       a = 15.250      CL =  1.2995
      Cm = -0.0051     CD =  0.07335   =>   CDf =  0.00563    CDp =  0.06773

 Side 1  free  transition at x/c =  0.0390   32
 Side 2 forced transition at x/c =  1.0000   65

   2   rms: 0.1912E-01   max: 0.7166E-01   D at   78  1
       a = 15.250      CL =  1.2891
      Cm = -0.0050     CD =  0.07547   =>   CDf =  0.00546    CDp =  0.07002

 Side 1  free  transition at x/c =  0.0389   32
 Side 2 forced transition at x/c =  1.0000   65

   3   rms: 0.1219E-02   max: 0.1172E-01   D at   77  1
       a = 15.250      CL =  1.2884
      Cm = -0.0049     CD =  0.07515   =>   CDf =  0.00534    CDp =  0.06981

 Side 1  free  transition at x/c =  0.0390   32
 Side 2 forced transition at x/c =  1.0000   65

   4   rms: 0.4364E-04   max: 0.2265E-03   T at   32  1
       a = 15.250      CL =  1.2884
      Cm = -0.0050     CD =  0.07514   =>   CDf =  0.00534    CDp =  0.06980
 plradd ia,ip,cpol           46           0  1.07345101E-03

 Point added to stored polar  1
 Point written to save file  l188tip_Re200k.base.pol                         
 Dump file unspecified or not available
 Calculating wake trajectory ...
 Calculating source influence matrix ...

 Solving BL system ...

 Side 1  free  transition at x/c =  0.0389   32
 Side 2 forced transition at x/c =  1.0000   65

   1   rms: 0.4350E-01   max: 0.1545E+00   D at   70  1   RLX: 0.533
       a = 15.500      CL =  1.2765
      Cm = -0.0049     CD =  0.07831   =>   CDf =  0.00535    CDp =  0.07296

 Side 1  free  transition at x/c =  0.0389   32
 Side 2 forced transition at x/c =  1.0000   65

   2   rms: 0.2152E-01   max: 0.8136E-01   D at   76  1
       a = 15.500      CL =  1.2649
      Cm = -0.0051     CD =  0.08094   =>   CDf =  0.00519    CDp =  0.07574

 Side 1  free  transition at x/c =  0.0389   32
 Side 2 forced transition at x/c =  1.0000   65

   3   rms: 0.1703E-02   max: 0.1664E-01   D at   75  1
       a = 15.500      CL =  1.2640
      Cm = -0.0051     CD =  0.08045   =>   CDf =  0.00507    CDp =  0.07538

 Side 1  free  transition at x/c =  0.0389   32
 Side 2 forced transition at x/c =  1.0000   65

   4   rms: 0.8119E-04   max: 0.3146E-03   T at   32  1
       a = 15.500      CL =  1.2640
      Cm = -0.0051     CD =  0.08044   =>   CDf =  0.00508    CDp =  0.07536
 plradd ia,ip,cpol           47           0  1.07345101E-03

 Point added to stored polar  1
 Point written to save file  l188tip_Re200k.base.pol                         
 Dump file unspecified or not available
 Calculating wake trajectory ...
 Calculating source influence matrix ...

 Solving BL system ...

 Side 1  free  transition at x/c =  0.0389   32
 Side 2 forced transition at x/c =  1.0000   65

   1   rms: 0.4637E-01   max: 0.1656E+00   D at   68  1   RLX: 0.504
       a = 15.750      CL =  1.2518
      Cm = -0.0056     CD =  0.08394   =>   CDf =  0.00509    CDp =  0.07885

 Side 1  free  transition at x/c =  0.0389   32
 Side 2 forced transition at x/c =  1.0000   65

   2   rms: 0.2431E-01   max: 0.8802E-01   D at   73  1
       a = 15.750      CL =  1.2388
      Cm = -0.0062     CD =  0.08713   =>   CDf =  0.00495    CDp =  0.08218

 Side 1  free  transition at x/c =  0.0389   32
 Side 2 forced transition at x/c =  1.0000   65

   3   rms: 0.1938E-02   max: 0.1537E-01   D at   72  1
       a = 15.750      CL =  1.2378
      Cm = -0.0062     CD =  0.08645   =>   CDf =  0.00482    CDp =  0.08162

 Side 1  free  transition at x/c =  0.0389   32
 Side 2 forced transition at x/c =  1.0000   65

   4   rms: 0.1208E-03   max: 0.4205E-03   T at   32  1
       a = 15.750      CL =  1.2378
      Cm = -0.0062     CD =  0.08643   =>   CDf =  0.00484    CDp =  0.08159

 Side 1  free  transition at x/c =  0.0389   32
 Side 2 forced transition at x/c =  1.0000   65

   5   rms: 0.7722E-05   max: 0.9594E-04   C at   65  2
       a = 15.750      CL =  1.2378
      Cm = -0.0062     CD =  0.08643   =>   CDf =  0.00483    CDp =  0.08160
 plradd ia,ip,cpol           48           0  1.07345101E-03

 Point added to stored polar  1
 Point written to save file  l188tip_Re200k.base.pol                         
 Dump file unspecified or not available
 Calculating wake trajectory ...
 Calculating source influence matrix ...

 Solving BL system ...

 Side 1  free  transition at x/c =  0.0389   32
 Side 2 forced transition at x/c =  1.0000   65

   1   rms: 0.4904E-01   max: 0.1766E+00   D at   66  1   RLX: 0.477
       a = 16.000      CL =  1.2259
      Cm = -0.0071     CD =  0.09011   =>   CDf =  0.00484    CDp =  0.08528

 Side 1  free  transition at x/c =  0.0389   32
 Side 2 forced transition at x/c =  1.0000   65

   2   rms: 0.2706E-01   max: 0.1007E+00   D at   71  1
       a = 16.000      CL =  1.2117
      Cm = -0.0084     CD =  0.09397   =>   CDf =  0.00471    CDp =  0.08925

 Side 1  free  transition at x/c =  0.0389   32
 Side 2 forced transition at x/c =  1.0000   65

   3   rms: 0.2510E-02   max: 0.1837E-01   D at   70  1
       a = 16.000      CL =  1.2105
      Cm = -0.0083     CD =  0.09320   =>   CDf =  0.00459    CDp =  0.08861

 Side 1  free  transition at x/c =  0.0389   32
 Side 2 forced transition at x/c =  1.0000   65

   4   rms: 0.1700E-03   max: 0.8726E-03   D at   82  2
       a = 16.000      CL =  1.2106
      Cm = -0.0083     CD =  0.09319   =>   CDf =  0.00461    CDp =  0.08858

 Side 1  free  transition at x/c =  0.0389   32
 Side 2 forced transition at x/c =  1.0000   65

   5   rms: 0.9118E-05   max: -.4528E-04   T at   32  1
       a = 16.000      CL =  1.2106
      Cm = -0.0083     CD =  0.09319   =>   CDf =  0.00461    CDp =  0.08859
 plradd ia,ip,cpol           49           0  1.07345101E-03

 Point added to stored polar  1
 Point written to save file  l188tip_Re200k.base.pol                         
 Dump file unspecified or not available

.OPERva   c>  
 Polar accumulation disabled

.OPERv   c>  
 XFOIL   c>  
 XFOIL   c>  