
 ===================================================
  XFOIL Version 6.99
  Copyright (C) 2000   Mark Drela, Harold Youngren

  This software comes with ABSOLUTELY NO WARRANTY,
    subject to the GNU General Public License.

  Caveat computor
 ===================================================

 File  xfoil.def  not found

   QUIT    Exit program

  .OPER    Direct operating point(s)
  .MDES    Complex mapping design routine
  .QDES    Surface speed design routine
  .GDES    Geometry design routine

   SAVE f  Write airfoil to labeled coordinate file
   PSAV f  Write airfoil to plain coordinate file
   ISAV f  Write airfoil to ISES coordinate file
   MSAV f  Write airfoil to MSES coordinate file
   REVE    Reverse written-airfoil node ordering

   LOAD f  Read buffer airfoil from coordinate file
   NACA i  Set NACA 4,5-digit airfoil and buffer airfoil
   INTE    Set buffer airfoil by interpolating two airfoils
   NORM    Buffer airfoil normalization toggle
   XYCM rr Change CM reference location, currently  0.25000 0.00000

   BEND    Display structural properties of current airfoil

   PCOP    Set current-airfoil panel nodes directly from buffer airfoil points
   PANE    Set current-airfoil panel nodes ( 160 ) based on curvature
  .PPAR    Show/change paneling

  .PLOP    Plotting options

   WDEF f  Write  current-settings file
   RDEF f  Reread current-settings file
   NAME s  Specify new airfoil name
   NINC    Increment name version number

   Z       Zoom    | (available in all menus)
   U       Unzoom  | 

 XFOIL   c>  
 Labeled airfoil file.  Name:   LISSAMAN 7769 AIRFOIL                          

 Number of input coordinate points:  33
 Counterclockwise ordering
 Max thickness =     0.109803  at x =   0.300
 Max camber    =     0.043351  at x =   0.300

  LE  x,y  =  -0.00007   0.00135  |   Chord =   1.00007
  TE  x,y  =   1.00000   0.00000  |

 Current airfoil nodes set from buffer airfoil nodes (  33 )

 WARNING: Poor input coordinate distribution
          Excessive panel angle   66.4  at i =  17
          Repaneling with PANE and/or PPAR suggested
           (doing GDES,CADD before repaneling _may_
            improve excessively coarse LE spacing

 XFOIL   c>  
 XFOIL   c>  
 Sharp trailing edge

 Paneling parameters used...
   Number of panel nodes       160
   Panel bunching parameter    1.000
   TE/LE panel density ratio   0.150
   Refined-area/LE panel density ratio    0.200
   Top    side refined area x/c limits  1.000 1.000
   Bottom side refined area x/c limits  1.000 1.000

 XFOIL   c>  
.OPERi   c>  
 Xtr/c     =  1.0000    top    side
 Xtr/c     =  1.0000    bottom side
 Ncrit     =    9.00   ( 0.070 % turb. level )
 Vacc      =  0.0100

 Klag  =  5.6000     Uxwt  =    1.00
 A     =  6.7000     B     =  0.7500       KCt = 0.01485
 CtiniK=  1.8000     CtiniX=  3.3000

..VPAR   c>  
..VPAR   c>  
.OPERi   c>  
 M  =    0.0000
 Re =    150000

.OPERv   c>  
.OPERv   c>  
.OPERv   c>  
 Polar  1 newly created for accumulation
 Airfoil archived with polar: LISSAMAN 7769 AIRFOIL                           

Enter  polar save filename  OR  <return> for no file   s>  
 New polar save file available

Enter  polar dump filename  OR  <return> for no file   s>  
 Polar dump file will NOT be written

 Polar accumulation enabled

.OPERva   c>   Calculating unit vorticity distributions ...
 Calculating wake trajectory ...
 Calculating source influence matrix ...

 Solving BL system ...

 Initializing BL ...
    side            1  ...
 MRCHUE: Inverse mode at  36     Hk =   3.800
 MRCHUE: Inverse mode at  37     Hk =   4.312
 MRCHUE: Inverse mode at  38     Hk =   4.812
 MRCHUE: Inverse mode at  39     Hk =   5.304
 MRCHUE: Inverse mode at  40     Hk =   5.791
 MRCHUE: Inverse mode at  41     Hk =   6.273
 MRCHUE: Inverse mode at  42     Hk =   6.752
 MRCHUE: Inverse mode at  43     Hk =   7.225
 MRCHUE: Inverse mode at  44     Hk =   7.691
 MRCHUE: Inverse mode at  45     Hk =   8.147
 MRCHUE: Inverse mode at  46     Hk =   8.591
 MRCHUE: Inverse mode at  47     Hk =   9.024
 MRCHUE: Inverse mode at  48     Hk =   9.447
 MRCHUE: Inverse mode at  49     Hk =   9.860
 MRCHUE: Inverse mode at  50     Hk =   8.598
 MRCHUE: Inverse mode at  51     Hk =   7.120
 MRCHUE: Inverse mode at  52     Hk =   6.066
 MRCHUE: Inverse mode at  53     Hk =   5.237
 MRCHUE: Inverse mode at  54     Hk =   4.550
 MRCHUE: Inverse mode at  55     Hk =   3.964
 MRCHUE: Inverse mode at  56     Hk =   3.457
 MRCHUE: Inverse mode at  57     Hk =   3.012
    side            2  ...
 MRCHUE: Inverse mode at  22     Hk =   3.800
 MRCHUE: Inverse mode at  23     Hk =   4.402
 MRCHUE: Convergence failed at  24  side 2    Res =  0.4109E+01
 MRCHUE: Inverse mode at  25     Hk =   5.076
 MRCHUE: Inverse mode at  26     Hk =   5.759
 MRCHUE: Inverse mode at  27     Hk =   6.456
 MRCHUE: Inverse mode at  28     Hk =   7.172
 MRCHUE: Inverse mode at  29     Hk =   7.927
 MRCHUE: Inverse mode at  30     Hk =   8.749
 MRCHUE: Inverse mode at  31     Hk =   9.640
 MRCHUE: Inverse mode at  32     Hk =   6.914
 MRCHUE: Inverse mode at  33     Hk =   4.025
 MRCHUE: Inverse mode at  34     Hk =   2.500
 MRCHUE: Inverse mode at  35     Hk =   2.500
 MRCHUE: Inverse mode at  36     Hk =   2.500
 MRCHUE: Inverse mode at  37     Hk =   2.500
 MRCHUE: Inverse mode at  38     Hk =   2.500
 MRCHUE: Inverse mode at  39     Hk =   2.500
 MRCHUE: Inverse mode at  40     Hk =   2.500
 MRCHUE: Inverse mode at  41     Hk =   2.500
 MRCHUE: Inverse mode at  42     Hk =   2.500

 MRCHDU: Convergence failed at  33  side 2    Res =  0.3590E+01
 MRCHDU: Convergence failed at  34  side 2    Res =  0.7835E+01
 MRCHDU: Convergence failed at  35  side 2    Res =  0.1010E+02
 MRCHDU: Convergence failed at  36  side 2    Res =  0.6740E+01
 MRCHDU: Convergence failed at  37  side 2    Res =  0.8284E+02
 MRCHDU: Convergence failed at  38  side 2    Res =  0.4062E+02
 MRCHDU: Convergence failed at  39  side 2    Res =  0.1660E+02
 MRCHDU: Convergence failed at  40  side 2    Res =  0.4940E+02
 MRCHDU: Convergence failed at  41  side 2    Res =  0.6285E+02
 MRCHDU: Convergence failed at  42  side 2    Res =  0.1238E+03
 MRCHDU: Convergence failed at  43  side 2    Res =  0.4616E+02
 MRCHDU: Convergence failed at  44  side 2    Res =  0.2339E+02
 MRCHDU: Convergence failed at  45  side 2    Res =  0.1349E+02
 MRCHDU: Convergence failed at  46  side 2    Res =  0.2114E+02
 MRCHDU: Convergence failed at  47  side 2    Res =  0.3256E+02
 MRCHDU: Convergence failed at  48  side 2    Res =  0.3213E+02
 MRCHDU: Convergence failed at  49  side 2    Res =  0.1379E+03
 MRCHDU: Convergence failed at  50  side 2    Res =  0.3608E+03
 MRCHDU: Convergence failed at  51  side 2    Res =  0.1649E+03
 MRCHDU: Convergence failed at  52  side 2    Res =  0.6006E+02
 MRCHDU: Convergence failed at  53  side 2    Res =  0.5115E+02
 MRCHDU: Convergence failed at  54  side 2    Res =  0.4614E+02
 MRCHDU: Convergence failed at  55  side 2    Res =  0.4266E+02
 MRCHDU: Convergence failed at  56  side 2    Res =  0.4046E+02
 MRCHDU: Convergence failed at  57  side 2    Res =  0.5535E+02
 MRCHDU: Convergence failed at  58  side 2    Res =  0.5809E+02
 MRCHDU: Convergence failed at  59  side 2    Res =  0.5710E+02
 MRCHDU: Convergence failed at  60  side 2    Res =  0.6290E+02
 MRCHDU: Convergence failed at  61  side 2    Res =  0.2398E+02
 MRCHDU: Convergence failed at  62  side 2    Res =  0.2408E+02
 MRCHDU: Convergence failed at  63  side 2    Res =  0.2433E+02
 MRCHDU: Convergence failed at  64  side 2    Res =  0.2468E+02
 MRCHDU: Convergence failed at  65  side 2    Res =  0.2501E+02
 MRCHDU: Convergence failed at  66  side 2    Res =  0.2540E+02
 MRCHDU: Convergence failed at  67  side 2    Res =  0.2582E+02
 MRCHDU: Convergence failed at  68  side 2    Res =  0.2627E+02
 MRCHDU: Convergence failed at  69  side 2    Res =  0.2677E+02
 MRCHDU: Convergence failed at  70  side 2    Res =  0.2732E+02
 MRCHDU: Convergence failed at  71  side 2    Res =  0.2794E+02
 MRCHDU: Convergence failed at  72  side 2    Res =  0.2860E+02
 MRCHDU: Convergence failed at  73  side 2    Res =  0.2927E+02
 MRCHDU: Convergence failed at  74  side 2    Res =  0.2995E+02
 MRCHDU: Convergence failed at  75  side 2    Res =  0.2580E+02
 MRCHDU: Convergence failed at  76  side 2    Res =  0.2640E+02
 MRCHDU: Convergence failed at  77  side 2    Res =  0.2711E+02
 MRCHDU: Convergence failed at  78  side 2    Res =  0.2786E+02
 MRCHDU: Convergence failed at  79  side 2    Res =  0.2871E+02
 MRCHDU: Convergence failed at  80  side 2    Res =  0.2983E+02
 MRCHDU: Convergence failed at  81  side 2    Res =  0.3142E+02
 MRCHDU: Convergence failed at  82  side 2    Res =  0.3420E+02
 MRCHDU: Convergence failed at  83  side 2    Res =  0.3569E+02
 MRCHDU: Convergence failed at  84  side 2    Res =  0.4237E+02
 MRCHDU: Convergence failed at  85  side 2    Res =  0.5526E+02
 MRCHDU: Convergence failed at  86  side 2    Res =  0.1255E+03
 MRCHDU: Convergence failed at  87  side 2    Res =  0.7124E+02
 Side 1  free  transition at x/c =  0.6008   50
 Side 2  free  transition at x/c =  0.0934   32

   1   rms: 0.1425E+01   max: 0.6217E+01   T at   32  2   RLX: 0.241
       a = -4.000      CL = -1.3866
      Cm =  0.3394     CD =  0.01236   =>   CDf =  0.00428    CDp =  0.00808

 MRCHDU: Convergence failed at  32  side 2    Res =  0.1465E+03
 MRCHDU: Convergence failed at  45  side 2    Res =  0.1270E+00
 MRCHDU: Convergence failed at  46  side 2    Res =  0.1221E+00
 MRCHDU: Convergence failed at  47  side 2    Res =  0.1177E+00
 MRCHDU: Convergence failed at  48  side 2    Res =  0.1136E+00
 MRCHDU: Convergence failed at  49  side 2    Res =  0.1103E+00
 MRCHDU: Convergence failed at  50  side 2    Res =  0.1073E+00
 MRCHDU: Convergence failed at  51  side 2    Res =  0.1039E+00
 MRCHDU: Convergence failed at  52  side 2    Res =  0.1005E+00
 MRCHDU: Convergence failed at  53  side 2    Res =  0.9721E-01
 MRCHDU: Convergence failed at  82  side 2    Res =  0.1880E+01
 MRCHDU: Convergence failed at  83  side 2    Res =  0.1393E+01
 MRCHDU: Convergence failed at  84  side 2    Res =  0.1524E+01
 MRCHDU: Convergence failed at  85  side 2    Res =  0.2012E+02
 MRCHDU: Convergence failed at  86  side 2    Res =  0.3765E+01
 MRCHDU: Convergence failed at  87  side 2    Res =  0.6993E+00
 Side 1  free  transition at x/c =  0.5927   49
 Side 2  free  transition at x/c =  0.0798   31

   2   rms: 0.6128E+00   max: 0.2778E+01   T at   31  2   RLX: 0.393
       a = -4.000      CL = -0.6145
      Cm =  0.0934     CD =  0.02886   =>   CDf =  0.00646    CDp =  0.02240

 Side 1  free  transition at x/c =  0.5741   49
 Side 2  free  transition at x/c =  0.0786   30

   3   rms: 0.3818E+00   max: 0.3513E+00   D at   96  2   RLX: 0.468
       a = -4.000      CL = -0.3108
      Cm =  0.0059     CD =  0.03643   =>   CDf =  0.00587    CDp =  0.03057

 Side 1  free  transition at x/c =  0.5662   49
 Side 2  free  transition at x/c =  0.0922   31

   4   rms: 0.3051E+00   max: -.1095E+01   D at   66  2   RLX: 0.457
       a = -4.000      CL = -0.1442
      Cm = -0.0443     CD =  0.03579   =>   CDf =  0.00549    CDp =  0.03030

 Side 1  free  transition at x/c =  0.5645   49
 Side 2  free  transition at x/c =  0.0970   31

   5   rms: 0.2111E+00   max: -.8881E+00   D at   71  2   RLX: 0.563
       a = -4.000      CL = -0.0976
      Cm = -0.0547     CD =  0.03937   =>   CDf =  0.00600    CDp =  0.03337

 Side 1  free  transition at x/c =  0.5633   49
 Side 2  free  transition at x/c =  0.1007   32

   6   rms: 0.1786E+00   max: 0.1193E+01   T at   32  2   RLX: 0.903
       a = -4.000      CL = -0.1350
      Cm = -0.0436     CD =  0.03849   =>   CDf =  0.00677    CDp =  0.03172

 MRCHDU: Convergence failed at  39  side 2    Res =  0.5124E+01
 MRCHDU: Convergence failed at  40  side 2    Res =  0.4188E+01
 MRCHDU: Convergence failed at  41  side 2    Res =  0.2802E+01
 MRCHDU: Convergence failed at  42  side 2    Res =  0.2396E+01
 MRCHDU: Convergence failed at  43  side 2    Res =  0.1981E+01
 MRCHDU: Convergence failed at  44  side 2    Res =  0.1375E+01
 MRCHDU: Convergence failed at  45  side 2    Res =  0.1289E+01
 MRCHDU: Convergence failed at  46  side 2    Res =  0.1198E+01
 MRCHDU: Convergence failed at  47  side 2    Res =  0.1165E+01
 MRCHDU: Convergence failed at  48  side 2    Res =  0.1536E+01
 MRCHDU: Convergence failed at  49  side 2    Res =  0.1780E+01
 MRCHDU: Convergence failed at  50  side 2    Res =  0.2126E+01
 MRCHDU: Convergence failed at  51  side 2    Res =  0.2605E+01
 MRCHDU: Convergence failed at  52  side 2    Res =  0.3650E+01
 MRCHDU: Convergence failed at  53  side 2    Res =  0.6085E+01
 MRCHDU: Convergence failed at  54  side 2    Res =  0.2805E+01
 MRCHDU: Convergence failed at  55  side 2    Res =  0.3198E+01
 MRCHDU: Convergence failed at  56  side 2    Res =  0.3712E+01
 MRCHDU: Convergence failed at  57  side 2    Res =  0.4446E+01
 MRCHDU: Convergence failed at  58  side 2    Res =  0.5517E+01
 MRCHDU: Convergence failed at  59  side 2    Res =  0.7162E+01
 MRCHDU: Convergence failed at  60  side 2    Res =  0.1018E+02
 MRCHDU: Convergence failed at  61  side 2    Res =  0.1949E+02
 MRCHDU: Convergence failed at  62  side 2    Res =  0.8288E+02
 MRCHDU: Convergence failed at  63  side 2    Res =  0.3781E+02
 MRCHDU: Convergence failed at  64  side 2    Res =  0.1525E+02
 MRCHDU: Convergence failed at  65  side 2    Res =  0.9320E+01
 MRCHDU: Convergence failed at  66  side 2    Res =  0.6421E+01
 MRCHDU: Convergence failed at  67  side 2    Res =  0.4723E+01
 MRCHDU: Convergence failed at  68  side 2    Res =  0.3750E+01
 MRCHDU: Convergence failed at  69  side 2    Res =  0.3172E+01
 MRCHDU: Convergence failed at  70  side 2    Res =  0.2983E+01
 MRCHDU: Convergence failed at  71  side 2    Res =  0.2888E+01
 MRCHDU: Convergence failed at  72  side 2    Res =  0.2823E+01
 MRCHDU: Convergence failed at  73  side 2    Res =  0.2832E+01
 MRCHDU: Convergence failed at  74  side 2    Res =  0.2869E+01
 MRCHDU: Convergence failed at  75  side 2    Res =  0.2935E+01
 MRCHDU: Convergence failed at  76  side 2    Res =  0.3033E+01
 MRCHDU: Convergence failed at  77  side 2    Res =  0.3185E+01
 MRCHDU: Convergence failed at  78  side 2    Res =  0.3495E+01
 MRCHDU: Convergence failed at  79  side 2    Res =  0.3461E+01
 MRCHDU: Convergence failed at  80  side 2    Res =  0.2888E+01
 MRCHDU: Convergence failed at  81  side 2    Res =  0.3267E+01
 MRCHDU: Convergence failed at  82  side 2    Res =  0.3778E+01
 MRCHDU: Convergence failed at  83  side 2    Res =  0.4476E+01
 MRCHDU: Convergence failed at  84  side 2    Res =  0.5184E+01
 MRCHDU: Convergence failed at  85  side 2    Res =  0.6059E+01
 MRCHDU: Convergence failed at  86  side 2    Res =  0.7940E+01
 Side 1  free  transition at x/c =  0.5632   49
 Side 2  free  transition at x/c =  0.0936   31

   7   rms: 0.3855E+00   max: 0.7099E+01   T at   31  2   RLX: 0.210
       a = -4.000      CL = -0.3533
      Cm =  0.0469     CD =  0.02996   =>   CDf =  0.00535    CDp =  0.02461

 Side 1  free  transition at x/c =  0.5630   48
 Side 2  free  transition at x/c =  0.0876   31
 idif Ue xi dudx           1  0.12568212      3.00002098E-03   41.893745    
 Uenew xinew           2  1.38487052E-02  3.30567360E-04

   8   rms: 0.3117E+00   max: 0.1330E+01   T at   31  2
       a = -4.000      CL = -0.1790
      Cm = -0.0346     CD =  0.03317   =>   CDf =  0.00953    CDp =  0.02364

 MRCHDU: Convergence failed at  32  side 2    Res =  0.1422E+03
 MRCHDU: Convergence failed at  33  side 2    Res =  0.3445E+02
 MRCHDU: Convergence failed at  34  side 2    Res =  0.7656E+02
 MRCHDU: Convergence failed at  35  side 2    Res =  0.4995E+02
 MRCHDU: Convergence failed at  36  side 2    Res =  0.1169E+04
 MRCHDU: Convergence failed at  37  side 2    Res =  0.7377E+02
 MRCHDU: Convergence failed at  38  side 2    Res =  0.5484E+02
 MRCHDU: Convergence failed at  39  side 2    Res =  0.2030E+04
 MRCHDU: Convergence failed at  40  side 2    Res =  0.6857E+04
 MRCHDU: Convergence failed at  41  side 2    Res =  0.2065E+03
 MRCHDU: Convergence failed at  42  side 2    Res =  0.2352E+03
 MRCHDU: Convergence failed at  43  side 2    Res =  0.2570E+03
 MRCHDU: Convergence failed at  44  side 2    Res =  0.9426E+02
 MRCHDU: Convergence failed at  45  side 2    Res =  0.3855E+03
 MRCHDU: Convergence failed at  46  side 2    Res =  0.1869E+03
 MRCHDU: Convergence failed at  47  side 2    Res =  0.7535E+02
 MRCHDU: Convergence failed at  48  side 2    Res =  0.6994E+02
 MRCHDU: Convergence failed at  49  side 2    Res =  0.7699E+02
 MRCHDU: Convergence failed at  50  side 2    Res =  0.7716E+02
 MRCHDU: Convergence failed at  51  side 2    Res =  0.8964E+02
 MRCHDU: Convergence failed at  52  side 2    Res =  0.8900E+02
 MRCHDU: Convergence failed at  53  side 2    Res =  0.9190E+02
 MRCHDU: Convergence failed at  54  side 2    Res =  0.9602E+02
 MRCHDU: Convergence failed at  55  side 2    Res =  0.1658E+03
 MRCHDU: Convergence failed at  56  side 2    Res =  0.3027E+03
 MRCHDU: Convergence failed at  57  side 2    Res =  0.7830E+02
 MRCHDU: Convergence failed at  58  side 2    Res =  0.1574E+03
 MRCHDU: Convergence failed at  59  side 2    Res =  0.2597E+03
 MRCHDU: Convergence failed at  60  side 2    Res =  0.1153E+04
 MRCHDU: Convergence failed at  61  side 2    Res =  0.7594E+02
 MRCHDU: Convergence failed at  62  side 2    Res =  0.7678E+02
 MRCHDU: Convergence failed at  63  side 2    Res =  0.7777E+02
 MRCHDU: Convergence failed at  64  side 2    Res =  0.7892E+02
 MRCHDU: Convergence failed at  65  side 2    Res =  0.8019E+02
 MRCHDU: Convergence failed at  66  side 2    Res =  0.8159E+02
 MRCHDU: Convergence failed at  67  side 2    Res =  0.8309E+02
 MRCHDU: Convergence failed at  68  side 2    Res =  0.8470E+02
 MRCHDU: Convergence failed at  69  side 2    Res =  0.8643E+02
 MRCHDU: Convergence failed at  70  side 2    Res =  0.8823E+02
 MRCHDU: Convergence failed at  71  side 2    Res =  0.9011E+02
 MRCHDU: Convergence failed at  72  side 2    Res =  0.9202E+02
 MRCHDU: Convergence failed at  73  side 2    Res =  0.9387E+02
 MRCHDU: Convergence failed at  74  side 2    Res =  0.9563E+02
 MRCHDU: Convergence failed at  75  side 2    Res =  0.9721E+02
 MRCHDU: Convergence failed at  76  side 2    Res =  0.1073E+03
 MRCHDU: Convergence failed at  77  side 2    Res =  0.1101E+03
 MRCHDU: Convergence failed at  78  side 2    Res =  0.1131E+03
 MRCHDU: Convergence failed at  79  side 2    Res =  0.1164E+03
 MRCHDU: Convergence failed at  80  side 2    Res =  0.1293E+03
 MRCHDU: Convergence failed at  81  side 2    Res =  0.5744E+03
 MRCHDU: Convergence failed at  82  side 2    Res =  0.6307E+02
 MRCHDU: Convergence failed at  83  side 2    Res =  0.6720E+02
 MRCHDU: Convergence failed at  84  side 2    Res =  0.7343E+02
 MRCHDU: Convergence failed at  85  side 2    Res =  0.8125E+02
 MRCHDU: Convergence failed at  86  side 2    Res =  0.8437E+02
 MRCHDU: Convergence failed at  87  side 2    Res =  0.1215E+03
 Side 1  free  transition at x/c =  0.5649   48
 Side 2  free  transition at x/c =  0.0824   31

   9   rms: 0.1098E+01   max: -.7262E+01   T at   31  2   RLX: 0.069
       a = -4.000      CL = -1.3523
      Cm =  0.3575     CD =  0.01234   =>   CDf =  0.00461    CDp =  0.00773

 Side 1  free  transition at x/c =  0.5645   49
 Side 2  free  transition at x/c =  0.0849   30
 idif Ue xi dudx           1  9.53848734E-02  2.76005268E-03   34.559078    
 Uenew xinew           2  3.13102012E-03  9.05990601E-05

  10   rms: 0.7390E+00   max: 0.3080E+01   D at   93  2   RLX: 0.253
       a = -4.000      CL = -0.8595
      Cm =  0.1881     CD =  0.06967   =>   CDf =  0.00488    CDp =  0.06479

 MRCHDU: Convergence failed at  94  side 2    Res =  0.3854E+01
 MRCHDU: Convergence failed at  95  side 2    Res =  0.1818E+01
 MRCHDU: Convergence failed at  96  side 2    Res =  0.1050E+01
 MRCHDU: Convergence failed at  97  side 2    Res =  0.1261E+01
 MRCHDU: Convergence failed at  98  side 2    Res =  0.1942E+01
 MRCHDU: Convergence failed at  99  side 2    Res =  0.3336E+01
 Side 1  free  transition at x/c =  0.5694   48
 Side 2  free  transition at x/c =  0.0849   31

  11   rms: 0.4927E+00   max: 0.2502E+01   T at    2  2   RLX: 0.385
       a = -4.000      CL = -0.5465
      Cm =  0.0993     CD =  0.07824   =>   CDf =  0.00542    CDp =  0.07282

 Side 1  free  transition at x/c =  0.5683   49
 Side 2  free  transition at x/c =  0.0854   30

  12   rms: 0.3614E+00   max: -.1021E+01   C at  104  2   RLX: 0.490
       a = -4.000      CL = -0.3173
      Cm =  0.0257     CD =  0.07893   =>   CDf =  0.00555    CDp =  0.07338

 Side 1  free  transition at x/c =  0.5672   49
 Side 2  free  transition at x/c =  0.1027   32
 idif Ue xi dudx           1  0.12349068      3.34966183E-03   36.866611    
 Uenew xinew           2  2.50769723E-02  6.80208206E-04

  13   rms: 0.8463E+00   max: 0.6432E+01   T at   32  2   RLX: 0.211
       a = -4.000      CL = -0.2025
      Cm = -0.0494     CD =  0.06182   =>   CDf =  0.00535    CDp =  0.05647

 MRCHDU: Convergence failed at  33  side 2    Res =  0.1926E+03
 MRCHDU: Convergence failed at  34  side 2    Res =  0.1272E+03
 MRCHDU: Convergence failed at  35  side 2    Res =  0.7473E+02
 MRCHDU: Convergence failed at  36  side 2    Res =  0.6166E+02
 MRCHDU: Convergence failed at  37  side 2    Res =  0.1084E+03
 MRCHDU: Convergence failed at  38  side 2    Res =  0.4313E+02
 MRCHDU: Convergence failed at  39  side 2    Res =  0.5830E+02
 MRCHDU: Convergence failed at  40  side 2    Res =  0.9025E+02
 MRCHDU: Convergence failed at  41  side 2    Res =  0.6761E+02
 MRCHDU: Convergence failed at  42  side 2    Res =  0.8045E+02
 MRCHDU: Convergence failed at  43  side 2    Res =  0.5960E+02
 MRCHDU: Convergence failed at  44  side 2    Res =  0.5176E+02
 MRCHDU: Convergence failed at  45  side 2    Res =  0.1518E+03
 MRCHDU: Convergence failed at  46  side 2    Res =  0.2090E+03
 MRCHDU: Convergence failed at  47  side 2    Res =  0.3310E+03
 MRCHDU: Convergence failed at  48  side 2    Res =  0.1676E+03
 MRCHDU: Convergence failed at  49  side 2    Res =  0.1978E+03
 MRCHDU: Convergence failed at  50  side 2    Res =  0.4109E+03
 MRCHDU: Convergence failed at  51  side 2    Res =  0.2425E+03
 MRCHDU: Convergence failed at  52  side 2    Res =  0.4116E+03
 MRCHDU: Convergence failed at  53  side 2    Res =  0.2540E+03
 MRCHDU: Convergence failed at  54  side 2    Res =  0.9774E+02
 MRCHDU: Convergence failed at  55  side 2    Res =  0.8651E+02
 MRCHDU: Convergence failed at  56  side 2    Res =  0.7704E+02
 MRCHDU: Convergence failed at  57  side 2    Res =  0.6893E+02
 MRCHDU: Convergence failed at  58  side 2    Res =  0.6774E+02
 MRCHDU: Convergence failed at  59  side 2    Res =  0.1121E+03
 MRCHDU: Convergence failed at  60  side 2    Res =  0.7245E+02
 MRCHDU: Convergence failed at  61  side 2    Res =  0.8529E+02
 MRCHDU: Convergence failed at  62  side 2    Res =  0.6982E+02
 MRCHDU: Convergence failed at  63  side 2    Res =  0.1045E+03
 MRCHDU: Convergence failed at  64  side 2    Res =  0.2712E+03
 MRCHDU: Convergence failed at  65  side 2    Res =  0.1517E+03
 MRCHDU: Convergence failed at  66  side 2    Res =  0.1785E+03
 MRCHDU: Convergence failed at  67  side 2    Res =  0.2845E+03
 MRCHDU: Convergence failed at  68  side 2    Res =  0.9377E+02
 MRCHDU: Convergence failed at  69  side 2    Res =  0.2910E+03
 MRCHDU: Convergence failed at  70  side 2    Res =  0.1386E+04
 MRCHDU: Convergence failed at  71  side 2    Res =  0.4980E+05
 MRCHDU: Convergence failed at  72  side 2    Res =  0.3170E+04
 MRCHDU: Convergence failed at  73  side 2    Res =  0.5772E+03
 MRCHDU: Convergence failed at  74  side 2    Res =  0.1771E+03
 MRCHDU: Convergence failed at  75  side 2    Res =  0.1520E+03
 MRCHDU: Convergence failed at  76  side 2    Res =  0.1283E+03
 MRCHDU: Convergence failed at  77  side 2    Res =  0.8972E+02
 MRCHDU: Convergence failed at  78  side 2    Res =  0.7663E+02
 MRCHDU: Convergence failed at  79  side 2    Res =  0.7260E+02
 MRCHDU: Convergence failed at  80  side 2    Res =  0.7640E+02
 MRCHDU: Convergence failed at  81  side 2    Res =  0.1427E+03
 MRCHDU: Convergence failed at  82  side 2    Res =  0.9193E+02
 MRCHDU: Convergence failed at  83  side 2    Res =  0.8875E+02
 MRCHDU: Convergence failed at  84  side 2    Res =  0.1106E+03
 MRCHDU: Convergence failed at  85  side 2    Res =  0.9591E+02
 MRCHDU: Convergence failed at  86  side 2    Res =  0.3140E+03
 MRCHDU: Convergence failed at  87  side 2    Res =  0.3087E+03
 Side 1  free  transition at x/c =  0.5702   48
 Side 2  free  transition at x/c =  0.0874   32

  14   rms: 0.9521E+00   max: 0.9836E+01   T at   32  2   RLX: 0.152
       a = -4.000      CL = -1.1000
      Cm =  0.2720     CD =  0.02271   =>   CDf =  0.00526    CDp =  0.01745

 Side 1  free  transition at x/c =  0.5683   49
 Side 2  free  transition at x/c =  0.0834   30

  15   rms: 0.5327E+00   max: -.2175E+01   T at   30  2   RLX: 0.230
       a = -4.000      CL = -0.6619
      Cm =  0.1283     CD =  0.08363   =>   CDf =  0.00539    CDp =  0.07824

 Side 1  free  transition at x/c =  0.5676   49
 Side 2  free  transition at x/c =  0.0859   31

  16   rms: 0.1384E+02   max: -.1096E+03   T at   31  2   RLX: 0.005
       a = -4.000      CL = -0.6667
      Cm =  0.1329     CD =  0.11119   =>   CDf =  0.00549    CDp =  0.10570

 Side 1  free  transition at x/c =  0.5672   49
 Side 2  free  transition at x/c =  0.0872   31

  17   rms: 0.2551E+01   max: -.2709E+02   T at   31  2   RLX: 0.018
       a = -4.000      CL = -0.7237
      Cm =  0.1562     CD =  0.11721   =>   CDf =  0.00550    CDp =  0.11171

 Side 1  free  transition at x/c =  0.5665   49
 Side 2  free  transition at x/c =  0.0888   31

  18   rms: 0.5687E+00   max: -.4848E+01   T at   31  2   RLX: 0.103
       a = -4.000      CL = -0.6597
      Cm =  0.1445     CD =  0.11123   =>   CDf =  0.00561    CDp =  0.10562

 Side 1  free  transition at x/c =  0.5659   50
 Side 2  free  transition at x/c =  0.0907   30

  19   rms: 0.5180E+00   max: -.4175E+01   D at    2  1   RLX: 0.120
       a = -4.000      CL = -0.5819
      Cm =  0.1263     CD =  0.11132   =>   CDf =  0.00558    CDp =  0.10575

 Side 1  free  transition at x/c =  0.5654   50
 Side 2  free  transition at x/c =  0.0919   30

  20   rms: 0.4161E+00   max: -.1193E+01   T at   30  2   RLX: 0.419
       a = -4.000      CL = -0.3361
      Cm =  0.0652     CD =  0.07779   =>   CDf =  0.00562    CDp =  0.07216

 Side 1  free  transition at x/c =  0.5641   50
 Side 2  free  transition at x/c =  0.0927   30

  21   rms: 0.3302E+00   max: -.1100E+01   D at  104  2   RLX: 0.455
       a = -4.000      CL = -0.2031
      Cm =  0.0262     CD =  0.07610   =>   CDf =  0.00574    CDp =  0.07036

 Side 1  free  transition at x/c =  0.5636   50
 Side 2  free  transition at x/c =  0.0954   30

  22   rms: 0.3044E+00   max: -.1290E+01   D at  104  2   RLX: 0.387
       a = -4.000      CL = -0.1512
      Cm =  0.0032     CD =  0.08294   =>   CDf =  0.00572    CDp =  0.07723

 Side 1  free  transition at x/c =  0.5637   50
 Side 2  free  transition at x/c =  0.0971   30

  23   rms: 0.3429E+00   max: -.1426E+01   D at  104  2   RLX: 0.351
       a = -4.000      CL = -0.1524
      Cm = -0.0112     CD =  0.08338   =>   CDf =  0.00562    CDp =  0.07776

 Side 1  free  transition at x/c =  0.5646   50
 Side 2  free  transition at x/c =  0.0980   30
 idif Ue xi dudx           1  0.14124724      2.78866291E-03   50.650524    
 Uenew xinew           2  1.94424018E-02  3.83853912E-04

  24   rms: 0.4207E+00   max: -.1605E+01   D at  103  2   RLX: 0.311
       a = -4.000      CL = -0.1726
      Cm = -0.0256     CD =  0.08232   =>   CDf =  0.00540    CDp =  0.07692

 Side 1  free  transition at x/c =  0.5661   49
 Side 2  free  transition at x/c =  0.1607   36

  25   rms: 0.5604E+00   max: 0.5258E+01   T at   36  2   RLX: 0.285
       a = -4.000      CL = -0.1987
      Cm = -0.0270     CD =  0.05276   =>   CDf =  0.00768    CDp =  0.04509

 Side 1  free  transition at x/c =  0.5661   49
 Side 2  free  transition at x/c =  0.1354   34

  26   rms: 0.5829E+00   max: 0.6883E+01   T at   34  2   RLX: 0.218
       a = -4.000      CL = -0.2813
      Cm = -0.0128     CD =  0.05624   =>   CDf =  0.00672    CDp =  0.04952

 Side 1  free  transition at x/c =  0.5664   49
 Side 2  free  transition at x/c =  0.1153   33

  27   rms: 0.1540E+00   max: 0.1528E+01   T at   33  2   RLX: 0.594
       a = -4.000      CL = -0.3134
      Cm = -0.0019     CD =  0.05975   =>   CDf =  0.00556    CDp =  0.05419

 MRCHDU: Convergence failed at  82  side 2    Res =  0.7609E+00
 Side 1  free  transition at x/c =  0.5652   49
 Side 2  free  transition at x/c =  0.1112   32
 idif Ue xi dudx           1  0.13149628      2.82764435E-03   46.503826    
 Uenew xinew           2  7.35647418E-03  1.58190727E-04

  28   rms: 0.1884E+00   max: 0.1174E+01   T at   33  2   RLX: 0.747
       a = -4.000      CL = -0.2819
      Cm = -0.0059     CD =  0.06207   =>   CDf =  0.00534    CDp =  0.05673

 Side 1  free  transition at x/c =  0.5641   48
 Side 2  free  transition at x/c =  0.1092   33

  29   rms: 0.3485E+00   max: -.2760E+01   D at    2  2   RLX: 0.181
       a = -4.000      CL = -0.2589
      Cm = -0.0112     CD =  0.04037   =>   CDf =  0.00660    CDp =  0.03377

 Side 1  free  transition at x/c =  0.5638   49
 Side 2  free  transition at x/c =  0.1099   32

  30   rms: 0.2383E+00   max: -.1410E+01   T at    2  1   RLX: 0.355
       a = -4.000      CL = -0.2178
      Cm = -0.0198     CD =  0.04453   =>   CDf =  0.00645    CDp =  0.03808

 Side 1  free  transition at x/c =  0.5632   49
 Side 2  free  transition at x/c =  0.1110   32

  31   rms: 0.1050E+00   max: -.3971E+00   D at   32  2
       a = -4.000      CL = -0.1489
      Cm = -0.0340     CD =  0.05145   =>   CDf =  0.00628    CDp =  0.04517

 Side 1  free  transition at x/c =  0.5625   48
 Side 2  free  transition at x/c =  0.1458   35

  32   rms: 0.7924E+00   max: 0.3188E+01   D at   35  2   RLX: 0.470
       a = -4.000      CL = -0.1557
      Cm = -0.0348     CD =  0.04256   =>   CDf =  0.00810    CDp =  0.03446

 MRCHDU: Convergence failed at  42  side 2    Res =  0.1716E+01
 MRCHDU: Convergence failed at  43  side 2    Res =  0.9949E+00
 MRCHDU: Convergence failed at  44  side 2    Res =  0.1553E+01
 MRCHDU: Convergence failed at  45  side 2    Res =  0.2304E+01
 MRCHDU: Convergence failed at  46  side 2    Res =  0.3773E+01
 MRCHDU: Convergence failed at  47  side 2    Res =  0.7966E+01
 MRCHDU: Convergence failed at  48  side 2    Res =  0.1164E+03
 MRCHDU: Convergence failed at  49  side 2    Res =  0.9461E+01
 MRCHDU: Convergence failed at  50  side 2    Res =  0.5444E+01
 MRCHDU: Convergence failed at  51  side 2    Res =  0.4050E+01
 MRCHDU: Convergence failed at  52  side 2    Res =  0.3334E+01
 MRCHDU: Convergence failed at  53  side 2    Res =  0.2893E+01
 MRCHDU: Convergence failed at  54  side 2    Res =  0.2624E+01
 MRCHDU: Convergence failed at  55  side 2    Res =  0.2457E+01
 MRCHDU: Convergence failed at  56  side 2    Res =  0.2335E+01
 MRCHDU: Convergence failed at  57  side 2    Res =  0.2251E+01
 MRCHDU: Convergence failed at  58  side 2    Res =  0.2194E+01
 MRCHDU: Convergence failed at  59  side 2    Res =  0.2158E+01
 MRCHDU: Convergence failed at  60  side 2    Res =  0.2135E+01
 MRCHDU: Convergence failed at  61  side 2    Res =  0.2080E+01
 MRCHDU: Convergence failed at  62  side 2    Res =  0.2078E+01
 MRCHDU: Convergence failed at  63  side 2    Res =  0.2086E+01
 MRCHDU: Convergence failed at  64  side 2    Res =  0.2085E+01
 MRCHDU: Convergence failed at  65  side 2    Res =  0.2200E+01
 MRCHDU: Convergence failed at  66  side 2    Res =  0.2310E+01
 MRCHDU: Convergence failed at  67  side 2    Res =  0.2423E+01
 MRCHDU: Convergence failed at  68  side 2    Res =  0.2537E+01
 MRCHDU: Convergence failed at  69  side 2    Res =  0.2651E+01
 MRCHDU: Convergence failed at  70  side 2    Res =  0.2767E+01
 MRCHDU: Convergence failed at  71  side 2    Res =  0.2884E+01
 MRCHDU: Convergence failed at  72  side 2    Res =  0.2998E+01
 MRCHDU: Convergence failed at  73  side 2    Res =  0.3113E+01
 MRCHDU: Convergence failed at  74  side 2    Res =  0.3223E+01
 MRCHDU: Convergence failed at  75  side 2    Res =  0.3329E+01
 MRCHDU: Convergence failed at  76  side 2    Res =  0.3426E+01
 MRCHDU: Convergence failed at  77  side 2    Res =  0.3517E+01
 MRCHDU: Convergence failed at  78  side 2    Res =  0.3597E+01
 MRCHDU: Convergence failed at  79  side 2    Res =  0.3666E+01
 MRCHDU: Convergence failed at  80  side 2    Res =  0.3713E+01
 MRCHDU: Convergence failed at  81  side 2    Res =  0.3727E+01
 MRCHDU: Convergence failed at  82  side 2    Res =  0.3572E+01
 MRCHDU: Convergence failed at  83  side 2    Res =  0.3579E+01
 MRCHDU: Convergence failed at  84  side 2    Res =  0.3544E+01
 MRCHDU: Convergence failed at  85  side 2    Res =  0.3432E+01
 MRCHDU: Convergence failed at  86  side 2    Res =  0.3451E+01
 Side 1  free  transition at x/c =  0.5622   48
 Side 2  free  transition at x/c =  0.1259   33

  33   rms: 0.3281E+01   max: 0.3847E+02   T at   34  2   RLX: 0.037
       a = -4.000      CL = -0.4150
      Cm =  0.0964     CD =  0.04162   =>   CDf =  0.00508    CDp =  0.03654

 Side 1  free  transition at x/c =  0.5612   48
 Side 2  free  transition at x/c =  0.1219   33

  34   rms: 0.6651E+00   max: 0.3155E+01   D at   35  2   RLX: 0.475
       a = -4.000      CL = -0.3172
      Cm =  0.0295     CD =  0.03051   =>   CDf =  0.01006    CDp =  0.02045

 Side 1  free  transition at x/c =  0.5624   48
 Side 2  free  transition at x/c =  0.1199   33

  35   rms: 0.2947E+00   max: 0.1315E+01   D at   41  2   RLX: 0.884
       a = -4.000      CL = -0.1976
      Cm = -0.0276     CD =  0.04207   =>   CDf =  0.00797    CDp =  0.03409

 MRCHDU: Convergence failed at  41  side 2    Res =  0.2875E+01
 MRCHDU: Convergence failed at  42  side 2    Res =  0.1769E+01
 Side 1  free  transition at x/c =  0.5629   48
 Side 2  free  transition at x/c =  0.1196   33

  36   rms: 0.5769E-01   max: 0.5609E+00   D at   43  2
       a = -4.000      CL = -0.1599
      Cm = -0.0321     CD =  0.04948   =>   CDf =  0.00571    CDp =  0.04377

 Side 1  free  transition at x/c =  0.5620   48
 Side 2  free  transition at x/c =  0.1192   33

  37   rms: 0.1395E-01   max: 0.8132E-01   D at   43  2
       a = -4.000      CL = -0.1616
      Cm = -0.0328     CD =  0.04874   =>   CDf =  0.00582    CDp =  0.04292

 Side 1  free  transition at x/c =  0.5621   48
 Side 2  free  transition at x/c =  0.1193   33

  38   rms: 0.4573E-03   max: -.3261E-02   D at   54  2
       a = -4.000      CL = -0.1620
      Cm = -0.0327     CD =  0.04870   =>   CDf =  0.00574    CDp =  0.04296

 Side 1  free  transition at x/c =  0.5621   48
 Side 2  free  transition at x/c =  0.1193   33

  39   rms: 0.1134E-04   max: -.4929E-04   T at   33  2
       a = -4.000      CL = -0.1620
      Cm = -0.0327     CD =  0.04870   =>   CDf =  0.00574    CDp =  0.04296
 plradd ia,ip,cpol            1           0  8.61498155E-03

 Point added to stored polar  1
 Point written to save file  l7769_Re150k.base.pol                           
 Dump file unspecified or not available
 Calculating wake trajectory ...
 Calculating source influence matrix ...

 Solving BL system ...

 Side 1  free  transition at x/c =  0.5621   48
 Side 2  free  transition at x/c =  0.1193   33

   1   rms: 0.8624E-01   max: -.7866E+00   T at   33  2   RLX: 0.636
       a = -3.500      CL = -0.1311
      Cm = -0.0343     CD =  0.04587   =>   CDf =  0.00576    CDp =  0.04011

 Side 1  free  transition at x/c =  0.5586   49
 Side 2  free  transition at x/c =  0.1254   32

   2   rms: 0.1556E+00   max: -.8968E+00   T at   33  2   RLX: 0.558
       a = -3.500      CL = -0.1331
      Cm = -0.0318     CD =  0.04727   =>   CDf =  0.00556    CDp =  0.04172

 Side 1  free  transition at x/c =  0.5576   49
 Side 2  free  transition at x/c =  0.1214   32

   3   rms: 0.1645E+00   max: -.5402E+00   T at   32  2   RLX: 0.926
       a = -3.500      CL = -0.1260
      Cm = -0.0359     CD =  0.04509   =>   CDf =  0.00515    CDp =  0.03994

 Side 1  free  transition at x/c =  0.5572   49
 Side 2  free  transition at x/c =  0.1249   32

   4   rms: 0.1815E+00   max: -.9014E+00   T at   32  2   RLX: 0.555
       a = -3.500      CL = -0.1115
      Cm = -0.0377     CD =  0.04991   =>   CDf =  0.00554    CDp =  0.04436

 Side 1  free  transition at x/c =  0.5570   49
 Side 2  free  transition at x/c =  0.1219   32

   5   rms: 0.1319E+00   max: 0.5680E+00   D at   33  2   RLX: 0.914
       a = -3.500      CL = -0.1032
      Cm = -0.0350     CD =  0.04706   =>   CDf =  0.00625    CDp =  0.04080

 Side 1  free  transition at x/c =  0.5565   49
 Side 2  free  transition at x/c =  0.1284   33

   6   rms: 0.5828E-01   max: 0.3761E+00   D at   45  2
       a = -3.500      CL = -0.1109
      Cm = -0.0366     CD =  0.04316   =>   CDf =  0.00662    CDp =  0.03654

 Side 1  free  transition at x/c =  0.5570   49
 Side 2  free  transition at x/c =  0.1294   33

   7   rms: 0.2474E-01   max: -.1132E+00   D at   49  2
       a = -3.500      CL = -0.1107
      Cm = -0.0361     CD =  0.04363   =>   CDf =  0.00599    CDp =  0.03764

 Side 1  free  transition at x/c =  0.5569   49
 Side 2  free  transition at x/c =  0.1294   33

   8   rms: 0.1269E-02   max: -.8296E-02   D at   49  2
       a = -3.500      CL = -0.1101
      Cm = -0.0361     CD =  0.04370   =>   CDf =  0.00612    CDp =  0.03758

 Side 1  free  transition at x/c =  0.5569   49
 Side 2  free  transition at x/c =  0.1294   33

   9   rms: 0.2805E-04   max: -.1358E-03   T at   33  2
       a = -3.500      CL = -0.1101
      Cm = -0.0361     CD =  0.04370   =>   CDf =  0.00613    CDp =  0.03757
 plradd ia,ip,cpol            2           0  1.08545842E-02

 Point added to stored polar  1
 Point written to save file  l7769_Re150k.base.pol                           
 Dump file unspecified or not available
 Calculating wake trajectory ...
 Calculating source influence matrix ...

 Solving BL system ...

 Side 1  free  transition at x/c =  0.5569   49
 Side 2  free  transition at x/c =  0.1294   33

   1   rms: 0.8801E-01   max: -.5589E+00   T at   33  2   RLX: 0.895
       a = -3.000      CL = -0.0689
      Cm = -0.0366     CD =  0.03992   =>   CDf =  0.00613    CDp =  0.03379

 Side 1  free  transition at x/c =  0.5524   49
 Side 2  free  transition at x/c =  0.1325   33

   2   rms: 0.8005E-01   max: -.2695E+00   D at   33  2
       a = -3.000      CL = -0.0624
      Cm = -0.0369     CD =  0.03995   =>   CDf =  0.00586    CDp =  0.03409

 Side 1  free  transition at x/c =  0.5522   49
 Side 2  free  transition at x/c =  0.1345   33

   3   rms: 0.1788E-01   max: -.8673E-01   T at   33  2
       a = -3.000      CL = -0.0600
      Cm = -0.0370     CD =  0.03995   =>   CDf =  0.00624    CDp =  0.03371

 Side 1  free  transition at x/c =  0.5521   49
 Side 2  free  transition at x/c =  0.1356   33

   4   rms: 0.2624E-02   max: -.1105E-01   T at   33  2
       a = -3.000      CL = -0.0597
      Cm = -0.0370     CD =  0.03995   =>   CDf =  0.00634    CDp =  0.03362

 Side 1  free  transition at x/c =  0.5521   49
 Side 2  free  transition at x/c =  0.1358   33

   5   rms: 0.6902E-04   max: -.4727E-03   T at   33  2
       a = -3.000      CL = -0.0597
      Cm = -0.0370     CD =  0.03996   =>   CDf =  0.00635    CDp =  0.03361
 plradd ia,ip,cpol            3           0  1.08545842E-02

 Point added to stored polar  1
 Point written to save file  l7769_Re150k.base.pol                           
 Dump file unspecified or not available
 Calculating wake trajectory ...
 Calculating source influence matrix ...

 Solving BL system ...

 Side 1  free  transition at x/c =  0.5521   49
 Side 2  free  transition at x/c =  0.1358   33

   1   rms: 0.9669E-01   max: -.7746E+00   T at   33  2   RLX: 0.645
       a = -2.500      CL = -0.0248
      Cm = -0.0377     CD =  0.03765   =>   CDf =  0.00633    CDp =  0.03133

 Side 1  free  transition at x/c =  0.5491   50
 Side 2  free  transition at x/c =  0.1410   32

   2   rms: 0.1750E+00   max: -.6676E+00   D at   47  2   RLX: 0.749
       a = -2.500      CL = -0.0028
      Cm = -0.0389     CD =  0.04219   =>   CDf =  0.00633    CDp =  0.03586

 MRCHDU: Convergence failed at  38  side 2    Res =  0.2329E+01
 MRCHDU: Convergence failed at  39  side 2    Res =  0.1578E+01
 MRCHDU: Convergence failed at  40  side 2    Res =  0.6014E+01
 MRCHDU: Convergence failed at  41  side 2    Res =  0.6517E+02
 MRCHDU: Convergence failed at  42  side 2    Res =  0.5189E+01
 MRCHDU: Convergence failed at  43  side 2    Res =  0.3158E+01
 MRCHDU: Convergence failed at  44  side 2    Res =  0.2515E+01
 MRCHDU: Convergence failed at  45  side 2    Res =  0.2175E+01
 MRCHDU: Convergence failed at  46  side 2    Res =  0.2017E+01
 MRCHDU: Convergence failed at  47  side 2    Res =  0.2268E+01
 MRCHDU: Convergence failed at  48  side 2    Res =  0.2548E+01
 MRCHDU: Convergence failed at  49  side 2    Res =  0.2831E+01
 MRCHDU: Convergence failed at  50  side 2    Res =  0.3111E+01
 MRCHDU: Convergence failed at  51  side 2    Res =  0.3381E+01
 MRCHDU: Convergence failed at  52  side 2    Res =  0.3662E+01
 MRCHDU: Convergence failed at  53  side 2    Res =  0.3952E+01
 MRCHDU: Convergence failed at  54  side 2    Res =  0.4264E+01
 MRCHDU: Convergence failed at  55  side 2    Res =  0.4613E+01
 MRCHDU: Convergence failed at  56  side 2    Res =  0.4997E+01
 MRCHDU: Convergence failed at  57  side 2    Res =  0.5421E+01
 MRCHDU: Convergence failed at  58  side 2    Res =  0.5932E+01
 MRCHDU: Convergence failed at  59  side 2    Res =  0.6507E+01
 MRCHDU: Convergence failed at  60  side 2    Res =  0.7166E+01
 MRCHDU: Convergence failed at  61  side 2    Res =  0.7898E+01
 MRCHDU: Convergence failed at  62  side 2    Res =  0.8887E+01
 MRCHDU: Convergence failed at  63  side 2    Res =  0.1026E+02
 MRCHDU: Convergence failed at  64  side 2    Res =  0.1156E+02
 MRCHDU: Convergence failed at  65  side 2    Res =  0.1307E+02
 MRCHDU: Convergence failed at  66  side 2    Res =  0.1491E+02
 MRCHDU: Convergence failed at  67  side 2    Res =  0.1746E+02
 MRCHDU: Convergence failed at  68  side 2    Res =  0.2018E+02
 MRCHDU: Convergence failed at  69  side 2    Res =  0.2365E+02
 MRCHDU: Convergence failed at  70  side 2    Res =  0.2456E+02
 MRCHDU: Convergence failed at  71  side 2    Res =  0.2857E+02
 MRCHDU: Convergence failed at  72  side 2    Res =  0.3344E+02
 MRCHDU: Convergence failed at  73  side 2    Res =  0.3913E+02
 MRCHDU: Convergence failed at  74  side 2    Res =  0.4538E+02
 MRCHDU: Convergence failed at  75  side 2    Res =  0.5118E+02
 MRCHDU: Convergence failed at  76  side 2    Res =  0.5522E+02
 MRCHDU: Convergence failed at  77  side 2    Res =  0.5502E+02
 MRCHDU: Convergence failed at  78  side 2    Res =  0.4953E+02
 MRCHDU: Convergence failed at  79  side 2    Res =  0.2886E+02
 MRCHDU: Convergence failed at  80  side 2    Res =  0.2295E+02
 MRCHDU: Convergence failed at  81  side 2    Res =  0.1801E+02
 MRCHDU: Convergence failed at  82  side 2    Res =  0.1452E+02
 MRCHDU: Convergence failed at  83  side 2    Res =  0.1088E+02
 MRCHDU: Convergence failed at  84  side 2    Res =  0.8338E+01
 Side 1  free  transition at x/c =  0.5483   50
 Side 2  free  transition at x/c =  0.0978   29

   3   rms: 0.3936E+00   max: -.3138E+01   T at   30  2   RLX: 0.159
       a = -2.500      CL = -0.2617
      Cm =  0.0591     CD =  0.03581   =>   CDf =  0.00513    CDp =  0.03068

 Side 1  free  transition at x/c =  0.5483   50
 Side 2  free  transition at x/c =  0.0971   29

   4   rms: 0.1851E+00   max: 0.2796E+00   D at   86  2   RLX: 0.602
       a = -2.500      CL = -0.1064
      Cm =  0.0005     CD =  0.03345   =>   CDf =  0.00854    CDp =  0.02491

 Side 1  free  transition at x/c =  0.5482   50
 Side 2  free  transition at x/c =  0.0962   29

   5   rms: 0.9106E-01   max: -.7423E+00   D at   32  2   RLX: 0.674
       a = -2.500      CL = -0.0338
      Cm = -0.0248     CD =  0.03517   =>   CDf =  0.00739    CDp =  0.02779

 Side 1  free  transition at x/c =  0.5480   50
 Side 2  free  transition at x/c =  0.0930   29

   6   rms: 0.1272E+00   max: 0.1055E+01   T at   29  2   RLX: 0.767
       a = -2.500      CL = -0.0044
      Cm = -0.0348     CD =  0.03300   =>   CDf =  0.00706    CDp =  0.02594

 Side 1  free  transition at x/c =  0.5482   50
 Side 2  free  transition at x/c =  0.0856   29

   7   rms: 0.1730E+00   max: -.1244E+01   T at   29  2   RLX: 0.402
       a = -2.500      CL = -0.0029
      Cm = -0.0359     CD =  0.03537   =>   CDf =  0.00713    CDp =  0.02825

 Side 1  free  transition at x/c =  0.5483   50
 Side 2  free  transition at x/c =  0.0872   29

   8   rms: 0.1172E+00   max: -.1071E+01   T at   29  2   RLX: 0.467
       a = -2.500      CL = -0.0096
      Cm = -0.0366     CD =  0.03759   =>   CDf =  0.00664    CDp =  0.03094

 Side 1  free  transition at x/c =  0.5482   50
 Side 2  free  transition at x/c =  0.0912   29

   9   rms: 0.3910E+00   max: 0.4105E+01   T at   29  2   RLX: 0.365
       a = -2.500      CL = -0.0078
      Cm = -0.0383     CD =  0.03393   =>   CDf =  0.00652    CDp =  0.02741

 Side 1  free  transition at x/c =  0.5485   50
 Side 2  free  transition at x/c =  0.0839   28
 idif Ue xi dudx           1  0.13104969      2.29358673E-03   57.137447    
 Uenew xinew           2  5.73512679E-03  1.00374222E-04

  10   rms: 0.1917E+00   max: -.6225E+00   D at   45  2   RLX: 0.803
       a = -2.500      CL = -0.0033
      Cm = -0.0385     CD =  0.03008   =>   CDf =  0.00695    CDp =  0.02313

 Side 1  free  transition at x/c =  0.5486   49
 Side 2  free  transition at x/c =  0.0822   29

  11   rms: 0.1206E+00   max: -.4524E+00   D at   45  2
       a = -2.500      CL =  0.0031
      Cm = -0.0380     CD =  0.02793   =>   CDf =  0.00758    CDp =  0.02035

 Side 1  free  transition at x/c =  0.5487   49
 Side 2  free  transition at x/c =  0.0810   29

  12   rms: 0.1226E-01   max: -.8052E-01   D at   32  2
       a = -2.500      CL =  0.0033
      Cm = -0.0378     CD =  0.02773   =>   CDf =  0.00830    CDp =  0.01944

 Side 1  free  transition at x/c =  0.5487   49
 Side 2  free  transition at x/c =  0.0809   29

  13   rms: 0.7491E-03   max: 0.6418E-02   D at   32  2
       a = -2.500      CL =  0.0033
      Cm = -0.0378     CD =  0.02774   =>   CDf =  0.00836    CDp =  0.01938

 Side 1  free  transition at x/c =  0.5487   49
 Side 2  free  transition at x/c =  0.0809   29

  14   rms: 0.4990E-05   max: 0.3693E-04   D at   32  2
       a = -2.500      CL =  0.0033
      Cm = -0.0378     CD =  0.02774   =>   CDf =  0.00835    CDp =  0.01938
 plradd ia,ip,cpol            4           0  1.08545842E-02

 Point added to stored polar  1
 Point written to save file  l7769_Re150k.base.pol                           
 Dump file unspecified or not available
 Calculating wake trajectory ...
 Calculating source influence matrix ...

 Solving BL system ...

 Side 1  free  transition at x/c =  0.5487   49
 Side 2  free  transition at x/c =  0.0809   29

   1   rms: 0.1434E+00   max: -.4566E+00   D at   38  2
       a = -2.000      CL =  0.0577
      Cm = -0.0371     CD =  0.02421   =>   CDf =  0.00834    CDp =  0.01587

 Side 1  free  transition at x/c =  0.5454   49
 Side 2  free  transition at x/c =  0.0838   28

   2   rms: 0.4783E-01   max: 0.2776E+00   D at   28  2
       a = -2.000      CL =  0.0596
      Cm = -0.0376     CD =  0.02531   =>   CDf =  0.00913    CDp =  0.01618

 Side 1  free  transition at x/c =  0.5438   49
 Side 2  free  transition at x/c =  0.0836   28

   3   rms: 0.5517E-02   max: 0.3266E-01   D at   30  2
       a = -2.000      CL =  0.0594
      Cm = -0.0376     CD =  0.02529   =>   CDf =  0.00896    CDp =  0.01633

 Side 1  free  transition at x/c =  0.5438   49
 Side 2  free  transition at x/c =  0.0835   28

   4   rms: 0.8556E-04   max: 0.6615E-03   D at   30  2
       a = -2.000      CL =  0.0594
      Cm = -0.0376     CD =  0.02529   =>   CDf =  0.00894    CDp =  0.01635
 plradd ia,ip,cpol            5           0  1.34352790E-02

 Point added to stored polar  1
 Point written to save file  l7769_Re150k.base.pol                           
 Dump file unspecified or not available
 Calculating wake trajectory ...
 Calculating source influence matrix ...

 Solving BL system ...

 Side 1  free  transition at x/c =  0.5437   49
 Side 2  free  transition at x/c =  0.0835   28

   1   rms: 0.1250E+00   max: -.4242E+00   D at   34  2
       a = -1.500      CL =  0.1173
      Cm = -0.0379     CD =  0.02367   =>   CDf =  0.00892    CDp =  0.01476

 MRCHDU: Convergence failed at  28  side 2    Res =  0.1835E+02
 MRCHDU: Convergence failed at  29  side 2    Res =  0.2193E+02
 MRCHDU: Convergence failed at  30  side 2    Res =  0.1730E+02
 MRCHDU: Convergence failed at  31  side 2    Res =  0.1006E+02
 MRCHDU: Convergence failed at  32  side 2    Res =  0.1784E+02
 MRCHDU: Convergence failed at  33  side 2    Res =  0.2722E+02
 MRCHDU: Convergence failed at  34  side 2    Res =  0.4196E+02
 MRCHDU: Convergence failed at  35  side 2    Res =  0.5194E+02
 MRCHDU: Convergence failed at  36  side 2    Res =  0.5341E+02
 MRCHDU: Convergence failed at  37  side 2    Res =  0.4863E+02
 MRCHDU: Convergence failed at  38  side 2    Res =  0.4391E+02
 MRCHDU: Convergence failed at  39  side 2    Res =  0.4055E+02
 MRCHDU: Convergence failed at  40  side 2    Res =  0.3853E+02
 MRCHDU: Convergence failed at  41  side 2    Res =  0.3548E+02
 MRCHDU: Convergence failed at  42  side 2    Res =  0.3512E+02
 MRCHDU: Convergence failed at  43  side 2    Res =  0.3508E+02
 MRCHDU: Convergence failed at  44  side 2    Res =  0.3500E+02
 MRCHDU: Convergence failed at  45  side 2    Res =  0.3489E+02
 MRCHDU: Convergence failed at  46  side 2    Res =  0.3460E+02
 MRCHDU: Convergence failed at  47  side 2    Res =  0.3360E+02
 MRCHDU: Convergence failed at  48  side 2    Res =  0.3284E+02
 MRCHDU: Convergence failed at  49  side 2    Res =  0.3197E+02
 MRCHDU: Convergence failed at  50  side 2    Res =  0.3107E+02
 MRCHDU: Convergence failed at  51  side 2    Res =  0.3020E+02
 MRCHDU: Convergence failed at  52  side 2    Res =  0.2939E+02
 MRCHDU: Convergence failed at  53  side 2    Res =  0.2850E+02
 MRCHDU: Convergence failed at  54  side 2    Res =  0.2789E+02
 MRCHDU: Convergence failed at  55  side 2    Res =  0.2733E+02
 MRCHDU: Convergence failed at  56  side 2    Res =  0.2681E+02
 MRCHDU: Convergence failed at  57  side 2    Res =  0.2632E+02
 MRCHDU: Convergence failed at  58  side 2    Res =  0.2568E+02
 MRCHDU: Convergence failed at  59  side 2    Res =  0.2522E+02
 MRCHDU: Convergence failed at  60  side 2    Res =  0.2474E+02
 MRCHDU: Convergence failed at  61  side 2    Res =  0.2429E+02
 MRCHDU: Convergence failed at  62  side 2    Res =  0.2368E+02
 MRCHDU: Convergence failed at  63  side 2    Res =  0.2325E+02
 MRCHDU: Convergence failed at  64  side 2    Res =  0.2282E+02
 MRCHDU: Convergence failed at  65  side 2    Res =  0.3037E+02
 MRCHDU: Convergence failed at  66  side 2    Res =  0.2925E+02
 MRCHDU: Convergence failed at  67  side 2    Res =  0.2820E+02
 MRCHDU: Convergence failed at  68  side 2    Res =  0.2723E+02
 MRCHDU: Convergence failed at  69  side 2    Res =  0.2634E+02
 MRCHDU: Convergence failed at  70  side 2    Res =  0.2557E+02
 MRCHDU: Convergence failed at  71  side 2    Res =  0.2012E+02
 MRCHDU: Convergence failed at  72  side 2    Res =  0.1983E+02
 MRCHDU: Convergence failed at  73  side 2    Res =  0.1953E+02
 MRCHDU: Convergence failed at  74  side 2    Res =  0.4249E+02
 MRCHDU: Convergence failed at  75  side 2    Res =  0.4276E+02
 MRCHDU: Convergence failed at  76  side 2    Res =  0.4293E+02
 MRCHDU: Convergence failed at  77  side 2    Res =  0.4343E+02
 MRCHDU: Convergence failed at  78  side 2    Res =  0.1975E+02
 MRCHDU: Convergence failed at  79  side 2    Res =  0.4485E+02
 MRCHDU: Convergence failed at  80  side 2    Res =  0.4761E+02
 MRCHDU: Convergence failed at  81  side 2    Res =  0.4820E+02
 MRCHDU: Convergence failed at  82  side 2    Res =  0.4555E+02
 MRCHDU: Convergence failed at  83  side 2    Res =  0.2926E+02
 Side 1  free  transition at x/c =  0.5384   50
 Side 2  free  transition at x/c =  0.0941   28

   2   rms: 0.6654E+00   max: 0.1607E+01   T at   43  2   RLX: 0.933
       a = -1.500      CL =  0.1324
      Cm = -0.0240     CD =  0.01975   =>   CDf =  0.00454    CDp =  0.01520

 Side 1  free  transition at x/c =  0.5372   51
 Side 2  free  transition at x/c =  0.0948   27
 idif Ue xi dudx           1  0.15365410      2.24041939E-03   68.582741    
 Uenew xinew           2  2.36359481E-02  3.44634056E-04

   3   rms: 0.4853E+00   max: -.1992E+01   D at   54  2   RLX: 0.251
       a = -1.500      CL =  0.2412
      Cm = -0.0642     CD =  0.04802   =>   CDf =  0.00504    CDp =  0.04298

 Side 1  free  transition at x/c =  0.5373   50
 Side 2  free  transition at x/c =  0.0980   28

   4   rms: 0.3489E+00   max: 0.1410E+01   T at   28  2   RLX: 0.445
       a = -1.500      CL =  0.1915
      Cm = -0.0580     CD =  0.03895   =>   CDf =  0.00512    CDp =  0.03383

 Side 1  free  transition at x/c =  0.5378   50
 Side 2  free  transition at x/c =  0.0896   28

   5   rms: 0.4985E+00   max: -.2000E+01   D at   45  2   RLX: 0.250
       a = -1.500      CL =  0.2016
      Cm = -0.0591     CD =  0.03603   =>   CDf =  0.00516    CDp =  0.03088

 Side 1  free  transition at x/c =  0.5379   50
 Side 2  free  transition at x/c =  0.0925   28

   6   rms: 0.5168E+00   max: -.1996E+01   D at   46  2   RLX: 0.251
       a = -1.500      CL =  0.1729
      Cm = -0.0558     CD =  0.03204   =>   CDf =  0.00547    CDp =  0.02657

 Side 1  free  transition at x/c =  0.5383   50
 Side 2  free  transition at x/c =  0.0924   28
 idif Ue xi dudx           1  0.15771011      2.47251987E-03   63.785172    
 Uenew xinew           2  2.85370052E-02  4.47392464E-04

   7   rms: 0.6449E+00   max: -.2177E+01   D at   72  2   RLX: 0.230
       a = -1.500      CL =  0.1175
      Cm = -0.0552     CD =  0.02825   =>   CDf =  0.00583    CDp =  0.02242

 Side 1  free  transition at x/c =  0.5392   49
 Side 2  free  transition at x/c =  0.0868   29

   8   rms: 0.7191E+00   max: -.2742E+01   D at   74  2   RLX: 0.182
       a = -1.500      CL =  0.0668
      Cm = -0.0465     CD =  0.02682   =>   CDf =  0.00632    CDp =  0.02050

 Side 1  free  transition at x/c =  0.5399   49
 Side 2  free  transition at x/c =  0.0852   28

   9   rms: 0.5903E+00   max: -.2566E+01   D at   74  2   RLX: 0.195
       a = -1.500      CL =  0.0343
      Cm = -0.0424     CD =  0.02583   =>   CDf =  0.00704    CDp =  0.01880

 MRCHDU: Convergence failed at  57  side 2    Res =  0.4572E+00
 Side 1  free  transition at x/c =  0.5403   49
 Side 2  free  transition at x/c =  0.0836   28

  10   rms: 0.2707E+00   max: -.1146E+01   D at   80  2   RLX: 0.436
       a = -1.500      CL =  0.0304
      Cm = -0.0344     CD =  0.02501   =>   CDf =  0.00784    CDp =  0.01717

 Side 1  free  transition at x/c =  0.5401   49
 Side 2  free  transition at x/c =  0.0845   28

  11   rms: 0.1706E+00   max: -.6649E+00   D at   83  2   RLX: 0.752
       a = -1.500      CL =  0.0757
      Cm = -0.0346     CD =  0.02411   =>   CDf =  0.00829    CDp =  0.01582

 Side 1  free  transition at x/c =  0.5393   49
 Side 2  free  transition at x/c =  0.0880   29

  12   rms: 0.6528E-01   max: 0.4873E+00   D at   29  2
       a = -1.500      CL =  0.1143
      Cm = -0.0376     CD =  0.02410   =>   CDf =  0.00892    CDp =  0.01518

 Side 1  free  transition at x/c =  0.5386   50
 Side 2  free  transition at x/c =  0.0912   28

  13   rms: 0.1734E-01   max: 0.1193E+00   D at   29  2
       a = -1.500      CL =  0.1156
      Cm = -0.0378     CD =  0.02425   =>   CDf =  0.00903    CDp =  0.01522

 Side 1  free  transition at x/c =  0.5386   50
 Side 2  free  transition at x/c =  0.0909   28

  14   rms: 0.1041E-02   max: 0.7586E-02   D at   29  2
       a = -1.500      CL =  0.1156
      Cm = -0.0378     CD =  0.02425   =>   CDf =  0.00902    CDp =  0.01523

 Side 1  free  transition at x/c =  0.5386   50
 Side 2  free  transition at x/c =  0.0909   28

  15   rms: 0.5138E-05   max: 0.4557E-04   D at   29  2
       a = -1.500      CL =  0.1156
      Cm = -0.0378     CD =  0.02425   =>   CDf =  0.00902    CDp =  0.01523
 plradd ia,ip,cpol            6           0  1.34352790E-02

 Point added to stored polar  1
 Point written to save file  l7769_Re150k.base.pol                           
 Dump file unspecified or not available
 Calculating wake trajectory ...
 Calculating source influence matrix ...

 Solving BL system ...

 Side 1  free  transition at x/c =  0.5386   50
 Side 2  free  transition at x/c =  0.0909   28

   1   rms: 0.9069E-01   max: -.7268E+00   T at   28  2   RLX: 0.688
       a = -1.000      CL =  0.1538
      Cm = -0.0379     CD =  0.02425   =>   CDf =  0.00902    CDp =  0.01524

 Side 1  free  transition at x/c =  0.5355   50
 Side 2  free  transition at x/c =  0.0990   29

   2   rms: 0.1468E+00   max: -.9509E+00   T at   29  2   RLX: 0.526
       a = -1.000      CL =  0.1631
      Cm = -0.0378     CD =  0.02400   =>   CDf =  0.00908    CDp =  0.01492

 Side 1  free  transition at x/c =  0.5349   50
 Side 2  free  transition at x/c =  0.1026   29

   3   rms: 0.8531E-01   max: -.4035E+00   D at   29  2
       a = -1.000      CL =  0.1714
      Cm = -0.0376     CD =  0.02387   =>   CDf =  0.00889    CDp =  0.01498

 Side 1  free  transition at x/c =  0.5344   50
 Side 2  free  transition at x/c =  0.1076   29

   4   rms: 0.1299E-01   max: -.8789E-01   D at   29  2
       a = -1.000      CL =  0.1711
      Cm = -0.0375     CD =  0.02384   =>   CDf =  0.00908    CDp =  0.01477

 Side 1  free  transition at x/c =  0.5344   50
 Side 2  free  transition at x/c =  0.1080   29

   5   rms: 0.4515E-03   max: 0.3588E-02   D at   31  2
       a = -1.000      CL =  0.1710
      Cm = -0.0375     CD =  0.02384   =>   CDf =  0.00909    CDp =  0.01476

 Side 1  free  transition at x/c =  0.5344   50
 Side 2  free  transition at x/c =  0.1080   29

   6   rms: 0.1967E-05   max: 0.1147E-04   D at   42  2
       a = -1.000      CL =  0.1710
      Cm = -0.0375     CD =  0.02384   =>   CDf =  0.00909    CDp =  0.01476
 plradd ia,ip,cpol            7           0  1.34352790E-02

 Point added to stored polar  1
 Point written to save file  l7769_Re150k.base.pol                           
 Dump file unspecified or not available
 Calculating wake trajectory ...
 Calculating source influence matrix ...

 Solving BL system ...

 Side 1  free  transition at x/c =  0.5344   50
 Side 2  free  transition at x/c =  0.1080   29

   1   rms: 0.1217E+00   max: -.1322E+01   T at   29  2   RLX: 0.378
       a = -0.500      CL =  0.1921
      Cm = -0.0372     CD =  0.02368   =>   CDf =  0.00903    CDp =  0.01465

 Side 1  free  transition at x/c =  0.5329   51
 Side 2  free  transition at x/c =  0.1233   29

   2   rms: 0.9470E-01   max: 0.8623E+00   D at   30  2   RLX: 0.726
       a = -0.500      CL =  0.2159
      Cm = -0.0370     CD =  0.02334   =>   CDf =  0.00901    CDp =  0.01433

 Side 1  free  transition at x/c =  0.5312   51
 Side 2  free  transition at x/c =  0.1437   31

   3   rms: 0.3776E-01   max: 0.4576E+00   D at   31  2
       a = -0.500      CL =  0.2254
      Cm = -0.0367     CD =  0.02363   =>   CDf =  0.00913    CDp =  0.01450

 Side 1  free  transition at x/c =  0.5308   51
 Side 2  free  transition at x/c =  0.1439   31

   4   rms: 0.7469E-02   max: 0.6518E-01   D at   31  2
       a = -0.500      CL =  0.2252
      Cm = -0.0367     CD =  0.02366   =>   CDf =  0.00920    CDp =  0.01446

 Side 1  free  transition at x/c =  0.5308   51
 Side 2  free  transition at x/c =  0.1434   31

   5   rms: 0.1227E-03   max: -.1131E-02   D at   31  2
       a = -0.500      CL =  0.2252
      Cm = -0.0367     CD =  0.02366   =>   CDf =  0.00921    CDp =  0.01445

 Side 1  free  transition at x/c =  0.5308   51
 Side 2  free  transition at x/c =  0.1434   31

   6   rms: 0.1674E-05   max: 0.8808E-05   T at   31  2
       a = -0.500      CL =  0.2252
      Cm = -0.0367     CD =  0.02366   =>   CDf =  0.00921    CDp =  0.01445
 plradd ia,ip,cpol            8           0  1.34352790E-02

 Point added to stored polar  1
 Point written to save file  l7769_Re150k.base.pol                           
 Dump file unspecified or not available
 Calculating wake trajectory ...
 Calculating source influence matrix ...

 Solving BL system ...

 Side 1  free  transition at x/c =  0.5308   51
 Side 2  free  transition at x/c =  0.1434   31

   1   rms: 0.1362E+00   max: -.1658E+01   T at   31  2   RLX: 0.302
       a =  0.000      CL =  0.2404
      Cm = -0.0366     CD =  0.02353   =>   CDf =  0.00921    CDp =  0.01431

 Side 1  free  transition at x/c =  0.5298   50
 Side 2  free  transition at x/c =  0.1522   31

   2   rms: 0.1035E+00   max: -.1210E+01   T at   31  2   RLX: 0.413
       a =  0.000      CL =  0.2584
      Cm = -0.0373     CD =  0.02483   =>   CDf =  0.00917    CDp =  0.01566

 Side 1  free  transition at x/c =  0.5274   51
 Side 2  free  transition at x/c =  0.1639   31

   3   rms: 0.5044E-01   max: 0.4503E+00   D at   31  2
       a =  0.000      CL =  0.2801
      Cm = -0.0378     CD =  0.02428   =>   CDf =  0.00900    CDp =  0.01529

 Side 1  free  transition at x/c =  0.5251   51
 Side 2  free  transition at x/c =  0.1734   32

   4   rms: 0.1107E-01   max: -.7127E-01   D at   31  2
       a =  0.000      CL =  0.2801
      Cm = -0.0377     CD =  0.02424   =>   CDf =  0.00902    CDp =  0.01523

 Side 1  free  transition at x/c =  0.5252   51
 Side 2  free  transition at x/c =  0.1738   32

   5   rms: 0.4643E-03   max: 0.3771E-02   D at   32  2
       a =  0.000      CL =  0.2801
      Cm = -0.0377     CD =  0.02426   =>   CDf =  0.00899    CDp =  0.01527

 Side 1  free  transition at x/c =  0.5252   51
 Side 2  free  transition at x/c =  0.1738   32

   6   rms: 0.1597E-05   max: 0.1249E-04   D at    4  1
       a =  0.000      CL =  0.2801
      Cm = -0.0377     CD =  0.02426   =>   CDf =  0.00899    CDp =  0.01527
 plradd ia,ip,cpol            9           0  1.63986124E-02

 Point added to stored polar  1
 Point written to save file  l7769_Re150k.base.pol                           
 Dump file unspecified or not available
 Calculating wake trajectory ...
 Calculating source influence matrix ...

 Solving BL system ...

 Side 1  free  transition at x/c =  0.5252   51
 Side 2  free  transition at x/c =  0.1738   32

   1   rms: 0.1433E+00   max: -.1675E+01   T at   32  2   RLX: 0.299
       a =  0.500      CL =  0.2954
      Cm = -0.0381     CD =  0.02417   =>   CDf =  0.00900    CDp =  0.01517

 Side 1  free  transition at x/c =  0.5237   51
 Side 2  free  transition at x/c =  0.1832   32

   2   rms: 0.8593E-01   max: -.1094E+01   T at   32  2   RLX: 0.457
       a =  0.500      CL =  0.3139
      Cm = -0.0383     CD =  0.02538   =>   CDf =  0.00895    CDp =  0.01643

 Side 1  free  transition at x/c =  0.5221   51
 Side 2  free  transition at x/c =  0.1949   33

   3   rms: 0.4152E-01   max: -.3929E+00   T at   33  2
       a =  0.500      CL =  0.3333
      Cm = -0.0384     CD =  0.02470   =>   CDf =  0.00870    CDp =  0.01600

 Side 1  free  transition at x/c =  0.5203   52
 Side 2  free  transition at x/c =  0.2029   32

   4   rms: 0.3746E-01   max: -.2795E+00   D at   33  2
       a =  0.500      CL =  0.3344
      Cm = -0.0384     CD =  0.02488   =>   CDf =  0.00889    CDp =  0.01599

 Side 1  free  transition at x/c =  0.5204   52
 Side 2  free  transition at x/c =  0.2051   33

   5   rms: 0.5199E-02   max: -.1004E+00   D at   32  2
       a =  0.500      CL =  0.3339
      Cm = -0.0383     CD =  0.02477   =>   CDf =  0.00882    CDp =  0.01595

 Side 1  free  transition at x/c =  0.5204   52
 Side 2  free  transition at x/c =  0.2049   33

   6   rms: 0.1247E-02   max: 0.1479E-01   D at   33  2
       a =  0.500      CL =  0.3339
      Cm = -0.0383     CD =  0.02476   =>   CDf =  0.00879    CDp =  0.01598

 Side 1  free  transition at x/c =  0.5204   52
 Side 2  free  transition at x/c =  0.2048   33

   7   rms: 0.8023E-05   max: 0.6227E-04   D at   33  2
       a =  0.500      CL =  0.3339
      Cm = -0.0383     CD =  0.02476   =>   CDf =  0.00879    CDp =  0.01597
 plradd ia,ip,cpol           10           0  0.25511107    

 Point added to stored polar  1
 Point written to save file  l7769_Re150k.base.pol                           
 Dump file unspecified or not available
 Calculating wake trajectory ...
 Calculating source influence matrix ...

 Solving BL system ...

 Side 1  free  transition at x/c =  0.5204   52
 Side 2  free  transition at x/c =  0.2048   33

   1   rms: 0.1358E+00   max: -.1149E+01   T at   33  2   RLX: 0.435
       a =  1.000      CL =  0.3557
      Cm = -0.0383     CD =  0.02438   =>   CDf =  0.00880    CDp =  0.01558

 Side 1  free  transition at x/c =  0.5183   52
 Side 2  free  transition at x/c =  0.2144   33

   2   rms: 0.7306E-01   max: -.4130E+00   T at   33  2
       a =  1.000      CL =  0.3876
      Cm = -0.0379     CD =  0.02487   =>   CDf =  0.00876    CDp =  0.01611

 Side 1  free  transition at x/c =  0.5159   52
 Side 2  free  transition at x/c =  0.2328   34

   3   rms: 0.2782E-01   max: 0.3263E+00   D at   34  2
       a =  1.000      CL =  0.3860
      Cm = -0.0376     CD =  0.02462   =>   CDf =  0.00854    CDp =  0.01609

 Side 1  free  transition at x/c =  0.5161   52
 Side 2  free  transition at x/c =  0.2297   34

   4   rms: 0.4753E-02   max: 0.4406E-01   D at   34  2
       a =  1.000      CL =  0.3860
      Cm = -0.0377     CD =  0.02464   =>   CDf =  0.00860    CDp =  0.01605

 Side 1  free  transition at x/c =  0.5161   52
 Side 2  free  transition at x/c =  0.2287   34

   5   rms: 0.1375E-03   max: -.3008E-02   D at   36  2
       a =  1.000      CL =  0.3860
      Cm = -0.0377     CD =  0.02465   =>   CDf =  0.00861    CDp =  0.01603

 Side 1  free  transition at x/c =  0.5161   52
 Side 2  free  transition at x/c =  0.2286   34

   6   rms: 0.1362E-05   max: -.1044E-04   D at   36  2
       a =  1.000      CL =  0.3860
      Cm = -0.0377     CD =  0.02465   =>   CDf =  0.00861    CDp =  0.01603
 plradd ia,ip,cpol           11           0  0.24022320    

 Point added to stored polar  1
 Point written to save file  l7769_Re150k.base.pol                           
 Dump file unspecified or not available
 Calculating wake trajectory ...
 Calculating source influence matrix ...

 Solving BL system ...

 Side 1  free  transition at x/c =  0.5161   52
 Side 2  free  transition at x/c =  0.2286   34

   1   rms: 0.9674E-01   max: -.7256E+00   T at   34  2   RLX: 0.689
       a =  1.500      CL =  0.4216
      Cm = -0.0369     CD =  0.02462   =>   CDf =  0.00853    CDp =  0.01609

 Side 1  free  transition at x/c =  0.5142   53
 Side 2  free  transition at x/c =  0.2517   34

   2   rms: 0.3736E-01   max: -.2914E+00   C at   34  2
       a =  1.500      CL =  0.4375
      Cm = -0.0365     CD =  0.02476   =>   CDf =  0.00857    CDp =  0.01619

 Side 1  free  transition at x/c =  0.5134   53
 Side 2  free  transition at x/c =  0.2685   35

   3   rms: 0.9587E-02   max: -.1396E+00   D at   34  2
       a =  1.500      CL =  0.4373
      Cm = -0.0365     CD =  0.02478   =>   CDf =  0.00851    CDp =  0.01627

 Side 1  free  transition at x/c =  0.5133   53
 Side 2  free  transition at x/c =  0.2707   35

   4   rms: 0.1383E-01   max: -.2091E+00   C at   35  2
       a =  1.500      CL =  0.4374
      Cm = -0.0365     CD =  0.02480   =>   CDf =  0.00856    CDp =  0.01624

 Side 1  free  transition at x/c =  0.5133   53
 Side 2  free  transition at x/c =  0.2719   36

   5   rms: 0.1195E-01   max: -.1527E+00   C at   36  2
       a =  1.500      CL =  0.4373
      Cm = -0.0365     CD =  0.02478   =>   CDf =  0.00855    CDp =  0.01623

 Side 1  free  transition at x/c =  0.5133   53
 Side 2  free  transition at x/c =  0.2733   36

   6   rms: 0.1977E-02   max: 0.3134E-01   C at   36  2
       a =  1.500      CL =  0.4373
      Cm = -0.0365     CD =  0.02479   =>   CDf =  0.00848    CDp =  0.01630

 Side 1  free  transition at x/c =  0.5133   53
 Side 2  free  transition at x/c =  0.2726   36

   7   rms: 0.2114E-04   max: -.3982E-03   D at   37  2
       a =  1.500      CL =  0.4373
      Cm = -0.0365     CD =  0.02479   =>   CDf =  0.00849    CDp =  0.01630
 plradd ia,ip,cpol           12           0  0.24022320    

 Point added to stored polar  1
 Point written to save file  l7769_Re150k.base.pol                           
 Dump file unspecified or not available
 Calculating wake trajectory ...
 Calculating source influence matrix ...

 Solving BL system ...

 Side 1  free  transition at x/c =  0.5133   53
 Side 2  free  transition at x/c =  0.2726   36

   1   rms: 0.1598E+00   max: -.2062E+01   C at   36  2   RLX: 0.242
       a =  2.000      CL =  0.4491
      Cm = -0.0363     CD =  0.02487   =>   CDf =  0.00850    CDp =  0.01637

 Side 1  free  transition at x/c =  0.5129   52
 Side 2  free  transition at x/c =  0.2919   37

   2   rms: 0.2078E+00   max: -.2936E+01   C at   37  2   RLX: 0.170
       a =  2.000      CL =  0.4569
      Cm = -0.0371     CD =  0.02472   =>   CDf =  0.00846    CDp =  0.01626

 Side 1  free  transition at x/c =  0.5117   52
 Side 2  free  transition at x/c =  0.3061   38

   3   rms: 0.2436E+00   max: -.3870E+01   C at   38  2   RLX: 0.129
       a =  2.000      CL =  0.4613
      Cm = -0.0375     CD =  0.02506   =>   CDf =  0.00833    CDp =  0.01673

 Side 1  free  transition at x/c =  0.5110   52
 Side 2  free  transition at x/c =  0.3215   38

   4   rms: 0.1409E+00   max: -.1792E+01   C at   38  2   RLX: 0.279
       a =  2.000      CL =  0.4693
      Cm = -0.0383     CD =  0.02572   =>   CDf =  0.00821    CDp =  0.01751

 Side 1  free  transition at x/c =  0.5092   52
 Side 2 forced transition at x/c =  1.0000   79

   5   rms: 0.1164E+00   max: 0.5565E+00   C at   79  2
       a =  2.000      CL =  0.5021
      Cm = -0.0417     CD =  0.02568   =>   CDf =  0.00624    CDp =  0.01944

 Side 1  free  transition at x/c =  0.5047   53
 Side 2 forced transition at x/c =  1.0000   78

   6   rms: 0.2734E-01   max: 0.1345E+00   D at   31  2
       a =  2.000      CL =  0.5062
      Cm = -0.0420     CD =  0.02519   =>   CDf =  0.00639    CDp =  0.01880

 Side 1  free  transition at x/c =  0.5053   53
 Side 2 forced transition at x/c =  1.0000   78

   7   rms: 0.5395E-02   max: 0.3698E-01   D at   31  2
       a =  2.000      CL =  0.5060
      Cm = -0.0420     CD =  0.02525   =>   CDf =  0.00641    CDp =  0.01884

 Side 1  free  transition at x/c =  0.5053   53
 Side 2 forced transition at x/c =  1.0000   78

   8   rms: 0.2990E-03   max: 0.2334E-02   D at   31  2
       a =  2.000      CL =  0.5060
      Cm = -0.0420     CD =  0.02525   =>   CDf =  0.00640    CDp =  0.01885

 Side 1  free  transition at x/c =  0.5053   53
 Side 2 forced transition at x/c =  1.0000   78

   9   rms: 0.1784E-05   max: 0.8373E-05   D at   31  2
       a =  2.000      CL =  0.5060
      Cm = -0.0420     CD =  0.02525   =>   CDf =  0.00640    CDp =  0.01885
 plradd ia,ip,cpol           13           0  0.16609479    

 Point added to stored polar  1
 Point written to save file  l7769_Re150k.base.pol                           
 Dump file unspecified or not available
 Calculating wake trajectory ...
 Calculating source influence matrix ...

 Solving BL system ...

 Side 1  free  transition at x/c =  0.5053   53
 Side 2 forced transition at x/c =  1.0000   78

   1   rms: 0.1110E+00   max: -.3030E+00   D at   30  2
       a =  2.500      CL =  0.5569
      Cm = -0.0422     CD =  0.02691   =>   CDf =  0.00634    CDp =  0.02057

 Side 1  free  transition at x/c =  0.5004   54
 Side 2 forced transition at x/c =  1.0000   77

   2   rms: 0.2198E-01   max: 0.1003E+00   D at   27  2
       a =  2.500      CL =  0.5569
      Cm = -0.0417     CD =  0.02651   =>   CDf =  0.00656    CDp =  0.01995

 Side 1  free  transition at x/c =  0.5007   54
 Side 2 forced transition at x/c =  1.0000   77

   3   rms: 0.2899E-02   max: 0.1981E-01   D at   28  2
       a =  2.500      CL =  0.5568
      Cm = -0.0417     CD =  0.02658   =>   CDf =  0.00658    CDp =  0.02000

 Side 1  free  transition at x/c =  0.5007   54
 Side 2 forced transition at x/c =  1.0000   77

   4   rms: 0.8845E-04   max: 0.6864E-03   D at   28  2
       a =  2.500      CL =  0.5568
      Cm = -0.0417     CD =  0.02658   =>   CDf =  0.00658    CDp =  0.02000
 plradd ia,ip,cpol           14           0  0.16609479    

 Point added to stored polar  1
 Point written to save file  l7769_Re150k.base.pol                           
 Dump file unspecified or not available
 Calculating wake trajectory ...
 Calculating source influence matrix ...

 Solving BL system ...

 Side 1  free  transition at x/c =  0.5007   54
 Side 2 forced transition at x/c =  1.0000   77

   1   rms: 0.8534E-01   max: -.1524E+00   n at   76  2
       a =  3.000      CL =  0.6076
      Cm = -0.0406     CD =  0.02744   =>   CDf =  0.00659    CDp =  0.02086

 Side 1  free  transition at x/c =  0.4964   53
 Side 2 forced transition at x/c =  1.0000   77

   2   rms: 0.2608E-01   max: 0.2426E+00   T at   53  1
       a =  3.000      CL =  0.6042
      Cm = -0.0429     CD =  0.02891   =>   CDf =  0.00672    CDp =  0.02219

 Side 1  free  transition at x/c =  0.4936   53
 Side 2 forced transition at x/c =  1.0000   77

   3   rms: 0.7599E-01   max: -.2775E+00   D at   68  1
       a =  3.000      CL =  0.6096
      Cm = -0.0387     CD =  0.02610   =>   CDf =  0.00654    CDp =  0.01956

 Side 1  free  transition at x/c =  0.4994   54
 Side 2 forced transition at x/c =  1.0000   77

   4   rms: 0.6256E-01   max: 0.2646E+00   D at   54  1
       a =  3.000      CL =  0.6080
      Cm = -0.0401     CD =  0.02739   =>   CDf =  0.00694    CDp =  0.02045

 Side 1  free  transition at x/c =  0.4970   54
 Side 2 forced transition at x/c =  1.0000   77

   5   rms: 0.1108E-01   max: -.4001E-01   D at   54  1
       a =  3.000      CL =  0.6081
      Cm = -0.0400     CD =  0.02707   =>   CDf =  0.00679    CDp =  0.02028

 Side 1  free  transition at x/c =  0.4972   54
 Side 2 forced transition at x/c =  1.0000   77

   6   rms: 0.2407E-03   max: -.1041E-02   D at   58  1
       a =  3.000      CL =  0.6081
      Cm = -0.0399     CD =  0.02710   =>   CDf =  0.00683    CDp =  0.02028

 Side 1  free  transition at x/c =  0.4972   54
 Side 2 forced transition at x/c =  1.0000   77

   7   rms: 0.4670E-05   max: 0.1812E-04   D at    4  2
       a =  3.000      CL =  0.6081
      Cm = -0.0399     CD =  0.02710   =>   CDf =  0.00683    CDp =  0.02028
 plradd ia,ip,cpol           15           0  0.15208007    

 Point added to stored polar  1
 Point written to save file  l7769_Re150k.base.pol                           
 Dump file unspecified or not available
 Calculating wake trajectory ...
 Calculating source influence matrix ...

 Solving BL system ...

 Side 1  free  transition at x/c =  0.4972   54
 Side 2 forced transition at x/c =  1.0000   77

   1   rms: 0.8200E-01   max: -.1040E+00   D at   27  2
       a =  3.500      CL =  0.6597
      Cm = -0.0379     CD =  0.02759   =>   CDf =  0.00673    CDp =  0.02085

 Side 1  free  transition at x/c =  0.4952   54
 Side 2 forced transition at x/c =  1.0000   76

   2   rms: 0.2861E+00   max: 0.1436E+01   T at   54  1   RLX: 0.622
       a =  3.500      CL =  0.6483
      Cm = -0.0460     CD =  0.03260   =>   CDf =  0.00706    CDp =  0.02554

 Side 1  free  transition at x/c =  0.4818   54
 Side 2 forced transition at x/c =  1.0000   76

   3   rms: 0.9016E-01   max: -.3943E+00   D at   58  1
       a =  3.500      CL =  0.6564
      Cm = -0.0438     CD =  0.03073   =>   CDf =  0.00635    CDp =  0.02437

 Side 1  free  transition at x/c =  0.4845   54
 Side 2 forced transition at x/c =  1.0000   76

   4   rms: 0.1604E-01   max: -.6883E-01   T at   54  1
       a =  3.500      CL =  0.6529
      Cm = -0.0427     CD =  0.03042   =>   CDf =  0.00658    CDp =  0.02384

 Side 1  free  transition at x/c =  0.4859   54
 Side 2 forced transition at x/c =  1.0000   76

   5   rms: 0.2626E-02   max: -.9487E-02   D at   61  1
       a =  3.500      CL =  0.6531
      Cm = -0.0426     CD =  0.03038   =>   CDf =  0.00661    CDp =  0.02376

 Side 1  free  transition at x/c =  0.4861   54
 Side 2 forced transition at x/c =  1.0000   76

   6   rms: 0.5365E-04   max: -.2681E-03   D at   61  1
       a =  3.500      CL =  0.6531
      Cm = -0.0426     CD =  0.03039   =>   CDf =  0.00662    CDp =  0.02377
 plradd ia,ip,cpol           16           0  0.13830087    

 Point added to stored polar  1
 Point written to save file  l7769_Re150k.base.pol                           
 Dump file unspecified or not available
 Calculating wake trajectory ...
 Calculating source influence matrix ...

 Solving BL system ...

 Side 1  free  transition at x/c =  0.4861   54
 Side 2 forced transition at x/c =  1.0000   76

   1   rms: 0.7785E-01   max: -.8299E-01   D at   26  2
       a =  4.000      CL =  0.7041
      Cm = -0.0410     CD =  0.03068   =>   CDf =  0.00651    CDp =  0.02417

 Side 1  free  transition at x/c =  0.4794   54
 Side 2 forced transition at x/c =  1.0000   75

   2   rms: 0.2880E-01   max: 0.2347E+00   T at   54  1
       a =  4.000      CL =  0.6994
      Cm = -0.0426     CD =  0.03186   =>   CDf =  0.00668    CDp =  0.02518

 Side 1  free  transition at x/c =  0.4767   54
 Side 2 forced transition at x/c =  1.0000   75

   3   rms: 0.3731E+00   max: -.1971E+01   T at   54  1   RLX: 0.254
       a =  4.000      CL =  0.7146
      Cm = -0.0367     CD =  0.02820   =>   CDf =  0.00660    CDp =  0.02160

 Side 1  free  transition at x/c =  0.4898   55
 Side 2 forced transition at x/c =  1.0000   75

   4   rms: 0.1705E+00   max: 0.7255E+00   D at   55  1
       a =  4.000      CL =  0.7059
      Cm = -0.0405     CD =  0.03127   =>   CDf =  0.00711    CDp =  0.02417

 Side 1  free  transition at x/c =  0.4806   55
 Side 2 forced transition at x/c =  1.0000   75

   5   rms: 0.2476E-01   max: -.1340E+00   D at   55  1
       a =  4.000      CL =  0.7064
      Cm = -0.0399     CD =  0.02989   =>   CDf =  0.00677    CDp =  0.02312

 Side 1  free  transition at x/c =  0.4813   55
 Side 2 forced transition at x/c =  1.0000   75

   6   rms: 0.1134E-02   max: -.7568E-02   T at   55  1
       a =  4.000      CL =  0.7064
      Cm = -0.0399     CD =  0.02992   =>   CDf =  0.00683    CDp =  0.02310

 Side 1  free  transition at x/c =  0.4814   55
 Side 2 forced transition at x/c =  1.0000   75

   7   rms: 0.3022E-04   max: -.1233E-03   D at   62  1
       a =  4.000      CL =  0.7064
      Cm = -0.0399     CD =  0.02992   =>   CDf =  0.00682    CDp =  0.02310
 plradd ia,ip,cpol           17           0  0.13830087    

 Point added to stored polar  1
 Point written to save file  l7769_Re150k.base.pol                           
 Dump file unspecified or not available
 Calculating wake trajectory ...
 Calculating source influence matrix ...

 Solving BL system ...

 Side 1  free  transition at x/c =  0.4814   55
 Side 2 forced transition at x/c =  1.0000   75

   1   rms: 0.8760E-01   max: -.6307E-01   D at   76  2
       a =  4.500      CL =  0.7611
      Cm = -0.0367     CD =  0.02902   =>   CDf =  0.00683    CDp =  0.02218

 Side 1  free  transition at x/c =  0.4792   54
 Side 2 forced transition at x/c =  1.0000   75

[...]
       a = 13.250      CL =  1.4094
      Cm = -0.0204     CD =  0.04707   =>   CDf =  0.00611    CDp =  0.04097

 Side 1  free  transition at x/c =  0.1779   44
 Side 2 forced transition at x/c =  1.0000   65

   3   rms: 0.6990E-03   max: 0.2971E-02   T at   44  1
       a = 13.250      CL =  1.4098
      Cm = -0.0204     CD =  0.04707   =>   CDf =  0.00606    CDp =  0.04102

 Side 1  free  transition at x/c =  0.1777   44
 Side 2 forced transition at x/c =  1.0000   65

   4   rms: 0.2359E-04   max: -.1344E-03   D at   75  2
       a = 13.250      CL =  1.4098
      Cm = -0.0205     CD =  0.04708   =>   CDf =  0.00606    CDp =  0.04103
 plradd ia,ip,cpol           39           0  4.50245338E-04

 Point added to stored polar  1
 Point written to save file  l7769_Re150k.base.pol                           
 Dump file unspecified or not available
 Calculating wake trajectory ...
 Calculating source influence matrix ...

 Solving BL system ...

 Side 1  free  transition at x/c =  0.1777   44
 Side 2 forced transition at x/c =  1.0000   65

   1   rms: 0.4207E-01   max: 0.1516E+00   D at   63  1
       a = 13.500      CL =  1.4047
      Cm = -0.0216     CD =  0.05121   =>   CDf =  0.00606    CDp =  0.04515

 Side 1  free  transition at x/c =  0.1665   44
 Side 2 forced transition at x/c =  1.0000   65

   2   rms: 0.1177E-01   max: 0.7721E-01   D at   45  1
       a = 13.500      CL =  1.3997
      Cm = -0.0211     CD =  0.05072   =>   CDf =  0.00612    CDp =  0.04460

 Side 1  free  transition at x/c =  0.1694   44
 Side 2 forced transition at x/c =  1.0000   65

   3   rms: 0.4828E-02   max: -.2471E-01   D at   64  1
       a = 13.500      CL =  1.4017
      Cm = -0.0209     CD =  0.05040   =>   CDf =  0.00600    CDp =  0.04440

 Side 1  free  transition at x/c =  0.1688   44
 Side 2 forced transition at x/c =  1.0000   65

   4   rms: 0.5861E-03   max: -.2333E-02   D at   44  1
       a = 13.500      CL =  1.4021
      Cm = -0.0210     CD =  0.05046   =>   CDf =  0.00602    CDp =  0.04444

 Side 1  free  transition at x/c =  0.1687   44
 Side 2 forced transition at x/c =  1.0000   65

   5   rms: 0.3128E-04   max: -.1326E-03   D at   75  2
       a = 13.500      CL =  1.4021
      Cm = -0.0210     CD =  0.05046   =>   CDf =  0.00602    CDp =  0.04444
 plradd ia,ip,cpol           40           0  4.50245338E-04

 Point added to stored polar  1
 Point written to save file  l7769_Re150k.base.pol                           
 Dump file unspecified or not available
 Calculating wake trajectory ...
 Calculating source influence matrix ...

 Solving BL system ...

 Side 1  free  transition at x/c =  0.1687   44
 Side 2 forced transition at x/c =  1.0000   65

   1   rms: 0.3767E-01   max: -.1623E+00   D at   45  1
       a = 13.750      CL =  1.3982
      Cm = -0.0215     CD =  0.05406   =>   CDf =  0.00603    CDp =  0.04803

 Side 1  free  transition at x/c =  0.1604   43
 Side 2 forced transition at x/c =  1.0000   65

   2   rms: 0.8012E-02   max: -.7298E-01   D at   43  1
       a = 13.750      CL =  1.3948
      Cm = -0.0216     CD =  0.05400   =>   CDf =  0.00601    CDp =  0.04800

 Side 1  free  transition at x/c =  0.1601   43
 Side 2 forced transition at x/c =  1.0000   65

   3   rms: 0.6353E-03   max: -.4170E-02   D at   64  1
       a = 13.750      CL =  1.3949
      Cm = -0.0215     CD =  0.05386   =>   CDf =  0.00596    CDp =  0.04790

 Side 1  free  transition at x/c =  0.1600   43
 Side 2 forced transition at x/c =  1.0000   65

   4   rms: 0.7679E-04   max: -.3335E-03   D at   77  2
       a = 13.750      CL =  1.3950
      Cm = -0.0216     CD =  0.05387   =>   CDf =  0.00596    CDp =  0.04791
 plradd ia,ip,cpol           41           0  1.02492992E-03

 Point added to stored polar  1
 Point written to save file  l7769_Re150k.base.pol                           
 Dump file unspecified or not available
 Calculating wake trajectory ...
 Calculating source influence matrix ...

 Solving BL system ...

 Side 1  free  transition at x/c =  0.1600   43
 Side 2 forced transition at x/c =  1.0000   65

   1   rms: 0.3855E-01   max: 0.1428E+00   D at   61  1   RLX: 0.950
       a = 14.000      CL =  1.3896
      Cm = -0.0226     CD =  0.05793   =>   CDf =  0.00597    CDp =  0.05196

 Side 1  free  transition at x/c =  0.1505   42
 Side 2 forced transition at x/c =  1.0000   65

   2   rms: 0.6436E-02   max: -.5166E-01   C at   42  1
       a = 14.000      CL =  1.3863
      Cm = -0.0221     CD =  0.05738   =>   CDf =  0.00604    CDp =  0.05134

 Side 1  free  transition at x/c =  0.1516   42
 Side 2 forced transition at x/c =  1.0000   65

   3   rms: 0.9692E-03   max: 0.3702E-02   T at   42  1
       a = 14.000      CL =  1.3868
      Cm = -0.0221     CD =  0.05732   =>   CDf =  0.00601    CDp =  0.05131

 Side 1  free  transition at x/c =  0.1513   42
 Side 2 forced transition at x/c =  1.0000   65

   4   rms: 0.7135E-04   max: -.3583E-03   D at   77  2
       a = 14.000      CL =  1.3869
      Cm = -0.0221     CD =  0.05734   =>   CDf =  0.00601    CDp =  0.05133
 plradd ia,ip,cpol           42           0  4.50245338E-04

 Point added to stored polar  1
 Point written to save file  l7769_Re150k.base.pol                           
 Dump file unspecified or not available
 Calculating wake trajectory ...
 Calculating source influence matrix ...

 Solving BL system ...

 Side 1  free  transition at x/c =  0.1513   42
 Side 2 forced transition at x/c =  1.0000   65

   1   rms: 0.4139E-01   max: 0.1649E+00   D at   61  1   RLX: 0.887
       a = 14.250      CL =  1.3810
      Cm = -0.0236     CD =  0.06169   =>   CDf =  0.00601    CDp =  0.05567

 Side 1  free  transition at x/c =  0.1403   42
 Side 2 forced transition at x/c =  1.0000   65

   2   rms: 0.9187E-02   max: -.7779E-01   D at   42  1
       a = 14.250      CL =  1.3760
      Cm = -0.0233     CD =  0.06156   =>   CDf =  0.00600    CDp =  0.05556

 Side 1  free  transition at x/c =  0.1417   42
 Side 2 forced transition at x/c =  1.0000   65

   3   rms: 0.1350E-02   max: -.8747E-02   D at   44  1
       a = 14.250      CL =  1.3765
      Cm = -0.0232     CD =  0.06135   =>   CDf =  0.00592    CDp =  0.05543

 Side 1  free  transition at x/c =  0.1414   42
 Side 2 forced transition at x/c =  1.0000   65

   4   rms: 0.1652E-03   max: -.8252E-03   D at   42  1
       a = 14.250      CL =  1.3765
      Cm = -0.0232     CD =  0.06137   =>   CDf =  0.00593    CDp =  0.05545

 Side 1  free  transition at x/c =  0.1414   42
 Side 2 forced transition at x/c =  1.0000   65

   5   rms: 0.6844E-05   max: 0.6803E-04   C at   65  2
       a = 14.250      CL =  1.3766
      Cm = -0.0232     CD =  0.06137   =>   CDf =  0.00593    CDp =  0.05545
 plradd ia,ip,cpol           43           0  4.50245338E-04

 Point added to stored polar  1
 Point written to save file  l7769_Re150k.base.pol                           
 Dump file unspecified or not available
 Calculating wake trajectory ...
 Calculating source influence matrix ...

 Solving BL system ...

 Side 1  free  transition at x/c =  0.1414   42
 Side 2 forced transition at x/c =  1.0000   65

   1   rms: 0.4127E-01   max: -.1935E+00   D at   43  1   RLX: 0.827
       a = 14.500      CL =  1.3693
      Cm = -0.0244     CD =  0.06551   =>   CDf =  0.00593    CDp =  0.05957

 Side 1  free  transition at x/c =  0.1335   41
 Side 2 forced transition at x/c =  1.0000   65

   2   rms: 0.1099E-01   max: -.8619E-01   D at   41  1
       a = 14.500      CL =  1.3663
      Cm = -0.0246     CD =  0.06597   =>   CDf =  0.00592    CDp =  0.06004

 Side 1  free  transition at x/c =  0.1298   41
 Side 2 forced transition at x/c =  1.0000   65

   3   rms: 0.1651E-02   max: -.1663E-01   C at   41  1
       a = 14.500      CL =  1.3659
      Cm = -0.0245     CD =  0.06571   =>   CDf =  0.00590    CDp =  0.05981

 Side 1  free  transition at x/c =  0.1303   41
 Side 2 forced transition at x/c =  1.0000   65

   4   rms: 0.1606E-03   max: -.9632E-03   D at   41  1
       a = 14.500      CL =  1.3659
      Cm = -0.0245     CD =  0.06572   =>   CDf =  0.00589    CDp =  0.05983

 Side 1  free  transition at x/c =  0.1303   41
 Side 2 forced transition at x/c =  1.0000   65

   5   rms: 0.7040E-05   max: 0.8673E-04   C at   65  2
       a = 14.500      CL =  1.3659
      Cm = -0.0245     CD =  0.06573   =>   CDf =  0.00589    CDp =  0.05983
 plradd ia,ip,cpol           44           0  4.50245338E-04

 Point added to stored polar  1
 Point written to save file  l7769_Re150k.base.pol                           
 Dump file unspecified or not available
 Calculating wake trajectory ...
 Calculating source influence matrix ...

 Solving BL system ...

 Side 1  free  transition at x/c =  0.1303   41
 Side 2 forced transition at x/c =  1.0000   65

   1   rms: 0.4335E-01   max: -.1844E+00   D at   42  1   RLX: 0.775
       a = 14.750      CL =  1.3583
      Cm = -0.0260     CD =  0.07017   =>   CDf =  0.00590    CDp =  0.06427

 Side 1  free  transition at x/c =  0.1210   40
 Side 2 forced transition at x/c =  1.0000   65

   2   rms: 0.1240E-01   max: -.9119E-01   D at   40  1
       a = 14.750      CL =  1.3540
      Cm = -0.0262     CD =  0.07082   =>   CDf =  0.00595    CDp =  0.06487

 Side 1  free  transition at x/c =  0.1171   40
 Side 2 forced transition at x/c =  1.0000   65

   3   rms: 0.1923E-02   max: -.1898E-01   C at   40  1
       a = 14.750      CL =  1.3533
      Cm = -0.0260     CD =  0.07052   =>   CDf =  0.00591    CDp =  0.06460

 Side 1  free  transition at x/c =  0.1178   40
 Side 2 forced transition at x/c =  1.0000   65

   4   rms: 0.1296E-03   max: -.1106E-02   D at   40  1
       a = 14.750      CL =  1.3533
      Cm = -0.0261     CD =  0.07053   =>   CDf =  0.00590    CDp =  0.06462

 Side 1  free  transition at x/c =  0.1177   40
 Side 2 forced transition at x/c =  1.0000   65

   5   rms: 0.5891E-05   max: 0.7243E-04   C at   65  2
       a = 14.750      CL =  1.3533
      Cm = -0.0261     CD =  0.07053   =>   CDf =  0.00590    CDp =  0.06463
 plradd ia,ip,cpol           45           0  4.50245338E-04

 Point added to stored polar  1
 Point written to save file  l7769_Re150k.base.pol                           
 Dump file unspecified or not available
 Calculating wake trajectory ...
 Calculating source influence matrix ...

 Solving BL system ...

 Side 1  free  transition at x/c =  0.1177   40
 Side 2 forced transition at x/c =  1.0000   65

   1   rms: 0.4720E-01   max: -.2043E+00   D at   41  1   RLX: 0.726
       a = 15.000      CL =  1.3442
      Cm = -0.0277     CD =  0.07529   =>   CDf =  0.00591    CDp =  0.06938

 Side 1  free  transition at x/c =  0.1075   39
 Side 2 forced transition at x/c =  1.0000   65

   2   rms: 0.1535E-01   max: -.1119E+00   D at   39  1
       a = 15.000      CL =  1.3388
      Cm = -0.0281     CD =  0.07636   =>   CDf =  0.00598    CDp =  0.07038

 Side 1  free  transition at x/c =  0.1018   39
 Side 2 forced transition at x/c =  1.0000   65

   3   rms: 0.4317E-02   max: -.4792E-01   C at   39  1
       a = 15.000      CL =  1.3377
      Cm = -0.0279     CD =  0.07596   =>   CDf =  0.00598    CDp =  0.06998

 Side 1  free  transition at x/c =  0.1035   39
 Side 2 forced transition at x/c =  1.0000   65

   4   rms: 0.2964E-03   max: -.3904E-02   D at   39  1
       a = 15.000      CL =  1.3377
      Cm = -0.0279     CD =  0.07596   =>   CDf =  0.00594    CDp =  0.07002

 Side 1  free  transition at x/c =  0.1034   39
 Side 2 forced transition at x/c =  1.0000   65

   5   rms: 0.3475E-04   max: -.2421E-03   D at   40  1
       a = 15.000      CL =  1.3377
      Cm = -0.0279     CD =  0.07597   =>   CDf =  0.00594    CDp =  0.07003
 plradd ia,ip,cpol           46           0  4.50245338E-04

 Point added to stored polar  1
 Point written to save file  l7769_Re150k.base.pol                           
 Dump file unspecified or not available
 Calculating wake trajectory ...
 Calculating source influence matrix ...

 Solving BL system ...

 Side 1  free  transition at x/c =  0.1034   39
 Side 2 forced transition at x/c =  1.0000   65

   1   rms: 0.5131E-01   max: -.2454E+00   D at   40  1   RLX: 0.680
       a = 15.250      CL =  1.3273
      Cm = -0.0297     CD =  0.08101   =>   CDf =  0.00595    CDp =  0.07506

 Side 1  free  transition at x/c =  0.0938   38
 Side 2 forced transition at x/c =  1.0000   65

   2   rms: 0.1804E-01   max: -.1372E+00   D at   38  1
       a = 15.250      CL =  1.3219
      Cm = -0.0301     CD =  0.08229   =>   CDf =  0.00601    CDp =  0.07628

 Side 1  free  transition at x/c =  0.0864   37
 Side 2 forced transition at x/c =  1.0000   65

   3   rms: 0.9934E-02   max: -.5225E-01   T at   38  1
       a = 15.250      CL =  1.3183
      Cm = -0.0301     CD =  0.08200   =>   CDf =  0.00613    CDp =  0.07587

 Side 1  free  transition at x/c =  0.0952   38
 Side 2 forced transition at x/c =  1.0000   65

   4   rms: 0.2010E-01   max: 0.3575E+00   C at   38  1
       a = 15.250      CL =  1.3204
      Cm = -0.0301     CD =  0.08192   =>   CDf =  0.00586    CDp =  0.07606

 Side 1  free  transition at x/c =  0.0896   38
 Side 2 forced transition at x/c =  1.0000   65

   5   rms: 0.2809E-02   max: -.3549E-01   D at   40  1
       a = 15.250      CL =  1.3205
      Cm = -0.0300     CD =  0.08174   =>   CDf =  0.00601    CDp =  0.07574

 Side 1  free  transition at x/c =  0.0889   38
 Side 2 forced transition at x/c =  1.0000   65

   6   rms: 0.2175E-03   max: -.1705E-02   D at   38  1
       a = 15.250      CL =  1.3206
      Cm = -0.0300     CD =  0.08178   =>   CDf =  0.00603    CDp =  0.07575

 Side 1  free  transition at x/c =  0.0888   38
 Side 2 forced transition at x/c =  1.0000   65

   7   rms: 0.8482E-05   max: 0.9689E-04   C at   65  2
       a = 15.250      CL =  1.3206
      Cm = -0.0300     CD =  0.08178   =>   CDf =  0.00603    CDp =  0.07575
 plradd ia,ip,cpol           47           0  4.50245338E-04

 Point added to stored polar  1
 Point written to save file  l7769_Re150k.base.pol                           
 Dump file unspecified or not available
 Calculating wake trajectory ...
 Calculating source influence matrix ...

 Solving BL system ...

 Side 1  free  transition at x/c =  0.0888   38
 Side 2 forced transition at x/c =  1.0000   65

   1   rms: 0.5431E-01   max: 0.3440E+00   C at   38  1   RLX: 0.638
       a = 15.500      CL =  1.3092
      Cm = -0.0318     CD =  0.08698   =>   CDf =  0.00604    CDp =  0.08094

 Side 1  free  transition at x/c =  0.0815   37
 Side 2 forced transition at x/c =  1.0000   65

   2   rms: 0.2092E-01   max: -.1611E+00   D at   37  1
       a = 15.500      CL =  1.3049
      Cm = -0.0323     CD =  0.08835   =>   CDf =  0.00607    CDp =  0.08228

 Side 1  free  transition at x/c =  0.0737   36
 Side 2 forced transition at x/c =  1.0000   65

   3   rms: 0.8599E-02   max: -.7397E-01   T at   36  1
       a = 15.500      CL =  1.3020
      Cm = -0.0322     CD =  0.08794   =>   CDf =  0.00623    CDp =  0.08171

 Side 1  free  transition at x/c =  0.0772   37
 Side 2 forced transition at x/c =  1.0000   65

   4   rms: 0.3271E-02   max: -.5765E-01   D at   36  1
       a = 15.500      CL =  1.3032
      Cm = -0.0321     CD =  0.08774   =>   CDf =  0.00615    CDp =  0.08159

 Side 1  free  transition at x/c =  0.0763   37
 Side 2 forced transition at x/c =  1.0000   65

   5   rms: 0.4590E-03   max: 0.4989E-02   C at   37  1
       a = 15.500      CL =  1.3033
      Cm = -0.0321     CD =  0.08781   =>   CDf =  0.00615    CDp =  0.08165

 Side 1  free  transition at x/c =  0.0761   37
 Side 2 forced transition at x/c =  1.0000   65

   6   rms: 0.2487E-04   max: -.1525E-03   C at   37  1
       a = 15.500      CL =  1.3032
      Cm = -0.0321     CD =  0.08781   =>   CDf =  0.00616    CDp =  0.08165
 plradd ia,ip,cpol           48           0  4.50245338E-04

 Point added to stored polar  1
 Point written to save file  l7769_Re150k.base.pol                           
 Dump file unspecified or not available
 Calculating wake trajectory ...
 Calculating source influence matrix ...

 Solving BL system ...

 Side 1  free  transition at x/c =  0.0761   37
 Side 2 forced transition at x/c =  1.0000   65

   1   rms: 0.4675E-01   max: -.2209E+00   D at   38  1   RLX: 0.606
       a = 15.750      CL =  1.2949
      Cm = -0.0336     CD =  0.09226   =>   CDf =  0.00616    CDp =  0.08610

 Side 1  free  transition at x/c =  0.0717   36
 Side 2 forced transition at x/c =  1.0000   65

   2   rms: 0.1865E-01   max: -.8021E-01   D at   37  1
       a = 15.750      CL =  1.2943
      Cm = -0.0339     CD =  0.09331   =>   CDf =  0.00616    CDp =  0.08715

 Side 1  free  transition at x/c =  0.0653   35
 Side 2 forced transition at x/c =  1.0000   65

   3   rms: 0.1112E-01   max: -.9985E-01   T at   35  1
       a = 15.750      CL =  1.2885
      Cm = -0.0342     CD =  0.09359   =>   CDf =  0.00635    CDp =  0.08724

 Side 1  free  transition at x/c =  0.0697   36
 Side 2 forced transition at x/c =  1.0000   65

   4   rms: 0.9559E-02   max: 0.9666E-01   C at   36  1
       a = 15.750      CL =  1.2920
      Cm = -0.0339     CD =  0.09292   =>   CDf =  0.00615    CDp =  0.08677

 Side 1  free  transition at x/c =  0.0676   36
 Side 2 forced transition at x/c =  1.0000   65

   5   rms: 0.9478E-03   max: -.1259E-01   D at   37  1
       a = 15.750      CL =  1.2922
      Cm = -0.0339     CD =  0.09298   =>   CDf =  0.00620    CDp =  0.08678

 Side 1  free  transition at x/c =  0.0674   36
 Side 2 forced transition at x/c =  1.0000   65

   6   rms: 0.3375E-04   max: -.1842E-03   T at   36  1
       a = 15.750      CL =  1.2922
      Cm = -0.0339     CD =  0.09298   =>   CDf =  0.00621    CDp =  0.08677
 plradd ia,ip,cpol           49           0  4.50245338E-04

 Point added to stored polar  1
 Point written to save file  l7769_Re150k.base.pol                           
 Dump file unspecified or not available
 Calculating wake trajectory ...
 Calculating source influence matrix ...

 Solving BL system ...

 Side 1  free  transition at x/c =  0.0674   36
 Side 2 forced transition at x/c =  1.0000   65

   1   rms: 0.4201E-01   max: -.1883E+00   D at   37  1   RLX: 0.581
       a = 16.000      CL =  1.2864
      Cm = -0.0352     CD =  0.09696   =>   CDf =  0.00622    CDp =  0.09074

 Side 1  free  transition at x/c =  0.0639   35
 Side 2 forced transition at x/c =  1.0000   65

   2   rms: 0.1558E-01   max: 0.1164E+00   T at   35  1
       a = 16.000      CL =  1.2859
      Cm = -0.0354     CD =  0.09809   =>   CDf =  0.00628    CDp =  0.09181

 Side 1  free  transition at x/c =  0.0597   35
 Side 2 forced transition at x/c =  1.0000   65

   3   rms: 0.5727E-02   max: -.5385E-01   T at   35  1
       a = 16.000      CL =  1.2837
      Cm = -0.0355     CD =  0.09788   =>   CDf =  0.00629    CDp =  0.09160

 Side 1  free  transition at x/c =  0.0609   35
 Side 2 forced transition at x/c =  1.0000   65

   4   rms: 0.7384E-03   max: -.5868E-02   D at   35  1
       a = 16.000      CL =  1.2839
      Cm = -0.0354     CD =  0.09774   =>   CDf =  0.00624    CDp =  0.09150

 Side 1  free  transition at x/c =  0.0608   35
 Side 2 forced transition at x/c =  1.0000   65

   5   rms: 0.1303E-03   max: 0.6266E-03   T at   35  1
       a = 16.000      CL =  1.2840
      Cm = -0.0354     CD =  0.09776   =>   CDf =  0.00624    CDp =  0.09152

 Side 1  free  transition at x/c =  0.0608   35
 Side 2 forced transition at x/c =  1.0000   65

   6   rms: 0.7707E-05   max: 0.1280E-03   C at   65  2
       a = 16.000      CL =  1.2840
      Cm = -0.0354     CD =  0.09776   =>   CDf =  0.00624    CDp =  0.09152
 plradd ia,ip,cpol           50           0  4.50245338E-04

 Point added to stored polar  1
 Point written to save file  l7769_Re150k.base.pol                           
 Dump file unspecified or not available

.OPERva   c>  
 Polar accumulation disabled

.OPERv   c>  
 XFOIL   c>  
 XFOIL   c>  