
 ===================================================
  XFOIL Version 6.99
  Copyright (C) 2000   Mark Drela, Harold Youngren

  This software comes with ABSOLUTELY NO WARRANTY,
    subject to the GNU General Public License.

  Caveat computor
 ===================================================

 File  xfoil.def  not found

   QUIT    Exit program

  .OPER    Direct operating point(s)
  .MDES    Complex mapping design routine
  .QDES    Surface speed design routine
  .GDES    Geometry design routine

   SAVE f  Write airfoil to labeled coordinate file
   PSAV f  Write airfoil to plain coordinate file
   ISAV f  Write airfoil to ISES coordinate file
   MSAV f  Write airfoil to MSES coordinate file
   REVE    Reverse written-airfoil node ordering

   LOAD f  Read buffer airfoil from coordinate file
   NACA i  Set NACA 4,5-digit airfoil and buffer airfoil
   INTE    Set buffer airfoil by interpolating two airfoils
   NORM    Buffer airfoil normalization toggle
   XYCM rr Change CM reference location, currently  0.25000 0.00000

   BEND    Display structural properties of current airfoil

   PCOP    Set current-airfoil panel nodes directly from buffer airfoil points
   PANE    Set current-airfoil panel nodes ( 160 ) based on curvature
  .PPAR    Show/change paneling

  .PLOP    Plotting options

   WDEF f  Write  current-settings file
   RDEF f  Reread current-settings file
   NAME s  Specify new airfoil name
   NINC    Increment name version number

   Z       Zoom    | (available in all menus)
   U       Unzoom  | 

 XFOIL   c>  
 Labeled airfoil file.  Name:  LIEBECK LA5055 AIRFOIL                          

 Number of input coordinate points:  49
 Counterclockwise ordering
 Max thickness =     0.159306  at x =   0.350
 Max camber    =     0.058749  at x =   0.400

  LE  x,y  =  -0.00001   0.00083  |   Chord =   1.00001
  TE  x,y  =   1.00000   0.00000  |

 Current airfoil nodes set from buffer airfoil nodes (  49 )

 WARNING: Poor input coordinate distribution
          Excessive panel angle   48.0  at i =  25
          Repaneling with PANE and/or PPAR suggested
           (doing GDES,CADD before repaneling _may_
            improve excessively coarse LE spacing

 XFOIL   c>  
 XFOIL   c>  
 Sharp trailing edge

 Paneling parameters used...
   Number of panel nodes       160
   Panel bunching parameter    1.000
   TE/LE panel density ratio   0.150
   Refined-area/LE panel density ratio    0.200
   Top    side refined area x/c limits  1.000 1.000
   Bottom side refined area x/c limits  1.000 1.000

 XFOIL   c>  
.OPERi   c>  
 Xtr/c     =  1.0000    top    side
 Xtr/c     =  1.0000    bottom side
 Ncrit     =    9.00   ( 0.070 % turb. level )
 Vacc      =  0.0100

 Klag  =  5.6000     Uxwt  =    1.00
 A     =  6.7000     B     =  0.7500       KCt = 0.01485
 CtiniK=  1.8000     CtiniX=  3.3000

..VPAR   c>  
..VPAR   c>  
.OPERi   c>  
 M  =    0.0000
 Re =    150000

.OPERv   c>  
.OPERv   c>  
.OPERv   c>  
 Polar  1 newly created for accumulation
 Airfoil archived with polar: LIEBECK LA5055 AIRFOIL                          

Enter  polar save filename  OR  <return> for no file   s>  
 New polar save file available

Enter  polar dump filename  OR  <return> for no file   s>  
 Polar dump file will NOT be written

 Polar accumulation enabled

.OPERva   c>   Calculating unit vorticity distributions ...
 Calculating wake trajectory ...
 Calculating source influence matrix ...

 Solving BL system ...

 Initializing BL ...
    side            1  ...
 MRCHUE: Inverse mode at  41     Hk =   3.800
 MRCHUE: Inverse mode at  46     Hk =   3.800
 MRCHUE: Inverse mode at  47     Hk =   4.355
 MRCHUE: Inverse mode at  48     Hk =   4.938
 MRCHUE: Convergence failed at  49  side 1    Res =  0.4042E+01
 MRCHUE: Inverse mode at  50     Hk =   5.573
 MRCHUE: Convergence failed at  51  side 1    Res =  0.2671E+01
 MRCHUE: Inverse mode at  52     Hk =   6.187
 MRCHUE: Inverse mode at  53     Hk =   6.757
 MRCHUE: Inverse mode at  54     Hk =   7.270
 MRCHUE: Inverse mode at  55     Hk =   7.734
 MRCHUE: Inverse mode at  56     Hk =   8.165
 MRCHUE: Inverse mode at  57     Hk =   7.630
 MRCHUE: Inverse mode at  58     Hk =   5.789
 MRCHUE: Inverse mode at  59     Hk =   4.449
 MRCHUE: Inverse mode at  60     Hk =   3.375
    side            2  ...
 MRCHUE: Inverse mode at  25     Hk =   3.843
 MRCHUE: Convergence failed at  26  side 2    Res =  0.2316E+01
 MRCHUE: Convergence failed at  27  side 2    Res =  0.2105E+01
 MRCHUE: Inverse mode at  28     Hk =   4.452
 MRCHUE: Inverse mode at  29     Hk =   5.043
 MRCHUE: Inverse mode at  30     Hk =   5.629
 MRCHUE: Convergence failed at  31  side 2    Res =  0.5490E+01
 MRCHUE: Inverse mode at  32     Hk =   6.275
 MRCHUE: Inverse mode at  33     Hk =   6.945
 MRCHUE: Inverse mode at  34     Hk =   7.654
 MRCHUE: Inverse mode at  35     Hk =   8.410
 MRCHUE: Inverse mode at  36     Hk =   8.651
 MRCHUE: Inverse mode at  37     Hk =   4.670
 MRCHUE: Inverse mode at  38     Hk =   2.663
 MRCHUE: Inverse mode at  39     Hk =   2.500

 MRCHDU: Convergence failed at  51  side 1    Res =  0.3256E+01
 MRCHDU: Convergence failed at  52  side 1    Res =  0.8831E+01
 MRCHDU: Convergence failed at  53  side 1    Res =  0.9307E+01
 MRCHDU: Convergence failed at  54  side 1    Res =  0.3435E+01
 MRCHDU: Convergence failed at  55  side 1    Res =  0.2449E+01
 MRCHDU: Convergence failed at  56  side 1    Res =  0.1834E+01
 MRCHDU: Convergence failed at  57  side 1    Res =  0.3823E+01
 MRCHDU: Convergence failed at  58  side 1    Res =  0.5936E+01
 MRCHDU: Convergence failed at  59  side 1    Res =  0.1185E+03
 MRCHDU: Convergence failed at  60  side 1    Res =  0.1753E+02
 MRCHDU: Convergence failed at  61  side 1    Res =  0.1362E+02
 MRCHDU: Convergence failed at  62  side 1    Res =  0.3432E+02
 MRCHDU: Convergence failed at  63  side 1    Res =  0.4234E+02
 MRCHDU: Convergence failed at  64  side 1    Res =  0.4552E+02
 MRCHDU: Convergence failed at  65  side 1    Res =  0.9644E+02
 MRCHDU: Convergence failed at  66  side 1    Res =  0.9020E+02
 MRCHDU: Convergence failed at  67  side 1    Res =  0.8796E+02
 MRCHDU: Convergence failed at  68  side 1    Res =  0.2910E+02
 MRCHDU: Convergence failed at  69  side 1    Res =  0.1562E+02
 MRCHDU: Convergence failed at  70  side 1    Res =  0.1224E+02
 MRCHDU: Convergence failed at  71  side 1    Res =  0.1385E+02
 MRCHDU: Convergence failed at  72  side 1    Res =  0.1844E+02
 MRCHDU: Convergence failed at  73  side 1    Res =  0.2351E+02
 MRCHDU: Convergence failed at  74  side 1    Res =  0.2600E+02
 MRCHDU: Convergence failed at  75  side 1    Res =  0.2735E+02
 MRCHDU: Convergence failed at  76  side 1    Res =  0.3106E+02
 MRCHDU: Convergence failed at  77  side 1    Res =  0.7239E+02
 MRCHDU: Convergence failed at  26  side 2    Res =  0.2228E+01
 MRCHDU: Convergence failed at  27  side 2    Res =  0.3501E+01
 MRCHDU: Convergence failed at  28  side 2    Res =  0.2168E+02
 MRCHDU: Convergence failed at  29  side 2    Res =  0.3689E+01
 MRCHDU: Convergence failed at  30  side 2    Res =  0.3215E+01
 MRCHDU: Convergence failed at  31  side 2    Res =  0.6507E+01
 MRCHDU: Convergence failed at  32  side 2    Res =  0.9484E+01
 MRCHDU: Convergence failed at  33  side 2    Res =  0.2675E+02
 MRCHDU: Convergence failed at  34  side 2    Res =  0.1929E+02
 MRCHDU: Convergence failed at  35  side 2    Res =  0.6234E+01
 MRCHDU: Convergence failed at  36  side 2    Res =  0.5701E+01
 MRCHDU: Convergence failed at  37  side 2    Res =  0.1313E+02
 MRCHDU: Convergence failed at  38  side 2    Res =  0.2550E+02
 MRCHDU: Convergence failed at  39  side 2    Res =  0.8685E+02
 MRCHDU: Convergence failed at  40  side 2    Res =  0.9583E+01
 MRCHDU: Convergence failed at  41  side 2    Res =  0.3611E+02
 MRCHDU: Convergence failed at  42  side 2    Res =  0.8354E+02
 MRCHDU: Convergence failed at  43  side 2    Res =  0.1213E+03
 MRCHDU: Convergence failed at  44  side 2    Res =  0.9756E+03
 MRCHDU: Convergence failed at  45  side 2    Res =  0.3886E+02
 MRCHDU: Convergence failed at  46  side 2    Res =  0.1011E+03
 MRCHDU: Convergence failed at  47  side 2    Res =  0.7150E+02
 MRCHDU: Convergence failed at  48  side 2    Res =  0.6270E+02
 MRCHDU: Convergence failed at  49  side 2    Res =  0.1309E+03
 MRCHDU: Convergence failed at  50  side 2    Res =  0.1590E+02
 MRCHDU: Convergence failed at  51  side 2    Res =  0.4308E+03
 MRCHDU: Convergence failed at  52  side 2    Res =  0.2478E+02
 MRCHDU: Convergence failed at  53  side 2    Res =  0.2552E+03
 MRCHDU: Convergence failed at  54  side 2    Res =  0.1409E+02
 MRCHDU: Convergence failed at  55  side 2    Res =  0.6742E+02
 MRCHDU: Convergence failed at  56  side 2    Res =  0.5184E+02
 MRCHDU: Convergence failed at  57  side 2    Res =  0.7754E+02
 MRCHDU: Convergence failed at  58  side 2    Res =  0.5485E+02
 MRCHDU: Convergence failed at  59  side 2    Res =  0.5364E+02
 MRCHDU: Convergence failed at  60  side 2    Res =  0.1037E+03
 MRCHDU: Convergence failed at  61  side 2    Res =  0.8736E+02
 MRCHDU: Convergence failed at  62  side 2    Res =  0.5931E+02
 MRCHDU: Convergence failed at  63  side 2    Res =  0.5282E+02
 MRCHDU: Convergence failed at  64  side 2    Res =  0.5765E+02
 MRCHDU: Convergence failed at  65  side 2    Res =  0.5489E+02
 MRCHDU: Convergence failed at  66  side 2    Res =  0.4079E+02
 MRCHDU: Convergence failed at  67  side 2    Res =  0.6032E+02
 MRCHDU: Convergence failed at  68  side 2    Res =  0.5796E+02
 MRCHDU: Convergence failed at  69  side 2    Res =  0.4159E+02
 MRCHDU: Convergence failed at  70  side 2    Res =  0.4708E+02
 MRCHDU: Convergence failed at  71  side 2    Res =  0.4071E+02
 MRCHDU: Convergence failed at  72  side 2    Res =  0.3467E+02
 MRCHDU: Convergence failed at  73  side 2    Res =  0.6560E+02
 MRCHDU: Convergence failed at  74  side 2    Res =  0.7629E+02
 MRCHDU: Convergence failed at  75  side 2    Res =  0.1111E+03
 MRCHDU: Convergence failed at  76  side 2    Res =  0.2419E+03
 MRCHDU: Convergence failed at  77  side 2    Res =  0.7336E+03
 MRCHDU: Convergence failed at  78  side 2    Res =  0.1587E+03
 MRCHDU: Convergence failed at  79  side 2    Res =  0.1126E+03
 MRCHDU: Convergence failed at  80  side 2    Res =  0.7855E+02
 MRCHDU: Convergence failed at  81  side 2    Res =  0.5381E+02
 MRCHDU: Convergence failed at  82  side 2    Res =  0.3535E+02
 MRCHDU: Convergence failed at  83  side 2    Res =  0.2574E+02
 MRCHDU: Convergence failed at  84  side 2    Res =  0.1943E+02
 MRCHDU: Convergence failed at  85  side 2    Res =  0.1465E+02
 Side 1  free  transition at x/c =  0.6727   58
 Side 2  free  transition at x/c =  0.1271   38

   1   rms: 0.1446E+01   max: 0.4390E+01   D at   87  2   RLX: 0.327
       a = -4.000      CL = -1.5872
      Cm =  0.3192     CD =  0.00412   =>   CDf =  0.00545    CDp = -0.00133

 Side 1  free  transition at x/c =  0.6449   56
 Side 2  free  transition at x/c =  0.1369   39

   2   rms: 0.1078E+02   max: 0.2158E+03   C at   39  2   RLX: 0.007
       a = -4.000      CL = -1.5455
      Cm =  0.3131     CD =  0.00886   =>   CDf =  0.01979    CDp = -0.01093

 Side 1  free  transition at x/c =  0.6445   56
 Side 2  free  transition at x/c =  0.1160   37

   3   rms: 0.1967E+01   max: 0.1574E+02   C at   37  2   RLX: 0.095
       a = -4.000      CL = -1.3669
      Cm =  0.2644     CD =  0.00983   =>   CDf =  0.01988    CDp = -0.01004

 MRCHDU: Convergence failed at  37  side 2    Res =  0.1059E+02
 Side 1  free  transition at x/c =  0.6403   56
 Side 2  free  transition at x/c =  0.0853   35

   4   rms: 0.8771E+00   max: 0.4089E+01   T at   35  2   RLX: 0.367
       a = -4.000      CL = -0.7870
      Cm =  0.1136     CD =  0.01478   =>   CDf =  0.01906    CDp = -0.00428

 MRCHDU: Convergence failed at  34  side 2    Res =  0.1474E+02
 MRCHDU: Convergence failed at  35  side 2    Res =  0.3044E+02
 MRCHDU: Convergence failed at  36  side 2    Res =  0.2783E+03
 MRCHDU: Convergence failed at  37  side 2    Res =  0.2627E+02
 MRCHDU: Convergence failed at  38  side 2    Res =  0.1789E+02
 MRCHDU: Convergence failed at  39  side 2    Res =  0.3156E+02
 MRCHDU: Convergence failed at  40  side 2    Res =  0.4073E+02
 MRCHDU: Convergence failed at  41  side 2    Res =  0.5532E+02
 MRCHDU: Convergence failed at  42  side 2    Res =  0.7245E+02
 MRCHDU: Convergence failed at  43  side 2    Res =  0.9062E+02
 MRCHDU: Convergence failed at  44  side 2    Res =  0.1082E+03
 MRCHDU: Convergence failed at  45  side 2    Res =  0.1264E+03
 MRCHDU: Convergence failed at  46  side 2    Res =  0.1466E+03
 MRCHDU: Convergence failed at  47  side 2    Res =  0.1552E+03
 MRCHDU: Convergence failed at  48  side 2    Res =  0.1424E+03
 MRCHDU: Convergence failed at  49  side 2    Res =  0.1257E+03
 MRCHDU: Convergence failed at  50  side 2    Res =  0.1195E+03
 MRCHDU: Convergence failed at  51  side 2    Res =  0.1239E+03
 MRCHDU: Convergence failed at  52  side 2    Res =  0.1282E+03
 MRCHDU: Convergence failed at  53  side 2    Res =  0.1187E+03
 MRCHDU: Convergence failed at  54  side 2    Res =  0.1919E+03
 MRCHDU: Convergence failed at  55  side 2    Res =  0.1262E+03
 MRCHDU: Convergence failed at  56  side 2    Res =  0.5032E+03
 MRCHDU: Convergence failed at  57  side 2    Res =  0.1058E+03
 MRCHDU: Convergence failed at  58  side 2    Res =  0.1182E+03
 MRCHDU: Convergence failed at  59  side 2    Res =  0.1279E+03
 MRCHDU: Convergence failed at  60  side 2    Res =  0.1141E+03
 MRCHDU: Convergence failed at  61  side 2    Res =  0.9323E+02
 MRCHDU: Convergence failed at  62  side 2    Res =  0.2804E+03
 MRCHDU: Convergence failed at  63  side 2    Res =  0.1678E+03
 MRCHDU: Convergence failed at  64  side 2    Res =  0.6485E+02
 MRCHDU: Convergence failed at  65  side 2    Res =  0.5851E+02
 MRCHDU: Convergence failed at  66  side 2    Res =  0.5513E+02
 MRCHDU: Convergence failed at  67  side 2    Res =  0.5409E+02
 MRCHDU: Convergence failed at  68  side 2    Res =  0.5441E+02
 MRCHDU: Convergence failed at  69  side 2    Res =  0.5402E+02
 MRCHDU: Convergence failed at  70  side 2    Res =  0.5159E+02
 MRCHDU: Convergence failed at  71  side 2    Res =  0.4870E+02
 MRCHDU: Convergence failed at  72  side 2    Res =  0.4635E+02
 MRCHDU: Convergence failed at  73  side 2    Res =  0.1327E+03
 MRCHDU: Convergence failed at  74  side 2    Res =  0.1079E+03
 MRCHDU: Convergence failed at  75  side 2    Res =  0.8868E+02
 MRCHDU: Convergence failed at  76  side 2    Res =  0.2846E+03
 MRCHDU: Convergence failed at  77  side 2    Res =  0.2132E+03
 MRCHDU: Convergence failed at  78  side 2    Res =  0.1837E+03
 MRCHDU: Convergence failed at  79  side 2    Res =  0.5615E+02
 MRCHDU: Convergence failed at  80  side 2    Res =  0.6335E+02
 MRCHDU: Convergence failed at  81  side 2    Res =  0.9739E+02
 MRCHDU: Convergence failed at  82  side 2    Res =  0.1680E+03
 MRCHDU: Convergence failed at  83  side 2    Res =  0.1774E+04
 MRCHDU: Convergence failed at  84  side 2    Res =  0.1285E+03
 Side 1  free  transition at x/c =  0.6323   56
 Side 2  free  transition at x/c =  0.0815   33

   5   rms: 0.1827E+01   max: -.2333E+02   T at    2  1   RLX: 0.021
       a = -4.000      CL = -1.8518
      Cm =  0.4602     CD =  0.01000   =>   CDf =  0.00568    CDp =  0.00432

 Side 1  free  transition at x/c =  0.6318   56
 Side 2  free  transition at x/c =  0.0818   33

   6   rms: 0.6723E+00   max: 0.2249E+01   D at   90  2   RLX: 0.260
       a = -4.000      CL = -0.7332
      Cm =  0.1111     CD =  0.05445   =>   CDf =  0.00616    CDp =  0.04829

 Side 1  free  transition at x/c =  0.6284   56
 Side 2  free  transition at x/c =  0.0867   34
 idif Ue xi dudx           1  0.12406183      3.90541553E-03   31.766615    
 Uenew xinew           2  2.30317768E-02  7.25030899E-04

   7   rms: 0.4444E+01   max: 0.4347E+02   T at   34  2   RLX: 0.035
       a = -4.000      CL = -0.7086
      Cm =  0.0761     CD =  0.05315   =>   CDf =  0.00572    CDp =  0.04743

 MRCHDU: Convergence failed at  35  side 2    Res =  0.6725E+01
 MRCHDU: Convergence failed at  36  side 2    Res =  0.3976E+02
 MRCHDU: Convergence failed at  37  side 2    Res =  0.2119E+02
 MRCHDU: Convergence failed at  38  side 2    Res =  0.2536E+02
 MRCHDU: Convergence failed at  39  side 2    Res =  0.1233E+02
 MRCHDU: Convergence failed at  40  side 2    Res =  0.1967E+02
 MRCHDU: Convergence failed at  41  side 2    Res =  0.3907E+02
 MRCHDU: Convergence failed at  42  side 2    Res =  0.1177E+03
 MRCHDU: Convergence failed at  43  side 2    Res =  0.2433E+03
 MRCHDU: Convergence failed at  44  side 2    Res =  0.7640E+02
 MRCHDU: Convergence failed at  45  side 2    Res =  0.3892E+02
 MRCHDU: Convergence failed at  46  side 2    Res =  0.2805E+02
 MRCHDU: Convergence failed at  47  side 2    Res =  0.2345E+02
 MRCHDU: Convergence failed at  48  side 2    Res =  0.1942E+02
 MRCHDU: Convergence failed at  49  side 2    Res =  0.2099E+02
 MRCHDU: Convergence failed at  50  side 2    Res =  0.2291E+02
 MRCHDU: Convergence failed at  51  side 2    Res =  0.2478E+02
 MRCHDU: Convergence failed at  52  side 2    Res =  0.2631E+02
 MRCHDU: Convergence failed at  53  side 2    Res =  0.2796E+02
 MRCHDU: Convergence failed at  54  side 2    Res =  0.2963E+02
 MRCHDU: Convergence failed at  55  side 2    Res =  0.3169E+02
 MRCHDU: Convergence failed at  56  side 2    Res =  0.3395E+02
 MRCHDU: Convergence failed at  57  side 2    Res =  0.3635E+02
 MRCHDU: Convergence failed at  58  side 2    Res =  0.3884E+02
 MRCHDU: Convergence failed at  59  side 2    Res =  0.4239E+02
 MRCHDU: Convergence failed at  60  side 2    Res =  0.4706E+02
 MRCHDU: Convergence failed at  61  side 2    Res =  0.5390E+02
 MRCHDU: Convergence failed at  62  side 2    Res =  0.6427E+02
 MRCHDU: Convergence failed at  63  side 2    Res =  0.7912E+02
 MRCHDU: Convergence failed at  64  side 2    Res =  0.9406E+02
 MRCHDU: Convergence failed at  65  side 2    Res =  0.1134E+03
 MRCHDU: Convergence failed at  66  side 2    Res =  0.1294E+03
 MRCHDU: Convergence failed at  67  side 2    Res =  0.1441E+03
 MRCHDU: Convergence failed at  68  side 2    Res =  0.1531E+03
 MRCHDU: Convergence failed at  69  side 2    Res =  0.1590E+03
 MRCHDU: Convergence failed at  70  side 2    Res =  0.1717E+03
 MRCHDU: Convergence failed at  71  side 2    Res =  0.1983E+03
 MRCHDU: Convergence failed at  72  side 2    Res =  0.2474E+03
 MRCHDU: Convergence failed at  73  side 2    Res =  0.3088E+03
 MRCHDU: Convergence failed at  74  side 2    Res =  0.3441E+03
 MRCHDU: Convergence failed at  75  side 2    Res =  0.2348E+03
 MRCHDU: Convergence failed at  76  side 2    Res =  0.1538E+03
 MRCHDU: Convergence failed at  77  side 2    Res =  0.5139E+02
 MRCHDU: Convergence failed at  78  side 2    Res =  0.4042E+02
 MRCHDU: Convergence failed at  79  side 2    Res =  0.6465E+02
 MRCHDU: Convergence failed at  80  side 2    Res =  0.5057E+02
 MRCHDU: Convergence failed at  81  side 2    Res =  0.4330E+02
 MRCHDU: Convergence failed at  82  side 2    Res =  0.4536E+02
 MRCHDU: Convergence failed at  83  side 2    Res =  0.4220E+02
 MRCHDU: Convergence failed at  84  side 2    Res =  0.4241E+02
 MRCHDU: Convergence failed at  85  side 2    Res =  0.4374E+02
 Side 1  free  transition at x/c =  0.6293   55
 Side 2  free  transition at x/c =  0.0807   34

   8   rms: 0.1214E+01   max: 0.3246E+01   D at   87  2   RLX: 0.310
       a = -4.000      CL = -1.1818
      Cm =  0.2959     CD =  0.01873   =>   CDf =  0.00556    CDp =  0.01317

 Side 1  free  transition at x/c =  0.6233   57
 Side 2  free  transition at x/c =  0.0909   33

   9   rms: 0.5667E+00   max: -.4456E+01   T at   33  2   RLX: 0.112
       a = -4.000      CL = -0.6003
      Cm =  0.1099     CD =  0.07817   =>   CDf =  0.00536    CDp =  0.07281

 Side 1  free  transition at x/c =  0.6222   57
 Side 2  free  transition at x/c =  0.0985   34
 idif Ue xi dudx           1  0.12293464      3.70717049E-03   33.161312    
 Uenew xinew           2  2.20664069E-02  6.65426254E-04

  10   rms: 0.2019E+01   max: 0.2847E+02   T at   34  2   RLX: 0.053
       a = -4.000      CL = -0.5665
      Cm =  0.0836     CD =  0.07470   =>   CDf =  0.00527    CDp =  0.06943

 Side 1  free  transition at x/c =  0.6225   56
 Side 2  free  transition at x/c =  0.0895   34

  11   rms: 0.7338E+00   max: -.8510E+01   T at   34  2   RLX: 0.059
       a = -4.000      CL = -0.6030
      Cm =  0.0968     CD =  0.07894   =>   CDf =  0.00533    CDp =  0.07361

 Side 1  free  transition at x/c =  0.6218   56
 Side 2  free  transition at x/c =  0.0942   34

  12   rms: 0.8571E+00   max: -.6834E+01   T at   34  2   RLX: 0.073
       a = -4.000      CL = -0.5069
      Cm =  0.0676     CD =  0.08098   =>   CDf =  0.00532    CDp =  0.07566

 Side 1  free  transition at x/c =  0.6213   56
 Side 2  free  transition at x/c =  0.0958   35

  13   rms: 0.4125E+00   max: -.1520E+01   T at   35  2   RLX: 0.329
       a = -4.000      CL = -0.2982
      Cm = -0.0079     CD =  0.06860   =>   CDf =  0.00526    CDp =  0.06334

 Side 1  free  transition at x/c =  0.6194   56
 Side 2  free  transition at x/c =  0.1047   35

  14   rms: 0.4110E+00   max: -.3092E+01   T at   35  2   RLX: 0.162
       a = -4.000      CL = -0.3596
      Cm =  0.0021     CD =  0.07220   =>   CDf =  0.00509    CDp =  0.06711

 TRCHEK2: N2 convergence failed.
 x:  0.21945  0.23580  0.23580  N:  8.962  9.000  9.119  Nx:   9.301   dN: 0.119E+00
 TRCHEK2: N2 convergence failed.
 x:  0.21945  0.23580  0.23580  N:  8.962  9.000  9.115  Nx:   9.048   dN: 0.115E+00
 TRCHEK2: N2 convergence failed.
 x:  0.21945  0.23580  0.23580  N:  8.962  9.000  9.102  Nx:   8.249   dN: 0.102E+00
 TRCHEK2: N2 convergence failed.
 x:  0.21945  0.22534  0.23580  N:  8.962  9.000  9.053  Nx:  21.314   dN:-0.208E+00
 TRCHEK2: N2 convergence failed.
 x:  0.21945  0.22401  0.23580  N:  8.962  9.000  9.074  Nx:  23.926   dN:-0.557E+00
 TRCHEK2: N2 convergence failed.
 x:  0.21945  0.23580  0.23580  N:  8.962  9.000  9.111  Nx:   8.768   dN: 0.111E+00
 TRCHEK2: N2 convergence failed.
 x:  0.21945  0.22521  0.23580  N:  8.962  9.000  9.054  Nx:  20.939   dN:-0.224E+00
 TRCHEK2: N2 convergence failed.
 x:  0.21945  0.23580  0.23580  N:  8.962  9.000  9.105  Nx:   8.452   dN: 0.105E+00
 TRCHEK2: N2 convergence failed.
 x:  0.21945  0.22533  0.23580  N:  8.962  9.000  9.053  Nx:  20.774   dN:-0.206E+00
 TRCHEK2: N2 convergence failed.
 x:  0.21945  0.23580  0.23580  N:  8.962  9.000  9.099  Nx:   8.110   dN: 0.994E-01
 TRCHEK2: N2 convergence failed.
 x:  0.21945  0.22537  0.23580  N:  8.962  9.000  9.052  Nx:  20.798   dN:-0.197E+00
 TRCHEK2: N2 convergence failed.
 x:  0.21945  0.22513  0.23580  N:  8.962  9.000  9.055  Nx:  20.709   dN:-0.232E+00
 TRCHEK2: N2 convergence failed.
 x:  0.21945  0.23580  0.23580  N:  8.962  9.000  9.107  Nx:   8.585   dN: 0.107E+00
 TRCHEK2: N2 convergence failed.
 x:  0.21945  0.22528  0.23580  N:  8.962  9.000  9.053  Nx:  20.465   dN:-0.209E+00
 TRCHEK2: N2 convergence failed.
 x:  0.21945  0.23580  0.23580  N:  8.962  9.000  9.102  Nx:   8.253   dN: 0.102E+00
 TRCHEK2: N2 convergence failed.
 x:  0.21945  0.22536  0.23580  N:  8.962  9.000  9.052  Nx:  20.393   dN:-0.196E+00
 TRCHEK2: N2 convergence failed.
 x:  0.21945  0.22407  0.23580  N:  8.962  9.000  9.072  Nx:  22.898   dN:-0.469E+00
 TRCHEK2: N2 convergence failed.
 x:  0.21945  0.23580  0.23580  N:  8.962  9.000  9.107  Nx:   8.602   dN: 0.107E+00
 TRCHEK2: N2 convergence failed.
 x:  0.21945  0.22525  0.23580  N:  8.962  9.000  9.054  Nx:  19.999   dN:-0.210E+00
 TRCHEK2: N2 convergence failed.
 x:  0.21945  0.23580  0.23580  N:  8.962  9.000  9.103  Nx:   8.309   dN: 0.103E+00
 TRCHEK2: N2 convergence failed.
 x:  0.21945  0.22535  0.23580  N:  8.962  9.000  9.052  Nx:  19.846   dN:-0.194E+00
 TRCHEK2: N2 convergence failed.
 x:  0.21945  0.22403  0.23580  N:  8.962  9.000  9.073  Nx:  22.424   dN:-0.469E+00
 TRCHEK2: N2 convergence failed.
 x:  0.21945  0.22539  0.23580  N:  8.962  9.000  9.052  Nx:  19.947   dN:-0.188E+00
 TRCHEK2: N2 convergence failed.
 x:  0.21945  0.22517  0.23580  N:  8.962  9.000  9.055  Nx:  19.814   dN:-0.218E+00
 TRCHEK2: N2 convergence failed.
 x:  0.21945  0.23580  0.23580  N:  8.962  9.000  9.105  Nx:   8.437   dN: 0.105E+00
 MRCHDU: Convergence failed at  41  side 2    Res =  0.1010E+02
 MRCHDU: Convergence failed at  42  side 2    Res =  0.2495E+03
 MRCHDU: Convergence failed at  43  side 2    Res =  0.1282E+03
 MRCHDU: Convergence failed at  44  side 2    Res =  0.7121E+02
 MRCHDU: Convergence failed at  45  side 2    Res =  0.5423E+02
 MRCHDU: Convergence failed at  46  side 2    Res =  0.4191E+02
 MRCHDU: Convergence failed at  47  side 2    Res =  0.3760E+02
 MRCHDU: Convergence failed at  48  side 2    Res =  0.2778E+02
 MRCHDU: Convergence failed at  49  side 2    Res =  0.3365E+02
 MRCHDU: Convergence failed at  50  side 2    Res =  0.4155E+02
 MRCHDU: Convergence failed at  51  side 2    Res =  0.4778E+02
 MRCHDU: Convergence failed at  52  side 2    Res =  0.7934E+02
 MRCHDU: Convergence failed at  53  side 2    Res =  0.8018E+02
 MRCHDU: Convergence failed at  54  side 2    Res =  0.1264E+03
 MRCHDU: Convergence failed at  55  side 2    Res =  0.2170E+03
 MRCHDU: Convergence failed at  56  side 2    Res =  0.6064E+03
 MRCHDU: Convergence failed at  57  side 2    Res =  0.7320E+03
 MRCHDU: Convergence failed at  58  side 2    Res =  0.2718E+04
 MRCHDU: Convergence failed at  59  side 2    Res =  0.3312E+03
 MRCHDU: Convergence failed at  60  side 2    Res =  0.1745E+03
 MRCHDU: Convergence failed at  61  side 2    Res =  0.1253E+03
 MRCHDU: Convergence failed at  62  side 2    Res =  0.9374E+02
 MRCHDU: Convergence failed at  63  side 2    Res =  0.6707E+02
 MRCHDU: Convergence failed at  64  side 2    Res =  0.5362E+02
 MRCHDU: Convergence failed at  65  side 2    Res =  0.4009E+02
 MRCHDU: Convergence failed at  66  side 2    Res =  0.3743E+02
 MRCHDU: Convergence failed at  67  side 2    Res =  0.4091E+02
 MRCHDU: Convergence failed at  68  side 2    Res =  0.4334E+02
 MRCHDU: Convergence failed at  69  side 2    Res =  0.4665E+02
 MRCHDU: Convergence failed at  70  side 2    Res =  0.5135E+02
 MRCHDU: Convergence failed at  71  side 2    Res =  0.5286E+02
 MRCHDU: Convergence failed at  72  side 2    Res =  0.6182E+02
 MRCHDU: Convergence failed at  73  side 2    Res =  0.7357E+02
 MRCHDU: Convergence failed at  74  side 2    Res =  0.9210E+02
 MRCHDU: Convergence failed at  75  side 2    Res =  0.1143E+03
 MRCHDU: Convergence failed at  76  side 2    Res =  0.1702E+03
 MRCHDU: Convergence failed at  77  side 2    Res =  0.2786E+03
 MRCHDU: Convergence failed at  78  side 2    Res =  0.4377E+03
 MRCHDU: Convergence failed at  79  side 2    Res =  0.5019E+03
 MRCHDU: Convergence failed at  80  side 2    Res =  0.1515E+03
 MRCHDU: Convergence failed at  81  side 2    Res =  0.1154E+03
 MRCHDU: Convergence failed at  82  side 2    Res =  0.7650E+02
 MRCHDU: Convergence failed at  83  side 2    Res =  0.1313E+03
 MRCHDU: Convergence failed at  84  side 2    Res =  0.6269E+02
 Side 1  free  transition at x/c =  0.6186   56
 Side 2  free  transition at x/c =  0.1850   41

  15   rms: 0.1321E+01   max: 0.1382E+02   T at   41  2   RLX: 0.109
       a = -4.000      CL = -1.2535
      Cm =  0.3306     CD =  0.02482   =>   CDf =  0.00442    CDp =  0.02040

 Side 1  free  transition at x/c =  0.6178   55
 Side 2  free  transition at x/c =  0.1720   40

  16   rms: 0.6867E+00   max: 0.6314E+01   T at   40  2   RLX: 0.238
       a = -4.000      CL = -0.7657
      Cm =  0.1613     CD =  0.09317   =>   CDf =  0.00497    CDp =  0.08820

 Side 1  free  transition at x/c =  0.6244   57
 Side 2  free  transition at x/c =  0.1506   38

  17   rms: 0.7109E+00   max: -.6951E+01   T at    2  1   RLX: 0.072
       a = -4.000      CL = -0.7629
      Cm =  0.1670     CD =  0.10996   =>   CDf =  0.00565    CDp =  0.10431

 Side 1  free  transition at x/c =  0.6237   57
 Side 2  free  transition at x/c =  0.1503   38

  18   rms: 0.5595E+00   max: 0.1600E+01   T at   38  2   RLX: 0.344
       a = -4.000      CL = -0.4040
      Cm =  0.0717     CD =  0.09533   =>   CDf =  0.00564    CDp =  0.08969

 Side 1  free  transition at x/c =  0.6205   57
 Side 2  free  transition at x/c =  0.1454   37

  19   rms: 0.4169E+00   max: 0.2104E+01   T at   37  2   RLX: 0.550
       a = -4.000      CL = -0.0407
      Cm = -0.0155     CD =  0.08889   =>   CDf =  0.00561    CDp =  0.08328

 Side 1  free  transition at x/c =  0.6173   57
 Side 2  free  transition at x/c =  0.1276   35

  20   rms: 0.3074E+00   max: 0.9026E+00   T at   35  2   RLX: 0.604
       a = -4.000      CL =  0.0886
      Cm = -0.0502     CD =  0.08566   =>   CDf =  0.00535    CDp =  0.08031

 Side 1  free  transition at x/c =  0.6139   57
 Side 2  free  transition at x/c =  0.1197   34

  21   rms: 0.2612E+00   max: -.9398E+00   D at  100  2   RLX: 0.532
       a = -4.000      CL =  0.1313
      Cm = -0.0623     CD =  0.09171   =>   CDf =  0.00485    CDp =  0.08686

 Side 1  free  transition at x/c =  0.6113   57
 Side 2  free  transition at x/c =  0.1172   34

  22   rms: 0.2253E+00   max: -.9664E+00   D at   99  2   RLX: 0.517
       a = -4.000      CL =  0.1302
      Cm = -0.0768     CD =  0.08725   =>   CDf =  0.00465    CDp =  0.08260

 Side 1  free  transition at x/c =  0.6099   57
 Side 2  free  transition at x/c =  0.1120   34
 idif Ue xi dudx           1  0.10466064      2.96962261E-03   35.243752    
 Uenew xinew           2  1.56291435E-03  4.43458557E-05

  23   rms: 0.2183E+00   max: -.8981E+00   D at   99  2   RLX: 0.557
       a = -4.000      CL =  0.0915
      Cm = -0.0836     CD =  0.08061   =>   CDf =  0.00451    CDp =  0.07610

 Side 1  free  transition at x/c =  0.6096   56
 Side 2  free  transition at x/c =  0.1099   35

  24   rms: 0.3465E+00   max: 0.3960E+01   T at    2  2   RLX: 0.287
       a = -4.000      CL =  0.0676
      Cm = -0.0934     CD =  0.08277   =>   CDf =  0.00428    CDp =  0.07849

 Side 1  free  transition at x/c =  0.6105   56
 Side 2  free  transition at x/c =  0.1086   35
 idif Ue xi dudx           1  0.17730461      5.47182560E-03   32.403191    
 Uenew xinew           2  7.87423924E-02  2.43008137E-03

  25   rms: 0.6851E+00   max: 0.2411E+01   T at   35  2   RLX: 0.316
       a = -4.000      CL = -0.0779
      Cm = -0.1033     CD =  0.08396   =>   CDf =  0.00422    CDp =  0.07974

 MRCHDU: Convergence failed at  81  side 2    Res =  0.2019E+01
 MRCHDU: Convergence failed at  82  side 2    Res =  0.1775E+01
 MRCHDU: Convergence failed at  83  side 2    Res =  0.1593E+01
 MRCHDU: Convergence failed at  84  side 2    Res =  0.1374E+01
 Side 1  free  transition at x/c =  0.6245   56
 Side 2  free  transition at x/c =  0.1055   35

  26   rms: 0.1584E+00   max: 0.1512E+01   T at   56  1   RLX: 0.813
       a = -4.000      CL = -0.1108
      Cm = -0.0679     CD =  0.07275   =>   CDf =  0.00415    CDp =  0.06860

 Side 1  free  transition at x/c =  0.6143   55
 Side 2  free  transition at x/c =  0.1029   35

  27   rms: 0.1890E+00   max: 0.9875E+00   D at   56  1
       a = -4.000      CL = -0.0805
      Cm = -0.0781     CD =  0.08320   =>   CDf =  0.00453    CDp =  0.07867

 Side 1  free  transition at x/c =  0.6500   58
 Side 2  free  transition at x/c =  0.1011   35

  28   rms: 0.1160E+00   max: 0.8143E+00   T at   58  1   RLX: 0.749
       a = -4.000      CL = -0.0268
      Cm = -0.0830     CD =  0.07732   =>   CDf =  0.00441    CDp =  0.07291

 Side 1  free  transition at x/c =  0.6417   57
 Side 2  free  transition at x/c =  0.1050   35

  29   rms: 0.5149E+00   max: 0.9168E+01   T at   57  1   RLX: 0.164
       a = -4.000      CL = -0.0492
      Cm = -0.0842     CD =  0.07668   =>   CDf =  0.00434    CDp =  0.07233

 Side 1  free  transition at x/c =  0.6370   57
 Side 2  free  transition at x/c =  0.1052   35

  30   rms: 0.1839E+00   max: 0.8131E+00   D at   58  1   RLX: 0.626
       a = -4.000      CL = -0.0244
      Cm = -0.0899     CD =  0.07381   =>   CDf =  0.00464    CDp =  0.06917

 Side 1  free  transition at x/c =  0.6315   56
 Side 2  free  transition at x/c =  0.1041   35

  31   rms: 0.2833E+00   max: 0.9855E+00   D at   36  2   RLX: 0.659
       a = -4.000      CL =  0.0107
      Cm = -0.0916     CD =  0.07258   =>   CDf =  0.00538    CDp =  0.06719

 Side 1  free  transition at x/c =  0.6259   57
 Side 2  free  transition at x/c =  0.1136   35
 idif Ue xi dudx           1  0.13331155      4.14645672E-03   32.150715    
 Uenew xinew           2  3.55172977E-02  1.10471249E-03

  32   rms: 0.4906E+00   max: 0.2113E+01   D at   42  2   RLX: 0.389
       a = -4.000      CL = -0.0160
      Cm = -0.0970     CD =  0.06088   =>   CDf =  0.00723    CDp =  0.05365

 Side 1  free  transition at x/c =  0.6272   56
 Side 2  free  transition at x/c =  0.1085   36

  33   rms: 0.1622E+00   max: 0.6694E+00   D at   42  2   RLX: 0.842
       a = -4.000      CL = -0.0592
      Cm = -0.0934     CD =  0.07847   =>   CDf =  0.00531    CDp =  0.07316

 TRCHEK2: N2 convergence failed.
 x:  0.77456  0.78914  0.79533  N:  8.929  9.000  9.023  Nx:   7.572   dN:-0.314E+00
 TRCHEK2: N2 convergence failed.
 x:  0.77456  0.78987  0.79533  N:  8.929  9.000  9.019  Nx:   7.096   dN:-0.979E-01
 TRCHEK2: N2 convergence failed.
 x:  0.77456  0.79533  0.79533  N:  8.929  9.000  9.016  Nx:   4.157   dN: 0.160E-01
 TRCHEK2: N2 convergence failed.
 x:  0.77456  0.79529  0.79533  N:  8.929  9.000  9.004  Nx:   4.064   dN: 0.140E-01
 TRCHEK2: N2 convergence failed.
 x:  0.77456  0.79440  0.79533  N:  8.929  9.000  9.007  Nx:   4.091   dN: 0.113E-01
 TRCHEK2: N2 convergence failed.
 x:  0.77456  0.79262  0.79533  N:  8.929  9.000  9.007  Nx:   5.100   dN:-0.362E-02
 TRCHEK2: N2 convergence failed.
 x:  0.77456  0.79253  0.79533  N:  8.929  9.000  9.008  Nx:   5.101   dN:-0.278E-02
 TRCHEK2: N2 convergence failed.
 x:  0.77456  0.79440  0.79533  N:  8.929  9.000  9.007  Nx:   4.146   dN: 0.125E-01
 TRCHEK2: N2 convergence failed.
 x:  0.77456  0.79252  0.79533  N:  8.929  9.000  9.008  Nx:   6.188   dN:-0.318E-02
 TRCHEK2: N2 convergence failed.
 x:  0.77456  0.79270  0.79533  N:  8.929  9.000  9.007  Nx:   5.544   dN:-0.285E-02
 TRCHEK2: N2 convergence failed.
 x:  0.77456  0.79254  0.79533  N:  8.929  9.000  9.008  Nx:   6.303   dN:-0.322E-02
 TRCHEK2: N2 convergence failed.
 x:  0.77456  0.79353  0.79533  N:  8.929  9.000  9.002  Nx:   4.203   dN:-0.125E-01
 TRCHEK2: N2 convergence failed.
 x:  0.77456  0.79258  0.79533  N:  8.929  9.000  9.008  Nx:   6.446   dN:-0.326E-02
 TRCHEK2: N2 convergence failed.
 x:  0.77456  0.79354  0.79533  N:  8.929  9.000  9.002  Nx:   4.221   dN:-0.781E-02
 TRCHEK2: N2 convergence failed.
 x:  0.77456  0.79262  0.79533  N:  8.929  9.000  9.007  Nx:   6.602   dN:-0.330E-02
 TRCHEK2: N2 convergence failed.
 x:  0.77456  0.79434  0.79533  N:  8.929  9.000  9.007  Nx:   4.162   dN: 0.126E-01
 TRCHEK2: N2 convergence failed.
 x:  0.77456  0.79342  0.79533  N:  8.929  9.000  9.005  Nx:   4.339   dN:-0.257E-02
 TRCHEK2: N2 convergence failed.
 x:  0.77456  0.79373  0.79533  N:  8.929  9.000  9.005  Nx:   4.215   dN:-0.126E-02
 TRCHEK2: N2 convergence failed.
 x:  0.77456  0.79298  0.79533  N:  8.929  9.000  9.006  Nx:   7.695   dN:-0.315E-02
 TRCHEK2: N2 convergence failed.
 x:  0.77456  0.79301  0.79533  N:  8.929  9.000  9.006  Nx:   7.329   dN:-0.337E-02
 TRCHEK2: N2 convergence failed.
 x:  0.77456  0.79330  0.79533  N:  8.929  9.000  9.006  Nx:   6.088   dN:-0.180E-02
 TRCHEK2: N2 convergence failed.
 x:  0.77456  0.79499  0.79533  N:  8.929  9.000  9.005  Nx:   4.199   dN: 0.159E-01
 TRCHEK2: N2 convergence failed.
 x:  0.77456  0.79376  0.79533  N:  8.929  9.000  9.004  Nx:   4.407   dN:-0.196E-02
 TRCHEK2: N2 convergence failed.
 x:  0.77456  0.79335  0.79533  N:  8.929  9.000  9.005  Nx:   7.339   dN:-0.216E-02
 MRCHDU: Convergence failed at  63  side 1    Res =  0.1316E+03
 MRCHDU: Convergence failed at  64  side 1    Res =  0.3412E+02
 MRCHDU: Convergence failed at  65  side 1    Res =  0.3920E+02
 MRCHDU: Convergence failed at  66  side 1    Res =  0.6045E+04
 MRCHDU: Convergence failed at  67  side 1    Res =  0.7106E+02
 MRCHDU: Convergence failed at  68  side 1    Res =  0.6159E+02
 MRCHDU: Convergence failed at  69  side 1    Res =  0.2088E+02
 MRCHDU: Convergence failed at  70  side 1    Res =  0.5845E+02
 MRCHDU: Convergence failed at  71  side 1    Res =  0.1423E+03
 MRCHDU: Convergence failed at  72  side 1    Res =  0.2276E+03
 MRCHDU: Convergence failed at  73  side 1    Res =  0.1062E+03
 MRCHDU: Convergence failed at  74  side 1    Res =  0.1586E+03
 MRCHDU: Convergence failed at  75  side 1    Res =  0.8012E+02
 MRCHDU: Convergence failed at  76  side 1    Res =  0.6503E+02
 MRCHDU: Convergence failed at  77  side 1    Res =  0.9816E+02
 MRCHDU: Convergence failed at  78  side 1    Res =  0.4904E+03
 Side 1  free  transition at x/c =  0.7474   63
 Side 2  free  transition at x/c =  0.1065   36
 idif Ue xi dudx           1  0.10642789      3.50105762E-03   30.398783    
 Uenew xinew           2  9.74806864E-03  3.20672989E-04

  34   rms: 0.1956E+01   max: 0.1945E+02   C at   63  1   RLX: 0.077
       a = -4.000      CL = -0.0181
      Cm = -0.1615     CD =  0.06958   =>   CDf =  0.00416    CDp =  0.06542

 Side 1  free  transition at x/c =  0.6977   59
 Side 2  free  transition at x/c =  0.1062   36

  35   rms: 0.3572E+02   max: -.3869E+03   T at   60  1   RLX: 0.001
       a = -4.000      CL = -0.0627
      Cm = -0.1431     CD =  0.06326   =>   CDf =  0.00510    CDp =  0.05816

 Side 1  free  transition at x/c =  0.6783   58
 Side 2  free  transition at x/c =  0.1052   36

  36   rms: 0.7887E+00   max: 0.5379E+01   T at   36  2   RLX: 0.141
       a = -4.000      CL = -0.0837
      Cm = -0.1316     CD =  0.07152   =>   CDf =  0.00497    CDp =  0.06655

 Side 1  free  transition at x/c =  0.6658   58
 Side 2  free  transition at x/c =  0.0964   36

  37   rms: 0.2670E+00   max: 0.2717E+01   T at   60  1   RLX: 0.552
       a = -4.000      CL = -0.2038
      Cm = -0.0817     CD =  0.09643   =>   CDf =  0.00378    CDp =  0.09265

 Side 1  free  transition at x/c =  0.6616   57
 Side 2  free  transition at x/c =  0.0940   35

  38   rms: 0.2172E+01   max: 0.7531E+01   T at   36  2   RLX: 0.080
       a = -4.000      CL = -0.2057
      Cm = -0.1032     CD =  0.10710   =>   CDf =  0.00384    CDp =  0.10326

 Side 1  free  transition at x/c =  0.6584   57
 Side 2  free  transition at x/c =  0.0922   35

  39   rms: 0.4922E+00   max: 0.2187E+01   D at   43  2   RLX: 0.686
       a = -4.000      CL = -0.2431
      Cm = -0.0586     CD =  0.10821   =>   CDf =  0.00456    CDp =  0.10365

 Side 1  free  transition at x/c =  0.6427   56
 Side 2  free  transition at x/c =  0.0879   35

  40   rms: 0.2074E+00   max: 0.1171E+01   D at   57  2   RLX: 0.845
       a = -4.000      CL = -0.2111
      Cm = -0.0682     CD =  0.09160   =>   CDf =  0.00489    CDp =  0.08671

 MRCHDU: Convergence failed at  55  side 2    Res =  0.1939E+02
 MRCHDU: Convergence failed at  56  side 2    Res =  0.3325E+01
 MRCHDU: Convergence failed at  57  side 2    Res =  0.2473E+01
 MRCHDU: Convergence failed at  58  side 2    Res =  0.2433E+01
 MRCHDU: Convergence failed at  59  side 2    Res =  0.2682E+01
 MRCHDU: Convergence failed at  60  side 2    Res =  0.2420E+01
 MRCHDU: Convergence failed at  61  side 2    Res =  0.2227E+01
 MRCHDU: Convergence failed at  62  side 2    Res =  0.1862E+01
 MRCHDU: Convergence failed at  63  side 2    Res =  0.1696E+01
 MRCHDU: Convergence failed at  64  side 2    Res =  0.1413E+01
 MRCHDU: Convergence failed at  65  side 2    Res =  0.1384E+01
 MRCHDU: Convergence failed at  66  side 2    Res =  0.1393E+01
 MRCHDU: Convergence failed at  67  side 2    Res =  0.1410E+01
 MRCHDU: Convergence failed at  68  side 2    Res =  0.1402E+01
 MRCHDU: Convergence failed at  69  side 2    Res =  0.1578E+01
 MRCHDU: Convergence failed at  70  side 2    Res =  0.1613E+01
 MRCHDU: Convergence failed at  71  side 2    Res =  0.1631E+01
 MRCHDU: Convergence failed at  72  side 2    Res =  0.1808E+01
 MRCHDU: Convergence failed at  73  side 2    Res =  0.2154E+01
 MRCHDU: Convergence failed at  74  side 2    Res =  0.2393E+01
 MRCHDU: Convergence failed at  75  side 2    Res =  0.2336E+01
 MRCHDU: Convergence failed at  76  side 2    Res =  0.2729E+01
 MRCHDU: Convergence failed at  77  side 2    Res =  0.2718E+01
 MRCHDU: Convergence failed at  78  side 2    Res =  0.3160E+01
 MRCHDU: Convergence failed at  79  side 2    Res =  0.3451E+01
 MRCHDU: Convergence failed at  80  side 2    Res =  0.4155E+01
 MRCHDU: Convergence failed at  81  side 2    Res =  0.4433E+01
 MRCHDU: Convergence failed at  82  side 2    Res =  0.4413E+01
 MRCHDU: Convergence failed at  83  side 2    Res =  0.4471E+01
 MRCHDU: Convergence failed at  84  side 2    Res =  0.4663E+01
 MRCHDU: Convergence failed at  85  side 2    Res =  0.5067E+01
 Side 1  free  transition at x/c =  0.6437   56
 Side 2  free  transition at x/c =  0.0905   35

  41   rms: 0.2316E+00   max: -.2441E+01   T at   35  2   RLX: 0.205
       a = -4.000      CL = -0.2919
      Cm = -0.0089     CD =  0.08210   =>   CDf =  0.00351    CDp =  0.07858

 Side 1  free  transition at x/c =  0.6463   57
 Side 2  free  transition at x/c =  0.0915   34

  42   rms: 0.2006E+00   max: -.1377E+01   T at   57  1   RLX: 0.363
       a = -4.000      CL = -0.2318
      Cm = -0.0371     CD =  0.07481   =>   CDf =  0.00507    CDp =  0.06974

 Side 1  free  transition at x/c =  0.6434   57
 Side 2  free  transition at x/c =  0.0927   34

  43   rms: 0.1255E+00   max: -.5313E+00   T at   34  2   RLX: 0.941
       a = -4.000      CL = -0.1103
      Cm = -0.0819     CD =  0.08501   =>   CDf =  0.00461    CDp =  0.08040

 Side 1  free  transition at x/c =  0.6559   58
 Side 2  free  transition at x/c =  0.0934   34

  44   rms: 0.1097E+00   max: 0.5298E+00   D at   58  1
       a = -4.000      CL = -0.0963
      Cm = -0.0886     CD =  0.08618   =>   CDf =  0.00470    CDp =  0.08148

 Side 1  free  transition at x/c =  0.6496   57
 Side 2  free  transition at x/c =  0.1106   36
 idif Ue xi dudx           1  0.14590076      4.93514538E-03   29.563620    
 Uenew xinew           2  5.18770777E-02  1.75476074E-03

  45   rms: 0.6214E+00   max: 0.2376E+01   D at   36  2   RLX: 0.631
       a = -4.000      CL = -0.2015
      Cm = -0.0800     CD =  0.07492   =>   CDf =  0.00683    CDp =  0.06809

 MRCHDU: Convergence failed at  43  side 2    Res =  0.1167E+01
 MRCHDU: Convergence failed at  44  side 2    Res =  0.3208E+01
 MRCHDU: Convergence failed at  45  side 2    Res =  0.5637E+02
 MRCHDU: Convergence failed at  46  side 2    Res =  0.4318E+01
 MRCHDU: Convergence failed at  47  side 2    Res =  0.2711E+01
 MRCHDU: Convergence failed at  48  side 2    Res =  0.2203E+01
 MRCHDU: Convergence failed at  49  side 2    Res =  0.2142E+01
 MRCHDU: Convergence failed at  50  side 2    Res =  0.2178E+01
 MRCHDU: Convergence failed at  51  side 2    Res =  0.2208E+01
 MRCHDU: Convergence failed at  52  side 2    Res =  0.2546E+01
 MRCHDU: Convergence failed at  53  side 2    Res =  0.2864E+01
 MRCHDU: Convergence failed at  54  side 2    Res =  0.3411E+01
 MRCHDU: Convergence failed at  55  side 2    Res =  0.3859E+01
 MRCHDU: Convergence failed at  56  side 2    Res =  0.4315E+01
 MRCHDU: Convergence failed at  57  side 2    Res =  0.4872E+01
 MRCHDU: Convergence failed at  58  side 2    Res =  0.5571E+01
 MRCHDU: Convergence failed at  59  side 2    Res =  0.6898E+01
 MRCHDU: Convergence failed at  60  side 2    Res =  0.8949E+01
 MRCHDU: Convergence failed at  61  side 2    Res =  0.1180E+02
 MRCHDU: Convergence failed at  62  side 2    Res =  0.1612E+02
 MRCHDU: Convergence failed at  63  side 2    Res =  0.2608E+02
 MRCHDU: Convergence failed at  64  side 2    Res =  0.5626E+02
 MRCHDU: Convergence failed at  65  side 2    Res =  0.4208E+03
 MRCHDU: Convergence failed at  66  side 2    Res =  0.1577E+03
 MRCHDU: Convergence failed at  67  side 2    Res =  0.7800E+02
 MRCHDU: Convergence failed at  68  side 2    Res =  0.4346E+02
 MRCHDU: Convergence failed at  69  side 2    Res =  0.2814E+02
 MRCHDU: Convergence failed at  70  side 2    Res =  0.2172E+02
 MRCHDU: Convergence failed at  71  side 2    Res =  0.1935E+02
 MRCHDU: Convergence failed at  72  side 2    Res =  0.1825E+02
 MRCHDU: Convergence failed at  73  side 2    Res =  0.1743E+02
 MRCHDU: Convergence failed at  74  side 2    Res =  0.1728E+02
 MRCHDU: Convergence failed at  75  side 2    Res =  0.1803E+02
 MRCHDU: Convergence failed at  76  side 2    Res =  0.1918E+02
 MRCHDU: Convergence failed at  77  side 2    Res =  0.1983E+02
 MRCHDU: Convergence failed at  78  side 2    Res =  0.1958E+02
 MRCHDU: Convergence failed at  79  side 2    Res =  0.1893E+02
 MRCHDU: Convergence failed at  80  side 2    Res =  0.1837E+02
 MRCHDU: Convergence failed at  81  side 2    Res =  0.1838E+02
 MRCHDU: Convergence failed at  82  side 2    Res =  0.1923E+02
 MRCHDU: Convergence failed at  83  side 2    Res =  0.2098E+02
 MRCHDU: Convergence failed at  84  side 2    Res =  0.2417E+02
 MRCHDU: Convergence failed at  85  side 2    Res =  0.1443E+03
 Side 1  free  transition at x/c =  0.6384   56
 Side 2  free  transition at x/c =  0.0975   36

  46   rms: 0.3740E+00   max: 0.5373E+00   D at   93  2   RLX: 0.754
       a = -4.000      CL = -0.1895
      Cm = -0.0430     CD =  0.07016   =>   CDf =  0.00359    CDp =  0.06657

 Side 1  free  transition at x/c =  0.6435   57
 Side 2  free  transition at x/c =  0.1006   35
 idif Ue xi dudx           1  0.10681008      3.59618664E-03   29.700928    
 Uenew xinew           2  1.23497052E-02  4.15802002E-04

  47   rms: 0.2156E+00   max: 0.1013E+01   T at   35  2
       a = -4.000      CL = -0.1951
      Cm = -0.0753     CD =  0.08167   =>   CDf =  0.00529    CDp =  0.07638

 MRCHDU: Convergence failed at  62  side 2    Res =  0.2279E+01
 MRCHDU: Convergence failed at  63  side 2    Res =  0.9835E+00
 MRCHDU: Convergence failed at  64  side 2    Res =  0.9469E+00
 MRCHDU: Convergence failed at  65  side 2    Res =  0.1312E+01
 MRCHDU: Convergence failed at  66  side 2    Res =  0.1740E+01
 MRCHDU: Convergence failed at  67  side 2    Res =  0.2353E+01
 MRCHDU: Convergence failed at  68  side 2    Res =  0.3308E+01
 MRCHDU: Convergence failed at  69  side 2    Res =  0.5026E+01
 MRCHDU: Convergence failed at  70  side 2    Res =  0.9231E+01
 MRCHDU: Convergence failed at  71  side 2    Res =  0.5342E+02
 MRCHDU: Convergence failed at  72  side 2    Res =  0.1271E+02
 MRCHDU: Convergence failed at  73  side 2    Res =  0.7049E+01
 MRCHDU: Convergence failed at  74  side 2    Res =  0.5149E+01
 MRCHDU: Convergence failed at  75  side 2    Res =  0.4211E+01
 MRCHDU: Convergence failed at  76  side 2    Res =  0.3758E+01
 MRCHDU: Convergence failed at  77  side 2    Res =  0.3399E+01
 MRCHDU: Convergence failed at  78  side 2    Res =  0.3119E+01
 MRCHDU: Convergence failed at  79  side 2    Res =  0.2847E+01
 MRCHDU: Convergence failed at  80  side 2    Res =  0.2651E+01
 MRCHDU: Convergence failed at  81  side 2    Res =  0.2535E+01
 MRCHDU: Convergence failed at  82  side 2    Res =  0.2483E+01
 MRCHDU: Convergence failed at  83  side 2    Res =  0.2474E+01
 MRCHDU: Convergence failed at  84  side 2    Res =  0.2522E+01
 MRCHDU: Convergence failed at  85  side 2    Res =  0.3154E+01
 Side 1  free  transition at x/c =  0.6495   56
 Side 2  free  transition at x/c =  0.0907   35

  48   rms: 0.1415E+00   max: -.6809E+00   T at   57  1   RLX: 0.734
       a = -4.000      CL = -0.2726
      Cm = -0.0479     CD =  0.08867   =>   CDf =  0.00361    CDp =  0.08506

 Side 1  free  transition at x/c =  0.6338   55
 Side 2  free  transition at x/c =  0.0893   35

  49   rms: 0.2533E+00   max: 0.1806E+01   T at   56  1   RLX: 0.297
       a = -4.000      CL = -0.1960
      Cm = -0.0641     CD =  0.09497   =>   CDf =  0.00386    CDp =  0.09111

 Side 1  free  transition at x/c =  0.6328   56
 Side 2  free  transition at x/c =  0.0911   34

  50   rms: 0.2053E+00   max: -.1257E+01   D at    2  1   RLX: 0.398
       a = -4.000      CL = -0.1175
      Cm = -0.0761     CD =  0.09041   =>   CDf =  0.00386    CDp =  0.08655

 Side 1  free  transition at x/c =  0.6337   56
 Side 2  free  transition at x/c =  0.0913   34

  51   rms: 0.3360E+00   max: -.9304E+00   T at   34  2   RLX: 0.537
       a = -4.000      CL =  0.1107
      Cm = -0.1096     CD =  0.07590   =>   CDf =  0.00402    CDp =  0.07188

 Side 1  free  transition at x/c =  0.6282   57
 Side 2  free  transition at x/c =  0.0919   33

  52   rms: 0.1458E+00   max: 0.7543E+00   D at   69  1   RLX: 0.707
       a = -4.000      CL =  0.0091
      Cm = -0.0932     CD =  0.07861   =>   CDf =  0.00473    CDp =  0.07388

 Side 1  free  transition at x/c =  0.6296   57
 Side 2  free  transition at x/c =  0.1151   35
 idif Ue xi dudx           1  0.14241891      4.41336632E-03   32.269905    
 Uenew xinew           2  4.42621149E-02  1.37162209E-03

  53   rms: 0.4965E+00   max: 0.2478E+01   D at   35  2   RLX: 0.605
       a = -4.000      CL = -0.0385
      Cm = -0.0946     CD =  0.06627   =>   CDf =  0.00733    CDp =  0.05895

 MRCHDU: Convergence failed at  75  side 1    Res =  0.5771E-01
 MRCHDU: Convergence failed at  44  side 2    Res =  0.2038E+01
 MRCHDU: Convergence failed at  45  side 2    Res =  0.5087E+01
 MRCHDU: Convergence failed at  46  side 2    Res =  0.6120E+02
 MRCHDU: Convergence failed at  47  side 2    Res =  0.7187E+01
 MRCHDU: Convergence failed at  48  side 2    Res =  0.4221E+01
 MRCHDU: Convergence failed at  49  side 2    Res =  0.3363E+01
 MRCHDU: Convergence failed at  50  side 2    Res =  0.2932E+01
 MRCHDU: Convergence failed at  51  side 2    Res =  0.2650E+01
 MRCHDU: Convergence failed at  52  side 2    Res =  0.2488E+01
 MRCHDU: Convergence failed at  53  side 2    Res =  0.2408E+01
 MRCHDU: Convergence failed at  54  side 2    Res =  0.2588E+01
 MRCHDU: Convergence failed at  55  side 2    Res =  0.2722E+01
 MRCHDU: Convergence failed at  56  side 2    Res =  0.2781E+01
 MRCHDU: Convergence failed at  57  side 2    Res =  0.2663E+01
 MRCHDU: Convergence failed at  58  side 2    Res =  0.2492E+01
 MRCHDU: Convergence failed at  59  side 2    Res =  0.2398E+01
 MRCHDU: Convergence failed at  60  side 2    Res =  0.2379E+01
 MRCHDU: Convergence failed at  61  side 2    Res =  0.2439E+01
 MRCHDU: Convergence failed at  62  side 2    Res =  0.2476E+01
 MRCHDU: Convergence failed at  63  side 2    Res =  0.2404E+01
 MRCHDU: Convergence failed at  64  side 2    Res =  0.2546E+01
 MRCHDU: Convergence failed at  65  side 2    Res =  0.2678E+01
 MRCHDU: Convergence failed at  66  side 2    Res =  0.2803E+01
 MRCHDU: Convergence failed at  67  side 2    Res =  0.2949E+01
 MRCHDU: Convergence failed at  68  side 2    Res =  0.3114E+01
 MRCHDU: Convergence failed at  69  side 2    Res =  0.3292E+01
 MRCHDU: Convergence failed at  70  side 2    Res =  0.3451E+01
 MRCHDU: Convergence failed at  71  side 2    Res =  0.3593E+01
 MRCHDU: Convergence failed at  72  side 2    Res =  0.3732E+01
 MRCHDU: Convergence failed at  73  side 2    Res =  0.3853E+01
 MRCHDU: Convergence failed at  74  side 2    Res =  0.3931E+01
 MRCHDU: Convergence failed at  75  side 2    Res =  0.3986E+01
 MRCHDU: Convergence failed at  76  side 2    Res =  0.3570E+01
 MRCHDU: Convergence failed at  77  side 2    Res =  0.3626E+01
 MRCHDU: Convergence failed at  78  side 2    Res =  0.3686E+01
 MRCHDU: Convergence failed at  79  side 2    Res =  0.3736E+01
 MRCHDU: Convergence failed at  80  side 2    Res =  0.3758E+01
 MRCHDU: Convergence failed at  81  side 2    Res =  0.3739E+01
 MRCHDU: Convergence failed at  82  side 2    Res =  0.4299E+01
 MRCHDU: Convergence failed at  83  side 2    Res =  0.4602E+01
 MRCHDU: Convergence failed at  84  side 2    Res =  0.5096E+01
 Side 1 forced transition at x/c =  1.0000   78
 Side 2  free  transition at x/c =  0.1058   35

  54   rms: 0.5220E+01   max: 0.3212E+02   T at   36  2   RLX: 0.020
       a = -4.000      CL = -0.2390
      Cm = -0.0054     CD =  0.03888   =>   CDf =  0.00418    CDp =  0.03470

 TRCHEK2: N2 convergence failed.
 x:  0.99418  1.00925  1.00954  N:  8.943  9.000  9.004  Nx:   4.440   dN: 0.106E-01
 TRCHEK2: N2 convergence failed.
 x:  0.99418  1.00926  1.00954  N:  8.943  9.000  9.004  Nx:   4.430   dN: 0.105E-01
 TRCHEK2: N2 convergence failed.
 x:  0.99418  1.00924  1.00954  N:  8.943  9.000  9.004  Nx:   4.429   dN: 0.104E-01
 TRCHEK2: N2 convergence failed.
 x:  0.99418  1.00923  1.00954  N:  8.943  9.000  9.004  Nx:   4.428   dN: 0.104E-01
 TRCHEK2: N2 convergence failed.
 x:  0.99418  1.00927  1.00954  N:  8.943  9.000  9.004  Nx:   4.427   dN: 0.105E-01
 TRCHEK2: N2 convergence failed.
 x:  0.99418  1.00925  1.00954  N:  8.943  9.000  9.004  Nx:   4.427   dN: 0.104E-01
 TRCHEK2: N2 convergence failed.
 x:  0.99418  1.00925  1.00954  N:  8.943  9.000  9.004  Nx:   4.427   dN: 0.104E-01
 TRCHEK2: N2 convergence failed.
 x:  0.99418  1.00926  1.00954  N:  8.943  9.000  9.004  Nx:   4.426   dN: 0.104E-01
 TRCHEK2: N2 convergence failed.
 x:  0.99418  1.00927  1.00954  N:  8.943  9.000  9.004  Nx:   4.427   dN: 0.105E-01
 TRCHEK2: N2 convergence failed.
 x:  0.99418  1.00924  1.00954  N:  8.943  9.000  9.004  Nx:   4.427   dN: 0.104E-01
 TRCHEK2: N2 convergence failed.
 x:  0.99418  1.00924  1.00954  N:  8.943  9.000  9.004  Nx:   4.426   dN: 0.104E-01
 TRCHEK2: N2 convergence failed.
 x:  0.99418  1.00927  1.00954  N:  8.943  9.000  9.004  Nx:   4.426   dN: 0.105E-01
 TRCHEK2: N2 convergence failed.
 x:  0.99418  1.00925  1.00954  N:  8.943  9.000  9.004  Nx:   4.427   dN: 0.104E-01
 TRCHEK2: N2 convergence failed.
 x:  0.99418  1.00926  1.00954  N:  8.943  9.000  9.004  Nx:   4.426   dN: 0.104E-01
 TRCHEK2: N2 convergence failed.
 x:  0.99418  1.00927  1.00954  N:  8.943  9.000  9.004  Nx:   4.427   dN: 0.105E-01
 TRCHEK2: N2 convergence failed.
 x:  0.99418  1.00924  1.00954  N:  8.943  9.000  9.004  Nx:   4.427   dN: 0.104E-01
 TRCHEK2: N2 convergence failed.
 x:  0.99418  1.00925  1.00954  N:  8.943  9.000  9.004  Nx:   4.426   dN: 0.104E-01
 TRCHEK2: N2 convergence failed.
 x:  0.99418  1.00925  1.00954  N:  8.943  9.000  9.004  Nx:   4.426   dN: 0.104E-01
 TRCHEK2: N2 convergence failed.
 x:  0.99418  1.00924  1.00954  N:  8.943  9.000  9.004  Nx:   4.426   dN: 0.104E-01
 TRCHEK2: N2 convergence failed.
 x:  0.99418  1.00926  1.00954  N:  8.943  9.000  9.004  Nx:   4.426   dN: 0.104E-01
 TRCHEK2: N2 convergence failed.
 x:  0.99418  1.00926  1.00954  N:  8.943  9.000  9.004  Nx:   4.426   dN: 0.105E-01
 TRCHEK2: N2 convergence failed.
 x:  0.99418  1.00927  1.00954  N:  8.943  9.000  9.004  Nx:   4.427   dN: 0.105E-01
 TRCHEK2: N2 convergence failed.
 x:  0.99418  1.00923  1.00954  N:  8.943  9.000  9.004  Nx:   4.427   dN: 0.104E-01
 TRCHEK2: N2 convergence failed.
 x:  0.99418  1.00927  1.00954  N:  8.943  9.000  9.004  Nx:   4.426   dN: 0.105E-01
 TRCHEK2: N2 convergence failed.
 x:  0.99418  1.00926  1.00954  N:  8.943  9.000  9.004  Nx:   4.427   dN: 0.105E-01
 MRCHDU: Convergence failed at  75  side 1    Res =  0.3152E-01
 TRCHEK2: N2 convergence failed.
 x:  0.99418  1.00925  1.00954  N:  8.943  9.000  9.004  Nx:   4.427   dN: 0.104E-01
 TRCHEK2: N2 convergence failed.
 x:  0.99418  1.00849  1.00954  N:  8.943  9.000  9.001  Nx:  18.323   dN:-0.303E-02
 Side 1  free  transition at x/c =  0.9639   75
 Side 2  free  transition at x/c =  0.1033   35

  55   rms: 0.2315E+01   max: -.2968E+02   C at   78  1   RLX: 0.017
       a = -4.000      CL = -0.2166
      Cm = -0.0144     CD =  0.01727   =>   CDf =  0.00956    CDp =  0.00770

 MRCHDU: Convergence failed at  76  side 1    Res =  0.8095E-01
 Side 1  free  transition at x/c =  0.9475   75
 Side 2  free  transition at x/c =  0.1034   34

  56   rms: 0.6939E+00   max: 0.6840E+01   T at   77  1   RLX: 0.219
       a = -4.000      CL = -0.0229
      Cm = -0.0724     CD =  0.02071   =>   CDf =  0.00961    CDp =  0.01109

 MRCHDU: Convergence failed at  76  side 1    Res =  0.4835E-01
 MRCHDU: Convergence failed at  77  side 1    Res =  0.3236E+01
 Side 1  free  transition at x/c =  0.7630   65
 Side 2  free  transition at x/c =  0.1044   34

  57   rms: 0.3819E+01   max: -.2003E+02   T at   65  1   RLX: 0.025
       a = -4.000      CL =  0.1098
      Cm = -0.1057     CD =  0.03928   =>   CDf =  0.00873    CDp =  0.03055

 MRCHDU: Convergence failed at  77  side 1    Res =  0.1358E+00
 MRCHDU: Convergence failed at  78  side 1    Res =  0.9229E+00
 MRCHDU: Convergence failed at  79  side 1    Res =  0.3348E+03
 MRCHDU: Convergence failed at  80  side 1    Res =  0.5286E+02
 Side 1  free  transition at x/c =  0.7605   66
 Side 2  free  transition at x/c =  0.1045   33
 idif Ue xi dudx           1  0.14293024      4.16862965E-03   34.287106    
 Uenew xinew           2  4.26309705E-02  1.24335289E-03

  58   rms: 0.9453E+00   max: 0.6255E+01   T at   66  1   RLX: 0.240
       a = -4.000      CL =  0.0470
      Cm = -0.1084     CD =  0.03239   =>   CDf =  0.00870    CDp =  0.02369

 Side 1  free  transition at x/c =  0.6869   61
 Side 2  free  transition at x/c =  0.1046   34
 idif Ue xi dudx           1  0.14563070      4.39858437E-03   33.108540    
 Uenew xinew           2  4.49229963E-02  1.35684013E-03

  59   rms: 0.5184E+00   max: 0.3360E+01   T at   61  1   RLX: 0.446
       a = -4.000      CL = -0.0914
      Cm = -0.0947     CD =  0.05205   =>   CDf =  0.00751    CDp =  0.04453

 Side 1  free  transition at x/c =  0.6658   59
 Side 2  free  transition at x/c =  0.1022   35

  60   rms: 0.2870E+00   max: 0.1933E+01   T at   59  1   RLX: 0.776
       a = -4.000      CL = -0.1702
      Cm = -0.0803     CD =  0.08136   =>   CDf =  0.00535    CDp =  0.07601

 Side 1  free  transition at x/c =  0.6611   58
 Side 2  free  transition at x/c =  0.0922   34
 idif Ue xi dudx           1  0.11864909      4.05347347E-03   29.270967    
 Uenew xinew           2  2.55561545E-02  8.73088837E-04

  61   rms: 0.1435E+00   max: 0.1821E+01   T at   58  1   RLX: 0.701
       a = -4.000      CL = -0.2662
      Cm = -0.0546     CD =  0.09881   =>   CDf =  0.00383    CDp =  0.09499

 Side 1  free  transition at x/c =  0.6336   55
 Side 2  free  transition at x/c =  0.0867   35

  62   rms: 0.2899E+00   max: 0.2340E+01   T at   56  1   RLX: 0.276
       a = -4.000      CL = -0.2046
      Cm = -0.0616     CD =  0.10743   =>   CDf =  0.00348    CDp =  0.10395

 Side 1  free  transition at x/c =  0.6326   56
 Side 2  free  transition at x/c =  0.0886   34

  63   rms: 0.1982E+00   max: -.1241E+01   T at   34  2   RLX: 0.403
       a = -4.000      CL = -0.1354
      Cm = -0.0683     CD =  0.09939   =>   CDf =  0.00356    CDp =  0.09583

 Side 1  free  transition at x/c =  0.6336   56
 Side 2  free  transition at x/c =  0.0898   34

  64   rms: 0.3418E+00   max: -.1275E+01   T at   34  2   RLX: 0.392
       a = -4.000      CL =  0.0224
      Cm = -0.0913     CD =  0.08896   =>   CDf =  0.00368    CDp =  0.08528

 Side 1  free  transition at x/c =  0.6320   57
 Side 2  free  transition at x/c =  0.0904   33

  65   rms: 0.8476E-01   max: -.6848E+00   D at   33  2   RLX: 0.730
       a = -4.000      CL =  0.0149
      Cm = -0.0885     CD =  0.08073   =>   CDf =  0.00413    CDp =  0.07660

 Side 1  free  transition at x/c =  0.6404   58
 Side 2  free  transition at x/c =  0.1077   35

  66   rms: 0.1163E+00   max: 0.1091E+01   T at   58  1
       a = -4.000      CL =  0.0099
      Cm = -0.0884     CD =  0.07192   =>   CDf =  0.00495    CDp =  0.06697

 Side 1  free  transition at x/c =  0.6178   56
 Side 2  free  transition at x/c =  0.1088   35

  67   rms: 0.4887E-01   max: -.5932E+00   D at   57  1   RLX: 0.843
       a = -4.000      CL =  0.0082
      Cm = -0.0909     CD =  0.07232   =>   CDf =  0.00451    CDp =  0.06781

 Side 1  free  transition at x/c =  0.6178   56
 Side 2  free  transition at x/c =  0.1089   35

  68   rms: 0.1369E-01   max: -.2051E+00   D at   57  1
       a = -4.000      CL =  0.0008
      Cm = -0.0894     CD =  0.07178   =>   CDf =  0.00466    CDp =  0.06712

 Side 1  free  transition at x/c =  0.6174   56
 Side 2  free  transition at x/c =  0.1087   35

  69   rms: 0.2918E-02   max: 0.1866E-01   T at   56  1
       a = -4.000      CL =  0.0016
      Cm = -0.0895     CD =  0.07172   =>   CDf =  0.00467    CDp =  0.06705

 Side 1  free  transition at x/c =  0.6172   56
 Side 2  free  transition at x/c =  0.1088   35

  70   rms: 0.2165E-03   max: 0.1561E-02   T at   56  1
       a = -4.000      CL =  0.0017
      Cm = -0.0895     CD =  0.07174   =>   CDf =  0.00467    CDp =  0.06708

 Side 1  free  transition at x/c =  0.6172   56
 Side 2  free  transition at x/c =  0.1088   35

  71   rms: 0.4726E-05   max: -.1936E-04   D at   93  2
       a = -4.000      CL =  0.0017
      Cm = -0.0895     CD =  0.07175   =>   CDf =  0.00467    CDp =  0.06708
 plradd ia,ip,cpol            1           0  1.28474534E-02

 Point added to stored polar  1
 Point written to save file  la5055_Re150k.base.pol                          
 Dump file unspecified or not available
 Calculating wake trajectory ...
 Calculating source influence matrix ...

 Solving BL system ...

 Side 1  free  transition at x/c =  0.6172   56
 Side 2  free  transition at x/c =  0.1088   35

   1   rms: 0.7475E-01   max: -.5692E+00   T at   35  2   RLX: 0.878
       a = -3.500      CL =  0.0278
      Cm = -0.0869     CD =  0.06979   =>   CDf =  0.00467    CDp =  0.06512

 Side 1  free  transition at x/c =  0.6171   56
 Side 2  free  transition at x/c =  0.1116   35

   2   rms: 0.7870E-01   max: -.2933E+00   D at   83  2
       a = -3.500      CL =  0.0263
      Cm = -0.0871     CD =  0.06922   =>   CDf =  0.00442    CDp =  0.06480

 Side 1  free  transition at x/c =  0.6166   56
 Side 2  free  transition at x/c =  0.1139   35

   3   rms: 0.4428E-01   max: -.3437E+00   T at   56  1
       a = -3.500      CL =  0.0338
      Cm = -0.0879     CD =  0.06998   =>   CDf =  0.00473    CDp =  0.06525

 Side 1  free  transition at x/c =  0.6169   56
 Side 2  free  transition at x/c =  0.1163   35

   4   rms: 0.5185E-01   max: -.4487E+00   T at   35  2
       a = -3.500      CL =  0.0361
      Cm = -0.0892     CD =  0.06977   =>   CDf =  0.00481    CDp =  0.06496

 Side 1  free  transition at x/c =  0.6167   56
 Side 2  free  transition at x/c =  0.1184   35

   5   rms: 0.2196E+00   max: -.1318E+01   T at   35  2   RLX: 0.379
       a = -3.500      CL =  0.0287
      Cm = -0.0911     CD =  0.07090   =>   CDf =  0.00481    CDp =  0.06609

 Side 1  free  transition at x/c =  0.6166   56
 Side 2  free  transition at x/c =  0.1161   35

   6   rms: 0.2113E+00   max: 0.8434E+00   D at   42  2   RLX: 0.982
       a = -3.500      CL =  0.0517
      Cm = -0.0890     CD =  0.07522   =>   CDf =  0.00538    CDp =  0.06984

 Side 1  free  transition at x/c =  0.6169   56
 Side 2  free  transition at x/c =  0.1178   35

   7   rms: 0.3843E+00   max: -.4457E+01   T at   35  2   RLX: 0.112
       a = -3.500      CL =  0.0638
      Cm = -0.0892     CD =  0.06397   =>   CDf =  0.00560    CDp =  0.05837

 Side 1  free  transition at x/c =  0.6174   56
 Side 2  free  transition at x/c =  0.1150   35

   8   rms: 0.1919E+00   max: 0.7224E+00   D at   49  2   RLX: 0.894
       a = -3.500      CL =  0.0382
      Cm = -0.0890     CD =  0.07022   =>   CDf =  0.00574    CDp =  0.06447

 Side 1  free  transition at x/c =  0.6163   56
 Side 2  free  transition at x/c =  0.1166   35

   9   rms: 0.6499E-01   max: -.4198E+00   T at   56  1
       a = -3.500      CL =  0.0388
      Cm = -0.0893     CD =  0.07105   =>   CDf =  0.00507    CDp =  0.06598

 Side 1  free  transition at x/c =  0.6176   56
 Side 2  free  transition at x/c =  0.1187   35

  10   rms: 0.1162E+01   max: -.7566E+01   T at   35  2   RLX: 0.066
       a = -3.500      CL =  0.0388
      Cm = -0.0937     CD =  0.07550   =>   CDf =  0.00488    CDp =  0.07061

 Side 1  free  transition at x/c =  0.6177   56
 Side 2  free  transition at x/c =  0.1158   35

  11   rms: 0.2199E+00   max: 0.9406E+00   D at   41  2   RLX: 0.935
       a = -3.500      CL =  0.0669
      Cm = -0.0884     CD =  0.07239   =>   CDf =  0.00542    CDp =  0.06697

 Side 1  free  transition at x/c =  0.6141   56
 Side 2  free  transition at x/c =  0.1183   35

  12   rms: 0.1437E+00   max: -.1036E+01   T at   56  1   RLX: 0.483
       a = -3.500      CL =  0.0592
      Cm = -0.0906     CD =  0.06828   =>   CDf =  0.00554    CDp =  0.06274

 Side 1  free  transition at x/c =  0.6128   56
 Side 2  free  transition at x/c =  0.1190   35

  13   rms: 0.1535E+00   max: 0.6736E+00   D at   63  1
       a = -3.500      CL = -0.0190
      Cm = -0.0907     CD =  0.08010   =>   CDf =  0.00553    CDp =  0.07458

 TRCHEK2: N2 convergence failed.
 x:  0.81770  0.83226  0.83720  N:  8.957  9.000  9.011  Nx:   4.086   dN:-0.735E-01
 TRCHEK2: N2 convergence failed.
 x:  0.81770  0.83476  0.83720  N:  8.957  9.000  9.003  Nx:   3.228   dN:-0.379E-01
 TRCHEK2: N2 convergence failed.
 x:  0.81770  0.83481  0.83720  N:  8.957  9.000  9.003  Nx:   3.095   dN:-0.449E-01
 TRCHEK2: N2 convergence failed.
 x:  0.81770  0.83473  0.83720  N:  8.957  9.000  9.009  Nx:   3.049   dN: 0.466E-01
 TRCHEK2: N2 convergence failed.
 x:  0.81770  0.83650  0.83720  N:  8.957  9.000  9.004  Nx:   3.024   dN: 0.234E-01
 TRCHEK2: N2 convergence failed.
 x:  0.81770  0.83452  0.83720  N:  8.957  9.000  9.004  Nx:   3.396   dN:-0.484E-02
 TRCHEK2: N2 convergence failed.
 x:  0.81770  0.83449  0.83720  N:  8.957  9.000  9.004  Nx:   3.182   dN:-0.644E-02
 TRCHEK2: N2 convergence failed.
 x:  0.81770  0.83475  0.83720  N:  8.957  9.000  9.009  Nx:   3.083   dN: 0.113E-01
 TRCHEK2: N2 convergence failed.
 x:  0.81770  0.83444  0.83720  N:  8.957  9.000  9.004  Nx:   3.153   dN:-0.830E-02
 TRCHEK2: N2 convergence failed.
 x:  0.81770  0.83448  0.83720  N:  8.957  9.000  9.010  Nx:   3.104   dN: 0.307E-01
 TRCHEK2: N2 convergence failed.
 x:  0.81770  0.83428  0.83720  N:  8.957  9.000  9.005  Nx:   3.179   dN:-0.613E-02
 TRCHEK2: N2 convergence failed.
 x:  0.81770  0.83451  0.83720  N:  8.957  9.000  9.010  Nx:   3.104   dN: 0.228E-01
 TRCHEK2: N2 convergence failed.
 x:  0.81770  0.83398  0.83720  N:  8.957  9.000  9.005  Nx:   3.372   dN:-0.317E-02
 TRCHEK2: N2 convergence failed.
 x:  0.81770  0.83450  0.83720  N:  8.957  9.000  9.004  Nx:   3.154   dN:-0.832E-02
 TRCHEK2: N2 convergence failed.
 x:  0.81770  0.83354  0.83720  N:  8.957  9.000  9.007  Nx:   3.800   dN:-0.293E-02
 TRCHEK2: N2 convergence failed.
 x:  0.81770  0.83447  0.83720  N:  8.957  9.000  9.004  Nx:   3.131   dN:-0.120E-01
 TRCHEK2: N2 convergence failed.
 x:  0.81770  0.83349  0.83720  N:  8.957  9.000  9.007  Nx:   3.841   dN:-0.282E-02
 TRCHEK2: N2 convergence failed.
 x:  0.81770  0.83438  0.83720  N:  8.957  9.000  9.004  Nx:   3.138   dN:-0.106E-01
 TRCHEK2: N2 convergence failed.
 x:  0.81770  0.83432  0.83720  N:  8.957  9.000  9.005  Nx:   3.124   dN:-0.317E-01
 TRCHEK2: N2 convergence failed.
 x:  0.81770  0.83423  0.83720  N:  8.957  9.000  9.005  Nx:   3.173   dN:-0.643E-02
 TRCHEK2: N2 convergence failed.
 x:  0.81770  0.83450  0.83720  N:  8.957  9.000  9.010  Nx:   3.104   dN: 0.225E-01
 TRCHEK2: N2 convergence failed.
 x:  0.81770  0.83577  0.83720  N:  8.957  9.000  9.006  Nx:   3.067   dN: 0.140E-01
 TRCHEK2: N2 convergence failed.
 x:  0.81770  0.83448  0.83720  N:  8.957  9.000  9.004  Nx:   3.173   dN:-0.691E-02
 TRCHEK2: N2 convergence failed.
 x:  0.81770  0.83357  0.83720  N:  8.957  9.000  9.007  Nx:   3.798   dN:-0.291E-02
 MRCHDU: Convergence failed at  66  side 1    Res =  0.2912E+02
 MRCHDU: Convergence failed at  67  side 1    Res =  0.1871E+02
 MRCHDU: Convergence failed at  68  side 1    Res =  0.2755E+02
 MRCHDU: Convergence failed at  69  side 1    Res =  0.4689E+02
 MRCHDU: Convergence failed at  70  side 1    Res =  0.3318E+04
 MRCHDU: Convergence failed at  71  side 1    Res =  0.1032E+03
 MRCHDU: Convergence failed at  72  side 1    Res =  0.6753E+02
 MRCHDU: Convergence failed at  73  side 1    Res =  0.4364E+02
 MRCHDU: Convergence failed at  74  side 1    Res =  0.4982E+02
 MRCHDU: Convergence failed at  75  side 1    Res =  0.4334E+02
 MRCHDU: Convergence failed at  76  side 1    Res =  0.3950E+02
 MRCHDU: Convergence failed at  77  side 1    Res =  0.4272E+02
 MRCHDU: Convergence failed at  78  side 1    Res =  0.4390E+02
 MRCHDU: Convergence failed at  79  side 1    Res =  0.7011E+02
 Side 1  free  transition at x/c =  0.7849   66
 Side 2  free  transition at x/c =  0.1148   35
 idif Ue xi dudx           1  0.10751200      3.10862064E-03   34.585114    
 Uenew xinew           2  2.31292821E-03  6.68764114E-05

  14   rms: 0.3197E+01   max: 0.3542E+02   T at   66  1   RLX: 0.037
       a = -3.500      CL =  0.1063
      Cm = -0.1748     CD =  0.03632   =>   CDf =  0.00498    CDp =  0.03134

 Side 1  free  transition at x/c =  0.7835   65
 Side 2  free  transition at x/c =  0.1121   36

  15   rms: 0.7397E+00   max: -.8807E+01   D at    2  2   RLX: 0.057
       a = -3.500      CL =  0.0860
      Cm = -0.1548     CD =  0.05312   =>   CDf =  0.00470    CDp =  0.04842

 Side 1  free  transition at x/c =  0.7716   65
 Side 2  free  transition at x/c =  0.1128   35
 idif Ue xi dudx           1  0.11378311      3.19576263E-03   35.604366    
 Uenew xinew           2  5.48372744E-03  1.54018402E-04

  16   rms: 0.4844E+01   max: 0.8426E+02   T at   65  1   RLX: 0.013
       a = -3.500      CL =  0.0672
      Cm = -0.1532     CD =  0.05343   =>   CDf =  0.00482    CDp =  0.04860

 Side 1  free  transition at x/c =  0.7877   65
 Side 2  free  transition at x/c =  0.1107   36

  17   rms: 0.7988E+00   max: 0.1312E+02   T at   65  1   RLX: 0.083
       a = -3.500      CL =  0.0904
      Cm = -0.1531     CD =  0.05519   =>   CDf =  0.00458    CDp =  0.05061

 Side 1  free  transition at x/c =  0.7372   64
 Side 2  free  transition at x/c =  0.1119   35

  18   rms: 0.4336E+00   max: 0.4947E+01   T at   64  1   RLX: 0.303
       a = -3.500      CL =  0.0950
      Cm = -0.1409     CD =  0.06764   =>   CDf =  0.00461    CDp =  0.06303

 Side 1  free  transition at x/c =  0.7314   63
 Side 2  free  transition at x/c =  0.1111   35

  19   rms: 0.1854E+01   max: -.3007E+02   T at   63  1   RLX: 0.017
       a = -3.500      CL =  0.1200
      Cm = -0.1476     CD =  0.06608   =>   CDf =  0.00445    CDp =  0.06163

 Side 1  free  transition at x/c =  0.7201   63
 Side 2  free  transition at x/c =  0.1120   35

  20   rms: 0.4720E+00   max: 0.9358E+01   T at   63  1   RLX: 0.160
       a = -3.500      CL =  0.1378
      Cm = -0.1462     CD =  0.06567   =>   CDf =  0.00444    CDp =  0.06123

 Side 1  free  transition at x/c =  0.6818   61
 Side 2  free  transition at x/c =  0.1135   35

  21   rms: 0.2444E+00   max: 0.2975E+01   T at   61  1   RLX: 0.504
       a = -3.500      CL =  0.1086
      Cm = -0.1215     CD =  0.07117   =>   CDf =  0.00445    CDp =  0.06672

 Side 1  free  transition at x/c =  0.6750   60
 Side 2  free  transition at x/c =  0.1143   35

  22   rms: 0.7680E+00   max: -.1235E+02   T at   60  1   RLX: 0.040
       a = -3.500      CL =  0.1368
      Cm = -0.1260     CD =  0.06757   =>   CDf =  0.00444    CDp =  0.06313

 Side 1  free  transition at x/c =  0.6656   60
 Side 2  free  transition at x/c =  0.1168   35

  23   rms: 0.2507E+00   max: 0.2950E+01   T at   60  1   RLX: 0.259
       a = -3.500      CL =  0.1450
      Cm = -0.1284     CD =  0.06952   =>   CDf =  0.00444    CDp =  0.06508

 Side 1  free  transition at x/c =  0.6634   59
 Side 2  free  transition at x/c =  0.1152   35

  24   rms: 0.1724E+00   max: -.1067E+01   T at   59  1   RLX: 0.468
       a = -3.500      CL =  0.1804
      Cm = -0.1248     CD =  0.06490   =>   CDf =  0.00459    CDp =  0.06031

 MRCHDU: Convergence failed at  73  side 1    Res =  0.2611E+01
 MRCHDU: Convergence failed at  74  side 1    Res =  0.2932E+01
 MRCHDU: Convergence failed at  75  side 1    Res =  0.4000E+01
 MRCHDU: Convergence failed at  76  side 1    Res =  0.7664E+01
 MRCHDU: Convergence failed at  77  side 1    Res =  0.2116E+02
 MRCHDU: Convergence failed at  78  side 1    Res =  0.4099E+02
 MRCHDU: Convergence failed at  79  side 1    Res =  0.1168E+02
 MRCHDU: Convergence failed at  80  side 1    Res =  0.5891E+01
 Side 1  free  transition at x/c =  0.6367   59
 Side 2  free  transition at x/c =  0.1175   34
 idif Ue xi dudx           1  0.13009921      3.85308266E-03   33.764965    
 Uenew xinew           2  3.13273333E-02  9.27805901E-04

  25   rms: 0.2103E+00   max: 0.2895E+01   T at   59  1   RLX: 0.518
       a = -3.500      CL =  0.0912
      Cm = -0.1106     CD =  0.06719   =>   CDf =  0.00484    CDp =  0.06236

 Side 1  free  transition at x/c =  0.6322   57
 Side 2  free  transition at x/c =  0.1169   35

  26   rms: 0.2259E+00   max: -.2894E+01   T at   57  1   RLX: 0.173
       a = -3.500      CL =  0.0801
      Cm = -0.1046     CD =  0.06504   =>   CDf =  0.00494    CDp =  0.06010

 Side 1  free  transition at x/c =  0.6231   57
 Side 2  free  transition at x/c =  0.1171   35

  27   rms: 0.2353E+00   max: -.2377E+01   T at   57  1   RLX: 0.210
       a = -3.500      CL =  0.0759
      Cm = -0.1105     CD =  0.06728   =>   CDf =  0.00493    CDp =  0.06235

 Side 1  free  transition at x/c =  0.6245   57
 Side 2  free  transition at x/c =  0.1168   35
 idif Ue xi dudx           1  0.11161568      3.18646431E-03   35.028065    
 Uenew xinew           2  5.06926421E-03  1.44720078E-04

  28   rms: 0.2511E+00   max: 0.2157E+01   T at   35  2   RLX: 0.695
       a = -3.500      CL = -0.0568
      Cm = -0.0955     CD =  0.07911   =>   CDf =  0.00488    CDp =  0.07423

 MRCHDU: Convergence failed at  58  side 2    Res =  0.2063E+01
 MRCHDU: Convergence failed at  59  side 2    Res =  0.1509E+01
 MRCHDU: Convergence failed at  60  side 2    Res =  0.1129E+01
 MRCHDU: Convergence failed at  61  side 2    Res =  0.1133E+01
 MRCHDU: Convergence failed at  62  side 2    Res =  0.1407E+01
 MRCHDU: Convergence failed at  63  side 2    Res =  0.1812E+01
 MRCHDU: Convergence failed at  64  side 2    Res =  0.2292E+01
 MRCHDU: Convergence failed at  65  side 2    Res =  0.2892E+01
 MRCHDU: Convergence failed at  66  side 2    Res =  0.3777E+01
 MRCHDU: Convergence failed at  67  side 2    Res =  0.5544E+01
 MRCHDU: Convergence failed at  68  side 2    Res =  0.1041E+02
 MRCHDU: Convergence failed at  69  side 2    Res =  0.4449E+02
 MRCHDU: Convergence failed at  70  side 2    Res =  0.4122E+02
 MRCHDU: Convergence failed at  71  side 2    Res =  0.1708E+02
 MRCHDU: Convergence failed at  72  side 2    Res =  0.1099E+02
 MRCHDU: Convergence failed at  73  side 2    Res =  0.8506E+01
 MRCHDU: Convergence failed at  74  side 2    Res =  0.7401E+01
 MRCHDU: Convergence failed at  75  side 2    Res =  0.6746E+01
 MRCHDU: Convergence failed at  76  side 2    Res =  0.6177E+01
 MRCHDU: Convergence failed at  77  side 2    Res =  0.5671E+01
 MRCHDU: Convergence failed at  78  side 2    Res =  0.4442E+01
 MRCHDU: Convergence failed at  79  side 2    Res =  0.4215E+01
 MRCHDU: Convergence failed at  80  side 2    Res =  0.4102E+01
 MRCHDU: Convergence failed at  81  side 2    Res =  0.4103E+01
 MRCHDU: Convergence failed at  82  side 2    Res =  0.4224E+01
 MRCHDU: Convergence failed at  83  side 2    Res =  0.4484E+01
 MRCHDU: Convergence failed at  84  side 2    Res =  0.7429E+01
 Side 1  free  transition at x/c =  0.6287   56
 Side 2  free  transition at x/c =  0.0998   35

  29   rms: 0.2015E+00   max: -.1832E+01   T at    2  2   RLX: 0.273
       a = -3.500      CL = -0.1788
      Cm = -0.0341     CD =  0.07947   =>   CDf =  0.00363    CDp =  0.07584

 Side 1  free  transition at x/c =  0.6304   57
 Side 2  free  transition at x/c =  0.1015   34

  30   rms: 0.1264E+00   max: 0.2038E+00   T at   84  2
       a = -3.500      CL = -0.0736
      Cm = -0.0787     CD =  0.08144   =>   CDf =  0.00471    CDp =  0.07673

 Side 1  free  transition at x/c =  0.6971   61
 Side 2  free  transition at x/c =  0.1027   34
 idif Ue xi dudx           1  0.11541127      3.34453583E-03   34.507412    
 Uenew xinew           2  1.04485545E-02  3.02791595E-04

  31   rms: 0.2120E+01   max: 0.2799E+02   T at   61  1   RLX: 0.033
       a = -3.500      CL = -0.0599
      Cm = -0.0873     CD =  0.07432   =>   CDf =  0.00439    CDp =  0.06992

 Side 1  free  transition at x/c =  0.6579   58
 Side 2  free  transition at x/c =  0.1006   35

  32   rms: 0.9734E-01   max: 0.1439E+01   T at   58  1   RLX: 0.939
       a = -3.500      CL = -0.1183
      Cm = -0.0812     CD =  0.08128   =>   CDf =  0.00416    CDp =  0.07712

 Side 1  free  transition at x/c =  0.6385   57
 Side 2  free  transition at x/c =  0.1011   35

  33   rms: 0.3492E-01   max: -.4961E+00   D at   57  1
       a = -3.500      CL = -0.1344
      Cm = -0.0770     CD =  0.08251   =>   CDf =  0.00412    CDp =  0.07839

 Side 1  free  transition at x/c =  0.6413   57
 Side 2  free  transition at x/c =  0.1000   35

  34   rms: 0.1499E-01   max: -.1635E+00   T at   57  1
       a = -3.500      CL = -0.1246
      Cm = -0.0781     CD =  0.08190   =>   CDf =  0.00405    CDp =  0.07785

 Side 1  free  transition at x/c =  0.6439   57
 Side 2  free  transition at x/c =  0.1009   35

  35   rms: 0.9132E-02   max: -.8453E-01   T at   57  1
       a = -3.500      CL = -0.1173
      Cm = -0.0792     CD =  0.08174   =>   CDf =  0.00409    CDp =  0.07765

 Side 1  free  transition at x/c =  0.6453   57
 Side 2  free  transition at x/c =  0.1017   35

  36   rms: 0.1423E-01   max: -.1568E+00   T at   57  1
       a = -3.500      CL = -0.1050
      Cm = -0.0811     CD =  0.08148   =>   CDf =  0.00412    CDp =  0.07737

 Side 1  free  transition at x/c =  0.6473   57
 Side 2  free  transition at x/c =  0.1031   35

  37   rms: 0.1025E-01   max: 0.9833E-01   T at   57  1
       a = -3.500      CL = -0.1122
      Cm = -0.0800     CD =  0.08170   =>   CDf =  0.00415    CDp =  0.07755

 Side 1  free  transition at x/c =  0.6461   57
 Side 2  free  transition at x/c =  0.1023   35

  38   rms: 0.7171E-02   max: 0.9184E-01   T at   57  1
       a = -3.500      CL = -0.1186
      Cm = -0.0791     CD =  0.08195   =>   CDf =  0.00413    CDp =  0.07782

 Side 1  free  transition at x/c =  0.6450   57
 Side 2  free  transition at x/c =  0.1016   35

  39   rms: 0.8599E-02   max: -.9683E-01   T at   57  1
       a = -3.500      CL = -0.1111
      Cm = -0.0802     CD =  0.08159   =>   CDf =  0.00412    CDp =  0.07748

 Side 1  free  transition at x/c =  0.6464   57
 Side 2  free  transition at x/c =  0.1025   35

  40   rms: 0.6168E-02   max: 0.7840E-01   T at   57  1
       a = -3.500      CL = -0.1164
      Cm = -0.0794     CD =  0.08189   =>   CDf =  0.00414    CDp =  0.07775

 Side 1  free  transition at x/c =  0.6454   57
 Side 2  free  transition at x/c =  0.1019   35

  41   rms: 0.2026E-01   max: -.2365E+00   T at   57  1
       a = -3.500      CL = -0.0986
      Cm = -0.0822     CD =  0.08125   =>   CDf =  0.00412    CDp =  0.07713

 Side 1  free  transition at x/c =  0.6478   57
 Side 2  free  transition at x/c =  0.1040   35

  42   rms: 0.4880E-01   max: -.3706E+00   T at   35  2
       a = -3.500      CL = -0.1093
      Cm = -0.0827     CD =  0.08099   =>   CDf =  0.00415    CDp =  0.07683

 Side 1  free  transition at x/c =  0.6456   57
 Side 2  free  transition at x/c =  0.1051   35

  43   rms: 0.2176E-01   max: 0.2285E+00   T at   57  1
       a = -3.500      CL = -0.1277
      Cm = -0.0792     CD =  0.08221   =>   CDf =  0.00428    CDp =  0.07793

 Side 1  free  transition at x/c =  0.6427   57
 Side 2  free  transition at x/c =  0.1030   35

[...]

 Side 1  free  transition at x/c =  0.4283   59
 Side 2 forced transition at x/c =  1.0000   70

  11   rms: 0.2721E-01   max: 0.1257E+00   D at   58  1
       a =  9.500      CL =  0.9398
      Cm = -0.0554     CD =  0.07321   =>   CDf =  0.00667    CDp =  0.06655

 Side 1  free  transition at x/c =  0.4271   58
 Side 2 forced transition at x/c =  1.0000   70

  12   rms: 0.5077E-02   max: -.5188E-01   T at   58  1
       a =  9.500      CL =  0.9424
      Cm = -0.0552     CD =  0.07214   =>   CDf =  0.00667    CDp =  0.06547

 Side 1  free  transition at x/c =  0.4283   59
 Side 2 forced transition at x/c =  1.0000   70

  13   rms: 0.2721E-01   max: 0.1257E+00   D at   58  1
       a =  9.500      CL =  0.9398
      Cm = -0.0554     CD =  0.07321   =>   CDf =  0.00667    CDp =  0.06655

 Side 1  free  transition at x/c =  0.4271   58
 Side 2 forced transition at x/c =  1.0000   70

  14   rms: 0.5077E-02   max: -.5187E-01   T at   58  1
       a =  9.500      CL =  0.9424
      Cm = -0.0552     CD =  0.07214   =>   CDf =  0.00667    CDp =  0.06547

 Side 1  free  transition at x/c =  0.4283   59
 Side 2 forced transition at x/c =  1.0000   70

  15   rms: 0.2721E-01   max: 0.1257E+00   D at   58  1
       a =  9.500      CL =  0.9398
      Cm = -0.0554     CD =  0.07321   =>   CDf =  0.00667    CDp =  0.06655

 Side 1  free  transition at x/c =  0.4271   58
 Side 2 forced transition at x/c =  1.0000   70

  16   rms: 0.5077E-02   max: -.5188E-01   T at   58  1
       a =  9.500      CL =  0.9424
      Cm = -0.0552     CD =  0.07214   =>   CDf =  0.00667    CDp =  0.06547

 Side 1  free  transition at x/c =  0.4283   59
 Side 2 forced transition at x/c =  1.0000   70

  17   rms: 0.2721E-01   max: 0.1257E+00   D at   58  1
       a =  9.500      CL =  0.9398
      Cm = -0.0554     CD =  0.07321   =>   CDf =  0.00667    CDp =  0.06655

 Side 1  free  transition at x/c =  0.4271   58
 Side 2 forced transition at x/c =  1.0000   70

  18   rms: 0.5077E-02   max: -.5187E-01   T at   58  1
       a =  9.500      CL =  0.9424
      Cm = -0.0552     CD =  0.07214   =>   CDf =  0.00667    CDp =  0.06547

 Side 1  free  transition at x/c =  0.4283   59
 Side 2 forced transition at x/c =  1.0000   70

  19   rms: 0.2721E-01   max: 0.1257E+00   D at   58  1
       a =  9.500      CL =  0.9398
      Cm = -0.0554     CD =  0.07321   =>   CDf =  0.00667    CDp =  0.06655

 Side 1  free  transition at x/c =  0.4271   58
 Side 2 forced transition at x/c =  1.0000   70

  20   rms: 0.5076E-02   max: -.5187E-01   T at   58  1
       a =  9.500      CL =  0.9424
      Cm = -0.0552     CD =  0.07214   =>   CDf =  0.00667    CDp =  0.06547

 Side 1  free  transition at x/c =  0.4283   59
 Side 2 forced transition at x/c =  1.0000   70

  21   rms: 0.2721E-01   max: 0.1257E+00   D at   58  1
       a =  9.500      CL =  0.9398
      Cm = -0.0554     CD =  0.07321   =>   CDf =  0.00667    CDp =  0.06655

 Side 1  free  transition at x/c =  0.4271   58
 Side 2 forced transition at x/c =  1.0000   70

  22   rms: 0.5076E-02   max: -.5187E-01   T at   58  1
       a =  9.500      CL =  0.9424
      Cm = -0.0552     CD =  0.07214   =>   CDf =  0.00667    CDp =  0.06547

 Side 1  free  transition at x/c =  0.4283   59
 Side 2 forced transition at x/c =  1.0000   70

  23   rms: 0.2721E-01   max: 0.1257E+00   D at   58  1
       a =  9.500      CL =  0.9398
      Cm = -0.0554     CD =  0.07321   =>   CDf =  0.00667    CDp =  0.06655

 Side 1  free  transition at x/c =  0.4271   58
 Side 2 forced transition at x/c =  1.0000   70

  24   rms: 0.5077E-02   max: -.5187E-01   T at   58  1
       a =  9.500      CL =  0.9424
      Cm = -0.0552     CD =  0.07214   =>   CDf =  0.00667    CDp =  0.06547

 Side 1  free  transition at x/c =  0.4283   59
 Side 2 forced transition at x/c =  1.0000   70

  25   rms: 0.2721E-01   max: 0.1257E+00   D at   58  1
       a =  9.500      CL =  0.9398
      Cm = -0.0554     CD =  0.07321   =>   CDf =  0.00667    CDp =  0.06655

 Side 1  free  transition at x/c =  0.4271   58
 Side 2 forced transition at x/c =  1.0000   70

  26   rms: 0.5077E-02   max: -.5187E-01   T at   58  1
       a =  9.500      CL =  0.9424
      Cm = -0.0552     CD =  0.07214   =>   CDf =  0.00667    CDp =  0.06547

 Side 1  free  transition at x/c =  0.4283   59
 Side 2 forced transition at x/c =  1.0000   70

  27   rms: 0.2721E-01   max: 0.1257E+00   D at   58  1
       a =  9.500      CL =  0.9398
      Cm = -0.0554     CD =  0.07321   =>   CDf =  0.00667    CDp =  0.06655

 Side 1  free  transition at x/c =  0.4271   58
 Side 2 forced transition at x/c =  1.0000   70

  28   rms: 0.5077E-02   max: -.5189E-01   T at   58  1
       a =  9.500      CL =  0.9424
      Cm = -0.0552     CD =  0.07214   =>   CDf =  0.00667    CDp =  0.06547

 Side 1  free  transition at x/c =  0.4283   59
 Side 2 forced transition at x/c =  1.0000   70

  29   rms: 0.2721E-01   max: 0.1257E+00   D at   58  1
       a =  9.500      CL =  0.9398
      Cm = -0.0554     CD =  0.07321   =>   CDf =  0.00667    CDp =  0.06655

 Side 1  free  transition at x/c =  0.4271   58
 Side 2 forced transition at x/c =  1.0000   70

  30   rms: 0.5076E-02   max: -.5187E-01   T at   58  1
       a =  9.500      CL =  0.9424
      Cm = -0.0552     CD =  0.07214   =>   CDf =  0.00667    CDp =  0.06547

 Side 1  free  transition at x/c =  0.4283   59
 Side 2 forced transition at x/c =  1.0000   70

  31   rms: 0.2721E-01   max: 0.1257E+00   D at   58  1
       a =  9.500      CL =  0.9398
      Cm = -0.0554     CD =  0.07321   =>   CDf =  0.00667    CDp =  0.06655

 Side 1  free  transition at x/c =  0.4271   58
 Side 2 forced transition at x/c =  1.0000   70

  32   rms: 0.5077E-02   max: -.5187E-01   T at   58  1
       a =  9.500      CL =  0.9424
      Cm = -0.0552     CD =  0.07214   =>   CDf =  0.00667    CDp =  0.06547

 Side 1  free  transition at x/c =  0.4283   59
 Side 2 forced transition at x/c =  1.0000   70

  33   rms: 0.2721E-01   max: 0.1257E+00   D at   58  1
       a =  9.500      CL =  0.9398
      Cm = -0.0554     CD =  0.07321   =>   CDf =  0.00667    CDp =  0.06655

 Side 1  free  transition at x/c =  0.4271   58
 Side 2 forced transition at x/c =  1.0000   70

  34   rms: 0.5076E-02   max: -.5187E-01   T at   58  1
       a =  9.500      CL =  0.9424
      Cm = -0.0552     CD =  0.07214   =>   CDf =  0.00667    CDp =  0.06547

 Side 1  free  transition at x/c =  0.4283   59
 Side 2 forced transition at x/c =  1.0000   70

  35   rms: 0.2721E-01   max: 0.1257E+00   D at   58  1
       a =  9.500      CL =  0.9398
      Cm = -0.0554     CD =  0.07321   =>   CDf =  0.00667    CDp =  0.06655

 Side 1  free  transition at x/c =  0.4271   58
 Side 2 forced transition at x/c =  1.0000   70

  36   rms: 0.5077E-02   max: -.5187E-01   T at   58  1
       a =  9.500      CL =  0.9424
      Cm = -0.0552     CD =  0.07214   =>   CDf =  0.00667    CDp =  0.06547

 Side 1  free  transition at x/c =  0.4283   59
 Side 2 forced transition at x/c =  1.0000   70

  37   rms: 0.2721E-01   max: 0.1257E+00   D at   58  1
       a =  9.500      CL =  0.9398
      Cm = -0.0554     CD =  0.07321   =>   CDf =  0.00667    CDp =  0.06655

 Side 1  free  transition at x/c =  0.4271   58
 Side 2 forced transition at x/c =  1.0000   70

  38   rms: 0.5077E-02   max: -.5188E-01   T at   58  1
       a =  9.500      CL =  0.9424
      Cm = -0.0552     CD =  0.07214   =>   CDf =  0.00667    CDp =  0.06547

 Side 1  free  transition at x/c =  0.4283   59
 Side 2 forced transition at x/c =  1.0000   70

  39   rms: 0.2721E-01   max: 0.1257E+00   D at   58  1
       a =  9.500      CL =  0.9398
      Cm = -0.0554     CD =  0.07321   =>   CDf =  0.00667    CDp =  0.06655

 Side 1  free  transition at x/c =  0.4271   58
 Side 2 forced transition at x/c =  1.0000   70

  40   rms: 0.5076E-02   max: -.5187E-01   T at   58  1
       a =  9.500      CL =  0.9424
      Cm = -0.0552     CD =  0.07214   =>   CDf =  0.00667    CDp =  0.06547

 Side 1  free  transition at x/c =  0.4283   59
 Side 2 forced transition at x/c =  1.0000   70

  41   rms: 0.2721E-01   max: 0.1257E+00   D at   58  1
       a =  9.500      CL =  0.9398
      Cm = -0.0554     CD =  0.07321   =>   CDf =  0.00667    CDp =  0.06655

 Side 1  free  transition at x/c =  0.4271   58
 Side 2 forced transition at x/c =  1.0000   70

  42   rms: 0.5077E-02   max: -.5187E-01   T at   58  1
       a =  9.500      CL =  0.9424
      Cm = -0.0552     CD =  0.07214   =>   CDf =  0.00667    CDp =  0.06547

 Side 1  free  transition at x/c =  0.4283   59
 Side 2 forced transition at x/c =  1.0000   70

  43   rms: 0.2721E-01   max: 0.1257E+00   D at   58  1
       a =  9.500      CL =  0.9398
      Cm = -0.0554     CD =  0.07321   =>   CDf =  0.00667    CDp =  0.06655

 Side 1  free  transition at x/c =  0.4271   58
 Side 2 forced transition at x/c =  1.0000   70

  44   rms: 0.5077E-02   max: -.5187E-01   T at   58  1
       a =  9.500      CL =  0.9424
      Cm = -0.0552     CD =  0.07214   =>   CDf =  0.00667    CDp =  0.06547

 Side 1  free  transition at x/c =  0.4283   59
 Side 2 forced transition at x/c =  1.0000   70

  45   rms: 0.2721E-01   max: 0.1257E+00   D at   58  1
       a =  9.500      CL =  0.9398
      Cm = -0.0554     CD =  0.07321   =>   CDf =  0.00667    CDp =  0.06655

 Side 1  free  transition at x/c =  0.4271   58
 Side 2 forced transition at x/c =  1.0000   70

  46   rms: 0.5076E-02   max: -.5187E-01   T at   58  1
       a =  9.500      CL =  0.9424
      Cm = -0.0552     CD =  0.07214   =>   CDf =  0.00667    CDp =  0.06547

 Side 1  free  transition at x/c =  0.4283   59
 Side 2 forced transition at x/c =  1.0000   70

  47   rms: 0.2721E-01   max: 0.1257E+00   D at   58  1
       a =  9.500      CL =  0.9398
      Cm = -0.0554     CD =  0.07321   =>   CDf =  0.00667    CDp =  0.06655

 Side 1  free  transition at x/c =  0.4271   58
 Side 2 forced transition at x/c =  1.0000   70

  48   rms: 0.5077E-02   max: -.5188E-01   T at   58  1
       a =  9.500      CL =  0.9424
      Cm = -0.0552     CD =  0.07214   =>   CDf =  0.00667    CDp =  0.06547

 Side 1  free  transition at x/c =  0.4283   59
 Side 2 forced transition at x/c =  1.0000   70

  49   rms: 0.2721E-01   max: 0.1257E+00   D at   58  1
       a =  9.500      CL =  0.9398
      Cm = -0.0554     CD =  0.07321   =>   CDf =  0.00667    CDp =  0.06655

 Side 1  free  transition at x/c =  0.4271   58
 Side 2 forced transition at x/c =  1.0000   70

  50   rms: 0.5076E-02   max: -.5187E-01   T at   58  1
       a =  9.500      CL =  0.9424
      Cm = -0.0552     CD =  0.07214   =>   CDf =  0.00667    CDp =  0.06547

 Side 1  free  transition at x/c =  0.4283   59
 Side 2 forced transition at x/c =  1.0000   70

  51   rms: 0.2721E-01   max: 0.1257E+00   D at   58  1
       a =  9.500      CL =  0.9398
      Cm = -0.0554     CD =  0.07321   =>   CDf =  0.00667    CDp =  0.06655

 Side 1  free  transition at x/c =  0.4271   58
 Side 2 forced transition at x/c =  1.0000   70

  52   rms: 0.5077E-02   max: -.5188E-01   T at   58  1
       a =  9.500      CL =  0.9424
      Cm = -0.0552     CD =  0.07214   =>   CDf =  0.00667    CDp =  0.06547

 Side 1  free  transition at x/c =  0.4283   59
 Side 2 forced transition at x/c =  1.0000   70

  53   rms: 0.2721E-01   max: 0.1257E+00   D at   58  1
       a =  9.500      CL =  0.9398
      Cm = -0.0554     CD =  0.07321   =>   CDf =  0.00667    CDp =  0.06655

 Side 1  free  transition at x/c =  0.4271   58
 Side 2 forced transition at x/c =  1.0000   70

  54   rms: 0.5077E-02   max: -.5188E-01   T at   58  1
       a =  9.500      CL =  0.9424
      Cm = -0.0552     CD =  0.07214   =>   CDf =  0.00667    CDp =  0.06547

 Side 1  free  transition at x/c =  0.4283   59
 Side 2 forced transition at x/c =  1.0000   70

  55   rms: 0.2721E-01   max: 0.1257E+00   D at   58  1
       a =  9.500      CL =  0.9398
      Cm = -0.0554     CD =  0.07321   =>   CDf =  0.00667    CDp =  0.06655

 Side 1  free  transition at x/c =  0.4271   58
 Side 2 forced transition at x/c =  1.0000   70

  56   rms: 0.5077E-02   max: -.5188E-01   T at   58  1
       a =  9.500      CL =  0.9424
      Cm = -0.0552     CD =  0.07214   =>   CDf =  0.00667    CDp =  0.06547

 Side 1  free  transition at x/c =  0.4283   59
 Side 2 forced transition at x/c =  1.0000   70

  57   rms: 0.2721E-01   max: 0.1257E+00   D at   58  1
       a =  9.500      CL =  0.9398
      Cm = -0.0554     CD =  0.07321   =>   CDf =  0.00667    CDp =  0.06655

 Side 1  free  transition at x/c =  0.4271   58
 Side 2 forced transition at x/c =  1.0000   70

  58   rms: 0.5077E-02   max: -.5187E-01   T at   58  1
       a =  9.500      CL =  0.9424
      Cm = -0.0552     CD =  0.07214   =>   CDf =  0.00667    CDp =  0.06547

 Side 1  free  transition at x/c =  0.4283   59
 Side 2 forced transition at x/c =  1.0000   70

  59   rms: 0.2721E-01   max: 0.1257E+00   D at   58  1
       a =  9.500      CL =  0.9398
      Cm = -0.0554     CD =  0.07321   =>   CDf =  0.00667    CDp =  0.06655

 Side 1  free  transition at x/c =  0.4271   58
 Side 2 forced transition at x/c =  1.0000   70

  60   rms: 0.5077E-02   max: -.5188E-01   T at   58  1
       a =  9.500      CL =  0.9424
      Cm = -0.0552     CD =  0.07214   =>   CDf =  0.00667    CDp =  0.06547

 Side 1  free  transition at x/c =  0.4283   59
 Side 2 forced transition at x/c =  1.0000   70

  61   rms: 0.2721E-01   max: 0.1257E+00   D at   58  1
       a =  9.500      CL =  0.9398
      Cm = -0.0554     CD =  0.07321   =>   CDf =  0.00667    CDp =  0.06655

 Side 1  free  transition at x/c =  0.4271   58
 Side 2 forced transition at x/c =  1.0000   70

  62   rms: 0.5077E-02   max: -.5187E-01   T at   58  1
       a =  9.500      CL =  0.9424
      Cm = -0.0552     CD =  0.07214   =>   CDf =  0.00667    CDp =  0.06547

 Side 1  free  transition at x/c =  0.4283   59
 Side 2 forced transition at x/c =  1.0000   70

  63   rms: 0.2721E-01   max: 0.1257E+00   D at   58  1
       a =  9.500      CL =  0.9398
      Cm = -0.0554     CD =  0.07321   =>   CDf =  0.00667    CDp =  0.06655

 Side 1  free  transition at x/c =  0.4271   58
 Side 2 forced transition at x/c =  1.0000   70

  64   rms: 0.5077E-02   max: -.5188E-01   T at   58  1
       a =  9.500      CL =  0.9424
      Cm = -0.0552     CD =  0.07214   =>   CDf =  0.00667    CDp =  0.06547

 Side 1  free  transition at x/c =  0.4283   59
 Side 2 forced transition at x/c =  1.0000   70

  65   rms: 0.2721E-01   max: 0.1257E+00   D at   58  1
       a =  9.500      CL =  0.9398
      Cm = -0.0554     CD =  0.07321   =>   CDf =  0.00667    CDp =  0.06655

 Side 1  free  transition at x/c =  0.4271   58
 Side 2 forced transition at x/c =  1.0000   70

  66   rms: 0.5077E-02   max: -.5188E-01   T at   58  1
       a =  9.500      CL =  0.9424
      Cm = -0.0552     CD =  0.07214   =>   CDf =  0.00667    CDp =  0.06547

 Side 1  free  transition at x/c =  0.4283   59
 Side 2 forced transition at x/c =  1.0000   70

  67   rms: 0.2721E-01   max: 0.1257E+00   D at   58  1
       a =  9.500      CL =  0.9398
      Cm = -0.0554     CD =  0.07321   =>   CDf =  0.00667    CDp =  0.06655

 Side 1  free  transition at x/c =  0.4271   58
 Side 2 forced transition at x/c =  1.0000   70

  68   rms: 0.5077E-02   max: -.5188E-01   T at   58  1
       a =  9.500      CL =  0.9424
      Cm = -0.0552     CD =  0.07214   =>   CDf =  0.00667    CDp =  0.06547

 Side 1  free  transition at x/c =  0.4283   59
 Side 2 forced transition at x/c =  1.0000   70

  69   rms: 0.2721E-01   max: 0.1257E+00   D at   58  1
       a =  9.500      CL =  0.9398
      Cm = -0.0554     CD =  0.07321   =>   CDf =  0.00667    CDp =  0.06655

 Side 1  free  transition at x/c =  0.4271   58
 Side 2 forced transition at x/c =  1.0000   70

  70   rms: 0.5077E-02   max: -.5188E-01   T at   58  1
       a =  9.500      CL =  0.9424
      Cm = -0.0552     CD =  0.07214   =>   CDf =  0.00667    CDp =  0.06547

 Side 1  free  transition at x/c =  0.4283   59
 Side 2 forced transition at x/c =  1.0000   70

  71   rms: 0.2721E-01   max: 0.1257E+00   D at   58  1
       a =  9.500      CL =  0.9398
      Cm = -0.0554     CD =  0.07321   =>   CDf =  0.00667    CDp =  0.06655

 Side 1  free  transition at x/c =  0.4271   58
 Side 2 forced transition at x/c =  1.0000   70

  72   rms: 0.5077E-02   max: -.5187E-01   T at   58  1
       a =  9.500      CL =  0.9424
      Cm = -0.0552     CD =  0.07214   =>   CDf =  0.00667    CDp =  0.06547

 Side 1  free  transition at x/c =  0.4283   59
 Side 2 forced transition at x/c =  1.0000   70

  73   rms: 0.2721E-01   max: 0.1257E+00   D at   58  1
       a =  9.500      CL =  0.9398
      Cm = -0.0554     CD =  0.07321   =>   CDf =  0.00667    CDp =  0.06655

 Side 1  free  transition at x/c =  0.4271   58
 Side 2 forced transition at x/c =  1.0000   70

  74   rms: 0.5077E-02   max: -.5187E-01   T at   58  1
       a =  9.500      CL =  0.9424
      Cm = -0.0552     CD =  0.07214   =>   CDf =  0.00667    CDp =  0.06547

 Side 1  free  transition at x/c =  0.4283   59
 Side 2 forced transition at x/c =  1.0000   70

  75   rms: 0.2721E-01   max: 0.1257E+00   D at   58  1
       a =  9.500      CL =  0.9398
      Cm = -0.0554     CD =  0.07321   =>   CDf =  0.00667    CDp =  0.06655

 Side 1  free  transition at x/c =  0.4271   58
 Side 2 forced transition at x/c =  1.0000   70

  76   rms: 0.5076E-02   max: -.5187E-01   T at   58  1
       a =  9.500      CL =  0.9424
      Cm = -0.0552     CD =  0.07214   =>   CDf =  0.00667    CDp =  0.06547

 Side 1  free  transition at x/c =  0.4283   59
 Side 2 forced transition at x/c =  1.0000   70

  77   rms: 0.2721E-01   max: 0.1257E+00   D at   58  1
       a =  9.500      CL =  0.9398
      Cm = -0.0554     CD =  0.07321   =>   CDf =  0.00667    CDp =  0.06655

 Side 1  free  transition at x/c =  0.4271   58
 Side 2 forced transition at x/c =  1.0000   70

  78   rms: 0.5076E-02   max: -.5187E-01   T at   58  1
       a =  9.500      CL =  0.9424
      Cm = -0.0552     CD =  0.07214   =>   CDf =  0.00667    CDp =  0.06547

 Side 1  free  transition at x/c =  0.4283   59
 Side 2 forced transition at x/c =  1.0000   70

  79   rms: 0.2721E-01   max: 0.1257E+00   D at   58  1
       a =  9.500      CL =  0.9398
      Cm = -0.0554     CD =  0.07321   =>   CDf =  0.00667    CDp =  0.06655

 Side 1  free  transition at x/c =  0.4271   58
 Side 2 forced transition at x/c =  1.0000   70

  80   rms: 0.5077E-02   max: -.5188E-01   T at   58  1
       a =  9.500      CL =  0.9424
      Cm = -0.0552     CD =  0.07214   =>   CDf =  0.00667    CDp =  0.06547

 Side 1  free  transition at x/c =  0.4283   59
 Side 2 forced transition at x/c =  1.0000   70

  81   rms: 0.2721E-01   max: 0.1257E+00   D at   58  1
       a =  9.500      CL =  0.9398
      Cm = -0.0554     CD =  0.07321   =>   CDf =  0.00667    CDp =  0.06655

 Side 1  free  transition at x/c =  0.4271   58
 Side 2 forced transition at x/c =  1.0000   70

  82   rms: 0.5077E-02   max: -.5188E-01   T at   58  1
       a =  9.500      CL =  0.9424
      Cm = -0.0552     CD =  0.07214   =>   CDf =  0.00667    CDp =  0.06547

 Side 1  free  transition at x/c =  0.4283   59
 Side 2 forced transition at x/c =  1.0000   70

  83   rms: 0.2721E-01   max: 0.1257E+00   D at   58  1
       a =  9.500      CL =  0.9398
      Cm = -0.0554     CD =  0.07321   =>   CDf =  0.00667    CDp =  0.06655

 Side 1  free  transition at x/c =  0.4271   58
 Side 2 forced transition at x/c =  1.0000   70

  84   rms: 0.5077E-02   max: -.5188E-01   T at   58  1
       a =  9.500      CL =  0.9424
      Cm = -0.0552     CD =  0.07214   =>   CDf =  0.00667    CDp =  0.06547

 Side 1  free  transition at x/c =  0.4283   59
 Side 2 forced transition at x/c =  1.0000   70

  85   rms: 0.2721E-01   max: 0.1257E+00   D at   58  1

[TIMEOUT]
