
 ===================================================
  XFOIL Version 6.99
  Copyright (C) 2000   Mark Drela, Harold Youngren

  This software comes with ABSOLUTELY NO WARRANTY,
    subject to the GNU General Public License.

  Caveat computor
 ===================================================

 File  xfoil.def  not found

   QUIT    Exit program

  .OPER    Direct operating point(s)
  .MDES    Complex mapping design routine
  .QDES    Surface speed design routine
  .GDES    Geometry design routine

   SAVE f  Write airfoil to labeled coordinate file
   PSAV f  Write airfoil to plain coordinate file
   ISAV f  Write airfoil to ISES coordinate file
   MSAV f  Write airfoil to MSES coordinate file
   REVE    Reverse written-airfoil node ordering

   LOAD f  Read buffer airfoil from coordinate file
   NACA i  Set NACA 4,5-digit airfoil and buffer airfoil
   INTE    Set buffer airfoil by interpolating two airfoils
   NORM    Buffer airfoil normalization toggle
   XYCM rr Change CM reference location, currently  0.25000 0.00000

   BEND    Display structural properties of current airfoil

   PCOP    Set current-airfoil panel nodes directly from buffer airfoil points
   PANE    Set current-airfoil panel nodes ( 160 ) based on curvature
  .PPAR    Show/change paneling

  .PLOP    Plotting options

   WDEF f  Write  current-settings file
   RDEF f  Reread current-settings file
   NAME s  Specify new airfoil name
   NINC    Increment name version number

   Z       Zoom    | (available in all menus)
   U       Unzoom  | 

 XFOIL   c>  
 Labeled airfoil file.  Name:   LNV109A                                        

 Number of input coordinate points: 101
 Counterclockwise ordering
 Max thickness =     0.129870  at x =   0.235
 Max camber    =     0.059816  at x =   0.315

  LE  x,y  =  -0.00000  -0.00016  |   Chord =   1.00000
  TE  x,y  =   1.00000   0.00000  |

 Current airfoil nodes set from buffer airfoil nodes ( 101 )

 XFOIL   c>  
 XFOIL   c>  
 Sharp trailing edge

 Paneling parameters used...
   Number of panel nodes       160
   Panel bunching parameter    1.000
   TE/LE panel density ratio   0.150
   Refined-area/LE panel density ratio    0.200
   Top    side refined area x/c limits  1.000 1.000
   Bottom side refined area x/c limits  1.000 1.000

 XFOIL   c>  
.OPERi   c>  
 Xtr/c     =  1.0000    top    side
 Xtr/c     =  1.0000    bottom side
 Ncrit     =    9.00   ( 0.070 % turb. level )
 Vacc      =  0.0100

 Klag  =  5.6000     Uxwt  =    1.00
 A     =  6.7000     B     =  0.7500       KCt = 0.01485
 CtiniK=  1.8000     CtiniX=  3.3000

..VPAR   c>  
..VPAR   c>  
.OPERi   c>  
 M  =    0.0000
 Re =    200000

.OPERv   c>  
.OPERv   c>  
.OPERv   c>  
 Polar  1 newly created for accumulation
 Airfoil archived with polar: LNV109A                                         

Enter  polar save filename  OR  <return> for no file   s>  
 New polar save file available

Enter  polar dump filename  OR  <return> for no file   s>  
 Polar dump file will NOT be written

 Polar accumulation enabled

.OPERva   c>   Calculating unit vorticity distributions ...
 Calculating wake trajectory ...
 Calculating source influence matrix ...

 Solving BL system ...

 Initializing BL ...
    side            1  ...
 MRCHUE: Inverse mode at  43     Hk =   3.800
 MRCHUE: Inverse mode at  44     Hk =   4.442
 MRCHUE: Inverse mode at  45     Hk =   5.102
 MRCHUE: Convergence failed at  46  side 1    Res =  0.2954E+01
 MRCHUE: Inverse mode at  47     Hk =   5.823
 MRCHUE: Inverse mode at  48     Hk =   6.549
 MRCHUE: Inverse mode at  49     Hk =   7.268
 MRCHUE: Inverse mode at  50     Hk =   7.975
 MRCHUE: Inverse mode at  51     Hk =   8.666
 MRCHUE: Inverse mode at  52     Hk =   9.341
 MRCHUE: Inverse mode at  53     Hk =   6.820
 MRCHUE: Inverse mode at  54     Hk =   4.860
 MRCHUE: Inverse mode at  55     Hk =   3.570
 MRCHUE: Inverse mode at  56     Hk =   2.614
    side            2  ...
 MRCHUE: Inverse mode at  26     Hk =   3.800
 MRCHUE: Inverse mode at  27     Hk =   4.374
 MRCHUE: Convergence failed at  28  side 2    Res =  0.8391E+01
 MRCHUE: Inverse mode at  29     Hk =   4.955
 MRCHUE: Convergence failed at  29  side 2    Res =  0.7696E+02
 MRCHUE: Inverse mode at  30     Hk =   4.984
 MRCHUE: Inverse mode at  31     Hk =   5.587
 MRCHUE: Convergence failed at  32  side 2    Res =  0.5365E+01
 MRCHUE: Inverse mode at  33     Hk =   6.237
 MRCHUE: Inverse mode at  34     Hk =   6.905
 MRCHUE: Inverse mode at  35     Hk =   7.602
 MRCHUE: Inverse mode at  36     Hk =   8.340
 MRCHUE: Inverse mode at  37     Hk =   8.097
 MRCHUE: Inverse mode at  38     Hk =   4.318
 MRCHUE: Inverse mode at  39     Hk =   2.500
 MRCHUE: Inverse mode at  40     Hk =   2.500
 MRCHUE: Inverse mode at  41     Hk =   2.500

 MRCHDU: Convergence failed at  29  side 2    Res =  0.2749E+02
 MRCHDU: Convergence failed at  30  side 2    Res =  0.3231E+01
 MRCHDU: Convergence failed at  31  side 2    Res =  0.2390E+01
 MRCHDU: Convergence failed at  32  side 2    Res =  0.4825E+01
 MRCHDU: Convergence failed at  33  side 2    Res =  0.6027E+01
 MRCHDU: Convergence failed at  34  side 2    Res =  0.9446E+01
 MRCHDU: Convergence failed at  35  side 2    Res =  0.4639E+02
 MRCHDU: Convergence failed at  36  side 2    Res =  0.1439E+02
 MRCHDU: Convergence failed at  37  side 2    Res =  0.1242E+02
 MRCHDU: Convergence failed at  38  side 2    Res =  0.2469E+02
 MRCHDU: Convergence failed at  39  side 2    Res =  0.4647E+02
 MRCHDU: Convergence failed at  40  side 2    Res =  0.4823E+02
 MRCHDU: Convergence failed at  41  side 2    Res =  0.5315E+03
 MRCHDU: Convergence failed at  42  side 2    Res =  0.5795E+02
 MRCHDU: Convergence failed at  43  side 2    Res =  0.1520E+02
 MRCHDU: Convergence failed at  44  side 2    Res =  0.1230E+02
 MRCHDU: Convergence failed at  45  side 2    Res =  0.1354E+02
 MRCHDU: Convergence failed at  46  side 2    Res =  0.1787E+02
 MRCHDU: Convergence failed at  47  side 2    Res =  0.1665E+02
 MRCHDU: Convergence failed at  48  side 2    Res =  0.2859E+03
 MRCHDU: Convergence failed at  49  side 2    Res =  0.3043E+02
 MRCHDU: Convergence failed at  50  side 2    Res =  0.2788E+02
 MRCHDU: Convergence failed at  51  side 2    Res =  0.3237E+02
 MRCHDU: Convergence failed at  52  side 2    Res =  0.3793E+02
 MRCHDU: Convergence failed at  53  side 2    Res =  0.4445E+02
 MRCHDU: Convergence failed at  54  side 2    Res =  0.5257E+02
 MRCHDU: Convergence failed at  55  side 2    Res =  0.6292E+02
 MRCHDU: Convergence failed at  56  side 2    Res =  0.7653E+02
 MRCHDU: Convergence failed at  57  side 2    Res =  0.9730E+02
 MRCHDU: Convergence failed at  58  side 2    Res =  0.1260E+03
 MRCHDU: Convergence failed at  59  side 2    Res =  0.1582E+03
 MRCHDU: Convergence failed at  60  side 2    Res =  0.1736E+03
 MRCHDU: Convergence failed at  61  side 2    Res =  0.1737E+03
 MRCHDU: Convergence failed at  62  side 2    Res =  0.1675E+03
 MRCHDU: Convergence failed at  63  side 2    Res =  0.1638E+03
 MRCHDU: Convergence failed at  64  side 2    Res =  0.1588E+03
 MRCHDU: Convergence failed at  65  side 2    Res =  0.1551E+03
 MRCHDU: Convergence failed at  66  side 2    Res =  0.1515E+03
 MRCHDU: Convergence failed at  67  side 2    Res =  0.1483E+03
 MRCHDU: Convergence failed at  68  side 2    Res =  0.3142E+02
 MRCHDU: Convergence failed at  69  side 2    Res =  0.3179E+02
 MRCHDU: Convergence failed at  70  side 2    Res =  0.3214E+02
 MRCHDU: Convergence failed at  71  side 2    Res =  0.3240E+02
 MRCHDU: Convergence failed at  72  side 2    Res =  0.3257E+02
 MRCHDU: Convergence failed at  73  side 2    Res =  0.3273E+02
 MRCHDU: Convergence failed at  74  side 2    Res =  0.3262E+02
 MRCHDU: Convergence failed at  75  side 2    Res =  0.3239E+02
 MRCHDU: Convergence failed at  76  side 2    Res =  0.3180E+02
 MRCHDU: Convergence failed at  77  side 2    Res =  0.3093E+02
 MRCHDU: Convergence failed at  78  side 2    Res =  0.2978E+02
 MRCHDU: Convergence failed at  79  side 2    Res =  0.2873E+03
 MRCHDU: Convergence failed at  80  side 2    Res =  0.8558E+02
 MRCHDU: Convergence failed at  81  side 2    Res =  0.5578E+02
 MRCHDU: Convergence failed at  82  side 2    Res =  0.4056E+02
 MRCHDU: Convergence failed at  83  side 2    Res =  0.3282E+02
 MRCHDU: Convergence failed at  84  side 2    Res =  0.3253E+02
 MRCHDU: Convergence failed at  85  side 2    Res =  0.1837E+02
 Side 1  free  transition at x/c =  0.5538   53
 Side 2  free  transition at x/c =  0.0936   39

   1   rms: 0.1440E+01   max: -.1213E+01   U at   85  2   RLX: 0.183
       a = -4.000      CL = -2.5865
      Cm =  0.6651     CD =  0.00972   =>   CDf =  0.00460    CDp =  0.00513

 Side 1  free  transition at x/c =  0.5433   52
 Side 2  free  transition at x/c =  0.0875   38

   2   rms: 0.3191E+01   max: 0.6250E+02   C at   38  2   RLX: 0.024
       a = -4.000      CL = -2.4594
      Cm =  0.6336     CD =  0.01317   =>   CDf =  0.02085    CDp = -0.00768

 Side 1  free  transition at x/c =  0.5406   52
 Side 2  free  transition at x/c =  0.0800   37

   3   rms: 0.1266E+01   max: 0.7845E+01   T at   37  2   RLX: 0.191
       a = -4.000      CL = -1.8920
      Cm =  0.4650     CD =  0.01387   =>   CDf =  0.02053    CDp = -0.00667

 MRCHDU: Convergence failed at  37  side 2    Res =  0.2595E+02
 Side 1  free  transition at x/c =  0.5262   51
 Side 2  free  transition at x/c =  0.0674   35

   4   rms: 0.9724E+00   max: 0.5773E+01   D at   38  2   RLX: 0.260
       a = -4.000      CL = -1.3292
      Cm =  0.2975     CD =  0.01698   =>   CDf =  0.01815    CDp = -0.00117

 Side 1  free  transition at x/c =  0.5131   51
 Side 2  free  transition at x/c =  0.0666   35

   5   rms: 0.7326E+00   max: -.5730E+00   U at   85  2   RLX: 0.394
       a = -4.000      CL = -0.7677
      Cm =  0.1365     CD =  0.02156   =>   CDf =  0.01452    CDp =  0.00705

 Side 1  free  transition at x/c =  0.5071   51
 Side 2  free  transition at x/c =  0.0718   36

   6   rms: 0.1016E+01   max: -.6501E+01   T at   36  2   RLX: 0.077
       a = -4.000      CL = -0.7148
      Cm =  0.1181     CD =  0.02341   =>   CDf =  0.01126    CDp =  0.01215

 Side 1  free  transition at x/c =  0.5064   51
 Side 2  free  transition at x/c =  0.0786   37

   7   rms: 0.1347E+01   max: 0.2009E+02   T at   37  2   RLX: 0.075
       a = -4.000      CL = -0.6570
      Cm =  0.1036     CD =  0.02215   =>   CDf =  0.01085    CDp =  0.01130

 MRCHDU: Convergence failed at  37  side 2    Res =  0.2759E+02
 MRCHDU: Convergence failed at  38  side 2    Res =  0.1470E+03
 MRCHDU: Convergence failed at  39  side 2    Res =  0.1037E+04
 MRCHDU: Convergence failed at  40  side 2    Res =  0.4714E+03
 MRCHDU: Convergence failed at  41  side 2    Res =  0.4963E+02
 MRCHDU: Convergence failed at  42  side 2    Res =  0.1091E+03
 MRCHDU: Convergence failed at  43  side 2    Res =  0.1157E+03
 MRCHDU: Convergence failed at  44  side 2    Res =  0.1347E+04
 MRCHDU: Convergence failed at  45  side 2    Res =  0.4361E+03
 MRCHDU: Convergence failed at  46  side 2    Res =  0.2449E+03
 MRCHDU: Convergence failed at  47  side 2    Res =  0.2021E+03
 MRCHDU: Convergence failed at  48  side 2    Res =  0.1985E+03
 MRCHDU: Convergence failed at  49  side 2    Res =  0.1604E+03
 MRCHDU: Convergence failed at  50  side 2    Res =  0.1731E+03
 MRCHDU: Convergence failed at  51  side 2    Res =  0.1792E+03
 MRCHDU: Convergence failed at  52  side 2    Res =  0.1910E+03
 MRCHDU: Convergence failed at  53  side 2    Res =  0.2196E+03
 MRCHDU: Convergence failed at  54  side 2    Res =  0.1548E+04
 MRCHDU: Convergence failed at  55  side 2    Res =  0.2583E+03
 MRCHDU: Convergence failed at  56  side 2    Res =  0.2547E+03
 MRCHDU: Convergence failed at  57  side 2    Res =  0.2489E+03
 MRCHDU: Convergence failed at  58  side 2    Res =  0.6798E+02
 MRCHDU: Convergence failed at  59  side 2    Res =  0.6785E+02
 MRCHDU: Convergence failed at  60  side 2    Res =  0.6821E+02
 MRCHDU: Convergence failed at  61  side 2    Res =  0.6885E+02
 MRCHDU: Convergence failed at  62  side 2    Res =  0.6956E+02
 MRCHDU: Convergence failed at  63  side 2    Res =  0.7023E+02
 MRCHDU: Convergence failed at  64  side 2    Res =  0.7281E+03
 MRCHDU: Convergence failed at  65  side 2    Res =  0.8512E+03
 MRCHDU: Convergence failed at  66  side 2    Res =  0.9939E+03
 MRCHDU: Convergence failed at  67  side 2    Res =  0.1139E+04
 MRCHDU: Convergence failed at  68  side 2    Res =  0.1275E+04
 MRCHDU: Convergence failed at  69  side 2    Res =  0.1381E+04
 MRCHDU: Convergence failed at  70  side 2    Res =  0.1417E+04
 MRCHDU: Convergence failed at  71  side 2    Res =  0.1403E+04
 MRCHDU: Convergence failed at  72  side 2    Res =  0.1289E+04
 MRCHDU: Convergence failed at  73  side 2    Res =  0.1170E+04
 MRCHDU: Convergence failed at  74  side 2    Res =  0.1005E+04
 MRCHDU: Convergence failed at  75  side 2    Res =  0.8528E+03
 MRCHDU: Convergence failed at  76  side 2    Res =  0.7051E+03
 MRCHDU: Convergence failed at  77  side 2    Res =  0.7030E+02
 MRCHDU: Convergence failed at  78  side 2    Res =  0.6928E+02
 MRCHDU: Convergence failed at  79  side 2    Res =  0.6818E+02
 MRCHDU: Convergence failed at  80  side 2    Res =  0.6672E+02
 MRCHDU: Convergence failed at  81  side 2    Res =  0.6514E+02
 MRCHDU: Convergence failed at  82  side 2    Res =  0.5783E+02
 MRCHDU: Convergence failed at  83  side 2    Res =  0.5986E+02
 MRCHDU: Convergence failed at  84  side 2    Res =  0.6182E+02
 MRCHDU: Convergence failed at  85  side 2    Res =  0.3174E+03
 Side 1  free  transition at x/c =  0.5059   51
 Side 2  free  transition at x/c =  0.0713   36

   8   rms: 0.1435E+01   max: -.1234E+02   T at   36  2   RLX: 0.041
       a = -4.000      CL = -2.2586
      Cm =  0.6066     CD =  0.01384   =>   CDf =  0.00450    CDp =  0.00935

 Side 1  free  transition at x/c =  0.5055   50
 Side 2  free  transition at x/c =  0.0747   36

   9   rms: 0.1197E+01   max: 0.1038E+02   T at   37  2   RLX: 0.087
       a = -4.000      CL = -1.5580
      Cm =  0.3678     CD =  0.06738   =>   CDf =  0.00497    CDp =  0.06241

 Side 1  free  transition at x/c =  0.5062   51
 Side 2  free  transition at x/c =  0.0750   36

  10   rms: 0.8571E+00   max: 0.3341E+01   T at   37  2   RLX: 0.309
       a = -4.000      CL = -1.1858
      Cm =  0.2557     CD =  0.07943   =>   CDf =  0.00515    CDp =  0.07428

 Side 1  free  transition at x/c =  0.5059   51
 Side 2  free  transition at x/c =  0.0738   36

  11   rms: 0.6033E+00   max: 0.2302E+01   D at   37  2   RLX: 0.422
       a = -4.000      CL = -0.5873
      Cm =  0.1019     CD =  0.08470   =>   CDf =  0.00562    CDp =  0.07908

 Side 1  free  transition at x/c =  0.5019   51
 Side 2  free  transition at x/c =  0.0735   35

  12   rms: 0.3683E+00   max: -.7097E+00   D at   85  2   RLX: 0.705
       a = -4.000      CL = -0.1590
      Cm =  0.0052     CD =  0.07964   =>   CDf =  0.00552    CDp =  0.07412

 Side 1  free  transition at x/c =  0.4958   52
 Side 2  free  transition at x/c =  0.0735   34

  13   rms: 0.1762E+00   max: -.6873E+00   D at   82  2   RLX: 0.727
       a = -4.000      CL = -0.0786
      Cm = -0.0199     CD =  0.07284   =>   CDf =  0.00508    CDp =  0.06776

 Side 1  free  transition at x/c =  0.4937   52
 Side 2  free  transition at x/c =  0.0697   34
 idif Ue xi dudx           1  0.11006016      3.32891941E-03   33.061825    
 Uenew xinew           2  1.76687427E-02  5.34415245E-04

  14   rms: 0.1379E+00   max: 0.7674E+00   T at   34  2   RLX: 0.937
       a = -4.000      CL = -0.1061
      Cm = -0.0244     CD =  0.06687   =>   CDf =  0.00476    CDp =  0.06210

 Side 1  free  transition at x/c =  0.4931   51
 Side 2  free  transition at x/c =  0.0675   34
 idif Ue xi dudx           1  0.11099563      3.28338146E-03   33.805279    
 Uenew xinew           2  1.34558473E-02  3.98039818E-04

  15   rms: 0.1006E+01   max: 0.4479E+01   T at   35  2   RLX: 0.254
       a = -4.000      CL = -0.1695
      Cm = -0.0339     CD =  0.07834   =>   CDf =  0.00461    CDp =  0.07372

 Side 1  free  transition at x/c =  0.4943   50
 Side 2  free  transition at x/c =  0.0667   35

  16   rms: 0.5751E+00   max: 0.2157E+01   D at   46  2   RLX: 0.695
       a = -4.000      CL = -0.0459
      Cm = -0.0482     CD =  0.05319   =>   CDf =  0.00660    CDp =  0.04659

 Side 1  free  transition at x/c =  0.4928   51
 Side 2  free  transition at x/c =  0.0780   36

  17   rms: 0.4697E+00   max: 0.2955E+01   D at   41  2   RLX: 0.508
       a = -4.000      CL = -0.0465
      Cm = -0.0525     CD =  0.03704   =>   CDf =  0.00824    CDp =  0.02880

 MRCHDU: Convergence failed at  41  side 2    Res =  0.3513E+01
 MRCHDU: Convergence failed at  42  side 2    Res =  0.9079E+02
 MRCHDU: Convergence failed at  43  side 2    Res =  0.2528E+01
 MRCHDU: Convergence failed at  44  side 2    Res =  0.2729E+01
 MRCHDU: Convergence failed at  45  side 2    Res =  0.3871E+01
 MRCHDU: Convergence failed at  46  side 2    Res =  0.5808E+01
 MRCHDU: Convergence failed at  47  side 2    Res =  0.8923E+01
 MRCHDU: Convergence failed at  48  side 2    Res =  0.1818E+02
 MRCHDU: Convergence failed at  49  side 2    Res =  0.5355E+02
 MRCHDU: Convergence failed at  50  side 2    Res =  0.1415E+03
 MRCHDU: Convergence failed at  51  side 2    Res =  0.6061E+02
 MRCHDU: Convergence failed at  52  side 2    Res =  0.4780E+02
 MRCHDU: Convergence failed at  53  side 2    Res =  0.4460E+02
 MRCHDU: Convergence failed at  54  side 2    Res =  0.4545E+02
 MRCHDU: Convergence failed at  55  side 2    Res =  0.6931E+02
 MRCHDU: Convergence failed at  56  side 2    Res =  0.7504E+02
 MRCHDU: Convergence failed at  57  side 2    Res =  0.7947E+02
 MRCHDU: Convergence failed at  58  side 2    Res =  0.5354E+02
 MRCHDU: Convergence failed at  59  side 2    Res =  0.4721E+02
 MRCHDU: Convergence failed at  60  side 2    Res =  0.3976E+02
 MRCHDU: Convergence failed at  61  side 2    Res =  0.3450E+02
 MRCHDU: Convergence failed at  62  side 2    Res =  0.3252E+02
 MRCHDU: Convergence failed at  63  side 2    Res =  0.3374E+02
 MRCHDU: Convergence failed at  64  side 2    Res =  0.3652E+02
 MRCHDU: Convergence failed at  65  side 2    Res =  0.4041E+02
 MRCHDU: Convergence failed at  66  side 2    Res =  0.4141E+02
 MRCHDU: Convergence failed at  67  side 2    Res =  0.4157E+02
 MRCHDU: Convergence failed at  68  side 2    Res =  0.4130E+02
 MRCHDU: Convergence failed at  69  side 2    Res =  0.4072E+02
 MRCHDU: Convergence failed at  70  side 2    Res =  0.3991E+02
 MRCHDU: Convergence failed at  71  side 2    Res =  0.3907E+02
 MRCHDU: Convergence failed at  72  side 2    Res =  0.3845E+02
 MRCHDU: Convergence failed at  73  side 2    Res =  0.3792E+02
 MRCHDU: Convergence failed at  74  side 2    Res =  0.3787E+02
 MRCHDU: Convergence failed at  75  side 2    Res =  0.3813E+02
 MRCHDU: Convergence failed at  76  side 2    Res =  0.3867E+02
 MRCHDU: Convergence failed at  77  side 2    Res =  0.4036E+02
 MRCHDU: Convergence failed at  78  side 2    Res =  0.4266E+02
 MRCHDU: Convergence failed at  79  side 2    Res =  0.4538E+02
 MRCHDU: Convergence failed at  80  side 2    Res =  0.4706E+02
 MRCHDU: Convergence failed at  81  side 2    Res =  0.5233E+02
 MRCHDU: Convergence failed at  82  side 2    Res =  0.5254E+02
 MRCHDU: Convergence failed at  83  side 2    Res =  0.4922E+02
 MRCHDU: Convergence failed at  84  side 2    Res =  0.1766E+02
 Side 1  free  transition at x/c =  0.4935   51
 Side 2  free  transition at x/c =  0.0825   36

  18   rms: 0.6330E+00   max: 0.7384E+01   T at   36  2   RLX: 0.126
       a = -4.000      CL = -0.7095
      Cm =  0.1744     CD =  0.02590   =>   CDf =  0.00474    CDp =  0.02116

 Side 1  free  transition at x/c =  0.4936   51
 Side 2  free  transition at x/c =  0.0777   36

  19   rms: 0.5065E+00   max: 0.5104E+00   T at   85  2   RLX: 0.806
       a = -4.000      CL = -0.1930
      Cm = -0.0199     CD =  0.03592   =>   CDf =  0.01029    CDp =  0.02563

 MRCHDU: Convergence failed at  46  side 2    Res =  0.2061E+01
 MRCHDU: Convergence failed at  47  side 2    Res =  0.2283E+01
 MRCHDU: Convergence failed at  48  side 2    Res =  0.2671E+01
 MRCHDU: Convergence failed at  49  side 2    Res =  0.6786E+01
 MRCHDU: Convergence failed at  50  side 2    Res =  0.4007E+03
 MRCHDU: Convergence failed at  51  side 2    Res =  0.1219E+02
 MRCHDU: Convergence failed at  52  side 2    Res =  0.7661E+01
 MRCHDU: Convergence failed at  53  side 2    Res =  0.6287E+01
 MRCHDU: Convergence failed at  54  side 2    Res =  0.5661E+01
 MRCHDU: Convergence failed at  55  side 2    Res =  0.5447E+01
 MRCHDU: Convergence failed at  56  side 2    Res =  0.5013E+01
 MRCHDU: Convergence failed at  57  side 2    Res =  0.4660E+01
 MRCHDU: Convergence failed at  58  side 2    Res =  0.4573E+01
 MRCHDU: Convergence failed at  59  side 2    Res =  0.4471E+01
 MRCHDU: Convergence failed at  60  side 2    Res =  0.3828E+01
 MRCHDU: Convergence failed at  61  side 2    Res =  0.4169E+01
 MRCHDU: Convergence failed at  62  side 2    Res =  0.4839E+01
 MRCHDU: Convergence failed at  63  side 2    Res =  0.5303E+01
 MRCHDU: Convergence failed at  64  side 2    Res =  0.5820E+01
 MRCHDU: Convergence failed at  65  side 2    Res =  0.7015E+01
 MRCHDU: Convergence failed at  66  side 2    Res =  0.8501E+01
 MRCHDU: Convergence failed at  67  side 2    Res =  0.9578E+01
 MRCHDU: Convergence failed at  68  side 2    Res =  0.1237E+02
 MRCHDU: Convergence failed at  69  side 2    Res =  0.1437E+02
 MRCHDU: Convergence failed at  70  side 2    Res =  0.1691E+02
 MRCHDU: Convergence failed at  71  side 2    Res =  0.2015E+02
 MRCHDU: Convergence failed at  72  side 2    Res =  0.2447E+02
 MRCHDU: Convergence failed at  73  side 2    Res =  0.9075E+02
 MRCHDU: Convergence failed at  74  side 2    Res =  0.2246E+03
 MRCHDU: Convergence failed at  75  side 2    Res =  0.9510E+03
 MRCHDU: Convergence failed at  76  side 2    Res =  0.1819E+03
 MRCHDU: Convergence failed at  77  side 2    Res =  0.1161E+03
 MRCHDU: Convergence failed at  78  side 2    Res =  0.9438E+02
 MRCHDU: Convergence failed at  79  side 2    Res =  0.8870E+02
 MRCHDU: Convergence failed at  80  side 2    Res =  0.9450E+02
 MRCHDU: Convergence failed at  81  side 2    Res =  0.2207E+04
 MRCHDU: Convergence failed at  82  side 2    Res =  0.3082E+03
 MRCHDU: Convergence failed at  83  side 2    Res =  0.8027E+02
 MRCHDU: Convergence failed at  84  side 2    Res =  0.3133E+02
 Side 1  free  transition at x/c =  0.4942   51
 Side 2  free  transition at x/c =  0.0744   35

  20   rms: 0.3658E+00   max: 0.6862E+00   D at   95  2
       a = -4.000      CL =  0.0139
      Cm = -0.0441     CD =  0.05146   =>   CDf =  0.00463    CDp =  0.04683

 Side 1  free  transition at x/c =  0.4917   52
 Side 2  free  transition at x/c =  0.0732   34

  21   rms: 0.4705E+00   max: 0.3788E+01   T at   34  2   RLX: 0.368
       a = -4.000      CL = -0.0633
      Cm = -0.0182     CD =  0.07057   =>   CDf =  0.00512    CDp =  0.06544

 MRCHDU: Convergence failed at  70  side 2    Res =  0.2899E+01
 MRCHDU: Convergence failed at  71  side 2    Res =  0.1700E+01
 MRCHDU: Convergence failed at  72  side 2    Res =  0.1161E+01
 MRCHDU: Convergence failed at  73  side 2    Res =  0.1110E+01
 MRCHDU: Convergence failed at  74  side 2    Res =  0.1465E+01
 MRCHDU: Convergence failed at  75  side 2    Res =  0.1857E+01
 MRCHDU: Convergence failed at  76  side 2    Res =  0.2386E+01
 MRCHDU: Convergence failed at  77  side 2    Res =  0.3201E+01
 MRCHDU: Convergence failed at  78  side 2    Res =  0.4659E+01
 MRCHDU: Convergence failed at  79  side 2    Res =  0.7175E+01
 MRCHDU: Convergence failed at  80  side 2    Res =  0.1524E+02
 MRCHDU: Convergence failed at  81  side 2    Res =  0.6454E+02
 MRCHDU: Convergence failed at  82  side 2    Res =  0.4144E+02
 MRCHDU: Convergence failed at  83  side 2    Res =  0.2485E+02
 Side 1  free  transition at x/c =  0.4919   52
 Side 2  free  transition at x/c =  0.0672   33

  22   rms: 0.1699E+00   max: 0.1030E+01   T at   35  2   RLX: 0.846
       a = -4.000      CL = -0.0238
      Cm = -0.0239     CD =  0.07307   =>   CDf =  0.00468    CDp =  0.06838

 Side 1  free  transition at x/c =  0.4913   52
 Side 2  free  transition at x/c =  0.0670   33
 idif Ue xi dudx           1  0.11966917      3.44681740E-03   34.718742    
 Uenew xinew           2  2.26474945E-02  6.52313232E-04

  23   rms: 0.3101E+00   max: 0.1431E+01   D at   56  2
       a = -4.000      CL = -0.0521
      Cm = -0.0443     CD =  0.06376   =>   CDf =  0.00633    CDp =  0.05744

 MRCHDU: Convergence failed at  57  side 2    Res =  0.1734E+01
 MRCHDU: Convergence failed at  58  side 2    Res =  0.1861E+02
 MRCHDU: Convergence failed at  59  side 2    Res =  0.6276E+01
 MRCHDU: Convergence failed at  60  side 2    Res =  0.3218E+01
 MRCHDU: Convergence failed at  61  side 2    Res =  0.2448E+01
 MRCHDU: Convergence failed at  62  side 2    Res =  0.2072E+01
 MRCHDU: Convergence failed at  63  side 2    Res =  0.1826E+01
 MRCHDU: Convergence failed at  64  side 2    Res =  0.1690E+01
 MRCHDU: Convergence failed at  65  side 2    Res =  0.1140E+01
 MRCHDU: Convergence failed at  66  side 2    Res =  0.1080E+01
 MRCHDU: Convergence failed at  67  side 2    Res =  0.1032E+01
 Side 1  free  transition at x/c =  0.4926   51
 Side 2  free  transition at x/c =  0.0747   35

  24   rms: 0.3257E+00   max: 0.1944E+01   D at   55  2   RLX: 0.528
       a = -4.000      CL = -0.0891
      Cm = -0.0229     CD =  0.07127   =>   CDf =  0.00492    CDp =  0.06635

 MRCHDU: Convergence failed at  54  side 2    Res =  0.1408E+01
 Side 1  free  transition at x/c =  0.4922   52
 Side 2  free  transition at x/c =  0.0666   33

  25   rms: 0.9830E-01   max: 0.7840E+00   T at   34  2   RLX: 0.944
       a = -4.000      CL = -0.0569
      Cm = -0.0273     CD =  0.07140   =>   CDf =  0.00470    CDp =  0.06670

 Side 1  free  transition at x/c =  0.4921   52
 Side 2  free  transition at x/c =  0.0669   33

  26   rms: 0.7164E-01   max: -.3859E+00   D at   33  2
       a = -4.000      CL = -0.0322
      Cm = -0.0384     CD =  0.06607   =>   CDf =  0.00500    CDp =  0.06106

 Side 1  free  transition at x/c =  0.4921   52
 Side 2  free  transition at x/c =  0.0761   35
 idif Ue xi dudx           1  0.11020207      3.17895412E-03   34.666138    
 Uenew xinew           2  1.33273955E-02  3.84449959E-04

  27   rms: 0.3123E+00   max: 0.1307E+01   T at   35  2
       a = -4.000      CL = -0.0303
      Cm = -0.0460     CD =  0.06585   =>   CDf =  0.00607    CDp =  0.05977

 Side 1  free  transition at x/c =  0.4923   51
 Side 2  free  transition at x/c =  0.0737   35

  28   rms: 0.4627E+00   max: 0.1989E+01   D at   50  2   RLX: 0.754
       a = -4.000      CL = -0.0341
      Cm = -0.0448     CD =  0.06178   =>   CDf =  0.00615    CDp =  0.05563

 MRCHDU: Convergence failed at  49  side 2    Res =  0.1004E+01
 MRCHDU: Convergence failed at  50  side 2    Res =  0.1442E+01
 MRCHDU: Convergence failed at  51  side 2    Res =  0.2429E+01
 MRCHDU: Convergence failed at  52  side 2    Res =  0.4320E+01
 MRCHDU: Convergence failed at  53  side 2    Res =  0.3912E+01
 MRCHDU: Convergence failed at  54  side 2    Res =  0.9595E+00
 MRCHDU: Convergence failed at  55  side 2    Res =  0.9736E+00
 MRCHDU: Convergence failed at  56  side 2    Res =  0.1313E+01
 MRCHDU: Convergence failed at  57  side 2    Res =  0.1934E+01
 MRCHDU: Convergence failed at  58  side 2    Res =  0.3466E+01
 MRCHDU: Convergence failed at  59  side 2    Res =  0.1181E+02
 MRCHDU: Convergence failed at  60  side 2    Res =  0.1395E+02
 MRCHDU: Convergence failed at  61  side 2    Res =  0.5004E+01
 MRCHDU: Convergence failed at  62  side 2    Res =  0.3487E+01
 MRCHDU: Convergence failed at  63  side 2    Res =  0.3553E+01
 MRCHDU: Convergence failed at  64  side 2    Res =  0.3300E+01
 MRCHDU: Convergence failed at  65  side 2    Res =  0.2831E+01
 MRCHDU: Convergence failed at  66  side 2    Res =  0.2571E+01
 MRCHDU: Convergence failed at  67  side 2    Res =  0.2360E+01
 MRCHDU: Convergence failed at  68  side 2    Res =  0.2266E+01
 MRCHDU: Convergence failed at  69  side 2    Res =  0.2189E+01
 MRCHDU: Convergence failed at  70  side 2    Res =  0.2343E+01
 MRCHDU: Convergence failed at  71  side 2    Res =  0.2610E+01
 MRCHDU: Convergence failed at  72  side 2    Res =  0.2927E+01
 MRCHDU: Convergence failed at  73  side 2    Res =  0.3295E+01
 MRCHDU: Convergence failed at  74  side 2    Res =  0.3724E+01
 MRCHDU: Convergence failed at  75  side 2    Res =  0.4246E+01
 MRCHDU: Convergence failed at  76  side 2    Res =  0.4828E+01
 MRCHDU: Convergence failed at  77  side 2    Res =  0.5495E+01
 MRCHDU: Convergence failed at  78  side 2    Res =  0.6201E+01
 MRCHDU: Convergence failed at  79  side 2    Res =  0.7098E+01
 MRCHDU: Convergence failed at  80  side 2    Res =  0.7656E+01
 MRCHDU: Convergence failed at  81  side 2    Res =  0.8070E+01
 MRCHDU: Convergence failed at  82  side 2    Res =  0.8090E+01
 MRCHDU: Convergence failed at  83  side 2    Res =  0.7994E+01
 MRCHDU: Convergence failed at  84  side 2    Res =  0.6913E+01
 Side 1  free  transition at x/c =  0.4922   51
 Side 2  free  transition at x/c =  0.0694   35

  29   rms: 0.2148E+00   max: 0.4895E+00   D at   97  2
       a = -4.000      CL =  0.0054
      Cm = -0.0470     CD =  0.05579   =>   CDf =  0.00471    CDp =  0.05107

 Side 1  free  transition at x/c =  0.4916   52
 Side 2  free  transition at x/c =  0.0707   34

  30   rms: 0.9015E-01   max: 0.5191E+00   D at   53  2
       a = -4.000      CL = -0.0605
      Cm = -0.0242     CD =  0.06972   =>   CDf =  0.00498    CDp =  0.06474

 Side 1  free  transition at x/c =  0.4921   52
 Side 2  free  transition at x/c =  0.0685   34

  31   rms: 0.4229E-01   max: -.1869E+00   D at   83  2
       a = -4.000      CL = -0.0551
      Cm = -0.0275     CD =  0.06720   =>   CDf =  0.00474    CDp =  0.06246

 Side 1  free  transition at x/c =  0.4921   52
 Side 2  free  transition at x/c =  0.0690   34

  32   rms: 0.1104E-01   max: -.5881E-01   T at   34  2
       a = -4.000      CL = -0.0518
      Cm = -0.0288     CD =  0.06705   =>   CDf =  0.00479    CDp =  0.06226

 Side 1  free  transition at x/c =  0.4921   52
 Side 2  free  transition at x/c =  0.0692   34

  33   rms: 0.1426E-02   max: -.4943E-02   D at   34  2
       a = -4.000      CL = -0.0516
      Cm = -0.0290     CD =  0.06714   =>   CDf =  0.00481    CDp =  0.06233

 Side 1  free  transition at x/c =  0.4921   52
 Side 2  free  transition at x/c =  0.0692   34

  34   rms: 0.6368E-04   max: -.3708E-03   D at   63  2
       a = -4.000      CL = -0.0516
      Cm = -0.0290     CD =  0.06715   =>   CDf =  0.00481    CDp =  0.06234
 plradd ia,ip,cpol            1           0  1.18929353E-02

 Point added to stored polar  1
 Point written to save file  lnv109a_Re200k.base.pol                         
 Dump file unspecified or not available
 Calculating wake trajectory ...
 Calculating source influence matrix ...

 Solving BL system ...

 Side 1  free  transition at x/c =  0.4921   52
 Side 2  free  transition at x/c =  0.0692   34

   1   rms: 0.6736E-01   max: -.5634E+00   T at   34  2   RLX: 0.887
       a = -3.500      CL = -0.0189
      Cm = -0.0301     CD =  0.06336   =>   CDf =  0.00481    CDp =  0.05855

 Side 1  free  transition at x/c =  0.4898   52
 Side 2  free  transition at x/c =  0.0710   34

   2   rms: 0.5246E-01   max: -.2366E+00   D at   34  2
       a = -3.500      CL = -0.0143
      Cm = -0.0318     CD =  0.06279   =>   CDf =  0.00476    CDp =  0.05803

 Side 1  free  transition at x/c =  0.4895   52
 Side 2  free  transition at x/c =  0.0722   34

   3   rms: 0.1362E-01   max: -.1339E+00   T at   34  2
       a = -3.500      CL = -0.0084
      Cm = -0.0336     CD =  0.06241   =>   CDf =  0.00487    CDp =  0.05754

 Side 1  free  transition at x/c =  0.4895   52
 Side 2  free  transition at x/c =  0.0731   34

   4   rms: 0.6988E-02   max: -.5252E-01   T at   34  2
       a = -3.500      CL = -0.0073
      Cm = -0.0342     CD =  0.06234   =>   CDf =  0.00490    CDp =  0.05744

 Side 1  free  transition at x/c =  0.4895   52
 Side 2  free  transition at x/c =  0.0733   34

   5   rms: 0.2380E-02   max: -.2072E-01   T at   34  2
       a = -3.500      CL = -0.0069
      Cm = -0.0344     CD =  0.06234   =>   CDf =  0.00491    CDp =  0.05742

 Side 1  free  transition at x/c =  0.4895   52
 Side 2  free  transition at x/c =  0.0734   34

   6   rms: 0.5244E-03   max: -.4923E-02   T at   34  2
       a = -3.500      CL = -0.0068
      Cm = -0.0345     CD =  0.06234   =>   CDf =  0.00492    CDp =  0.05742

 Side 1  free  transition at x/c =  0.4895   52
 Side 2  free  transition at x/c =  0.0735   34

   7   rms: 0.6393E-04   max: -.6222E-03   T at   34  2
       a = -3.500      CL = -0.0067
      Cm = -0.0345     CD =  0.06234   =>   CDf =  0.00492    CDp =  0.05743
 plradd ia,ip,cpol            2           0  1.18929353E-02

 Point added to stored polar  1
 Point written to save file  lnv109a_Re200k.base.pol                         
 Dump file unspecified or not available
 Calculating wake trajectory ...
 Calculating source influence matrix ...

 Solving BL system ...

 Side 1  free  transition at x/c =  0.4895   52
 Side 2  free  transition at x/c =  0.0735   34

   1   rms: 0.3643E+00   max: -.4282E+01   T at   34  2   RLX: 0.117
       a = -3.000      CL =  0.0048
      Cm = -0.0385     CD =  0.06088   =>   CDf =  0.00492    CDp =  0.05596

 Side 1  free  transition at x/c =  0.4893   52
 Side 2  free  transition at x/c =  0.0736   34

   2   rms: 0.7696E-01   max: -.5048E+00   T at   34  2   RLX: 0.990
       a = -3.000      CL =  0.0526
      Cm = -0.0449     CD =  0.05627   =>   CDf =  0.00499    CDp =  0.05128

 Side 1  free  transition at x/c =  0.4872   53
 Side 2  free  transition at x/c =  0.0745   33
 idif Ue xi dudx           1  0.10770615      2.93016434E-03   36.757717    
 Uenew xinew           2  8.00566096E-03  2.17795372E-04

   3   rms: 0.1064E+00   max: 0.4229E+00   T at   34  2
       a = -3.000      CL =  0.0698
      Cm = -0.0518     CD =  0.05419   =>   CDf =  0.00520    CDp =  0.04899

 Side 1  free  transition at x/c =  0.4872   52
 Side 2  free  transition at x/c =  0.0962   37

   4   rms: 0.1412E+01   max: 0.1347E+02   D at   37  2   RLX: 0.111
       a = -3.000      CL =  0.0677
      Cm = -0.0532     CD =  0.02872   =>   CDf =  0.00852    CDp =  0.02020

 Side 1  free  transition at x/c =  0.4872   52
 Side 2  free  transition at x/c =  0.0932   36

   5   rms: 0.9010E+00   max: 0.5171E+01   D at   37  2   RLX: 0.290
       a = -3.000      CL =  0.0656
      Cm = -0.0537     CD =  0.03610   =>   CDf =  0.00786    CDp =  0.02824

 Side 1  free  transition at x/c =  0.4872   52
 Side 2  free  transition at x/c =  0.0906   36

   6   rms: 0.5820E+00   max: 0.2496E+01   T at   36  2   RLX: 0.601
       a = -3.000      CL =  0.0602
      Cm = -0.0504     CD =  0.04910   =>   CDf =  0.00664    CDp =  0.04246

 Side 1  free  transition at x/c =  0.4871   53
 Side 2  free  transition at x/c =  0.0821   34

   7   rms: 0.4356E+00   max: 0.2356E+01   T at   34  2   RLX: 0.271
       a = -3.000      CL =  0.0401
      Cm = -0.0436     CD =  0.05299   =>   CDf =  0.00554    CDp =  0.04744

 Side 1  free  transition at x/c =  0.4870   53
 Side 2  free  transition at x/c =  0.0756   34

   8   rms: 0.1051E+00   max: -.6502E+00   D at   35  2   RLX: 0.769
       a = -3.000      CL =  0.0226
      Cm = -0.0371     CD =  0.06221   =>   CDf =  0.00486    CDp =  0.05736

 Side 1  free  transition at x/c =  0.4871   53
 Side 2  free  transition at x/c =  0.0757   34

   9   rms: 0.5076E-01   max: -.3799E+00   T at   34  2
       a = -3.000      CL =  0.0411
      Cm = -0.0397     CD =  0.05697   =>   CDf =  0.00511    CDp =  0.05187

 Side 1  free  transition at x/c =  0.4871   53
 Side 2  free  transition at x/c =  0.0764   34

  10   rms: 0.4677E-01   max: -.1847E+00   D at   34  2
       a = -3.000      CL =  0.0406
      Cm = -0.0406     CD =  0.05658   =>   CDf =  0.00499    CDp =  0.05160

 Side 1  free  transition at x/c =  0.4871   53
 Side 2  free  transition at x/c =  0.0769   34

  11   rms: 0.7347E-02   max: -.5075E-01   T at   34  2
       a = -3.000      CL =  0.0427
      Cm = -0.0409     CD =  0.05672   =>   CDf =  0.00509    CDp =  0.05163

 Side 1  free  transition at x/c =  0.4871   53
 Side 2  free  transition at x/c =  0.0771   34

  12   rms: 0.9091E-03   max: -.3632E-02   T at   34  2
       a = -3.000      CL =  0.0429
      Cm = -0.0410     CD =  0.05675   =>   CDf =  0.00510    CDp =  0.05164

 Side 1  free  transition at x/c =  0.4871   53
 Side 2  free  transition at x/c =  0.0771   34

  13   rms: 0.3286E-04   max: -.2392E-03   T at   34  2
       a = -3.000      CL =  0.0430
      Cm = -0.0410     CD =  0.05675   =>   CDf =  0.00511    CDp =  0.05164
 plradd ia,ip,cpol            3           0  1.18929353E-02

 Point added to stored polar  1
 Point written to save file  lnv109a_Re200k.base.pol                         
 Dump file unspecified or not available
 Calculating wake trajectory ...
 Calculating source influence matrix ...

 Solving BL system ...

 Side 1  free  transition at x/c =  0.4871   53
 Side 2  free  transition at x/c =  0.0771   34

   1   rms: 0.7665E-01   max: -.6761E+00   T at   34  2   RLX: 0.740
       a = -2.500      CL =  0.0731
      Cm = -0.0413     CD =  0.05459   =>   CDf =  0.00511    CDp =  0.04949

 Side 1  free  transition at x/c =  0.4852   52
 Side 2  free  transition at x/c =  0.0796   34

   2   rms: 0.6722E-01   max: -.4486E+00   T at   34  2
       a = -2.500      CL =  0.0898
      Cm = -0.0445     CD =  0.05324   =>   CDf =  0.00501    CDp =  0.04823

 Side 1  free  transition at x/c =  0.4840   52
 Side 2  free  transition at x/c =  0.0825   34

   3   rms: 0.1815E+00   max: 0.1635E+01   T at   34  2   RLX: 0.372
       a = -2.500      CL =  0.0709
      Cm = -0.0384     CD =  0.05666   =>   CDf =  0.00504    CDp =  0.05162

 Side 1  free  transition at x/c =  0.4839   52
 Side 2  free  transition at x/c =  0.0784   34

   4   rms: 0.1169E+00   max: -.4587E+00   D at   35  2
       a = -2.500      CL =  0.0720
      Cm = -0.0409     CD =  0.05442   =>   CDf =  0.00475    CDp =  0.04967

 Side 1  free  transition at x/c =  0.4841   52
 Side 2  free  transition at x/c =  0.0798   34

   5   rms: 0.3882E-01   max: -.5556E+00   T at   34  2   RLX: 0.900
       a = -2.500      CL =  0.0934
      Cm = -0.0444     CD =  0.05359   =>   CDf =  0.00508    CDp =  0.04852

 Side 1  free  transition at x/c =  0.4839   52
 Side 2  free  transition at x/c =  0.0825   34

   6   rms: 0.6089E+00   max: 0.4819E+01   T at   34  2   RLX: 0.118
       a = -2.500      CL =  0.0659
      Cm = -0.0372     CD =  0.05847   =>   CDf =  0.00503    CDp =  0.05344

 Side 1  free  transition at x/c =  0.4839   52
 Side 2  free  transition at x/c =  0.0781   34

   7   rms: 0.1246E+00   max: -.4916E+00   D at   35  2
       a = -2.500      CL =  0.0669
      Cm = -0.0399     CD =  0.05483   =>   CDf =  0.00472    CDp =  0.05011

 Side 1  free  transition at x/c =  0.4841   52
 Side 2  free  transition at x/c =  0.0791   34

   8   rms: 0.3743E-01   max: -.5557E+00   T at   34  2   RLX: 0.900
       a = -2.500      CL =  0.0920
      Cm = -0.0438     CD =  0.05378   =>   CDf =  0.00508    CDp =  0.04870

 Side 1  free  transition at x/c =  0.4839   52
 Side 2  free  transition at x/c =  0.0822   34

   9   rms: 0.2091E+01   max: -.2009E+02   T at   34  2   RLX: 0.025
       a = -2.500      CL =  0.0924
      Cm = -0.0461     CD =  0.05784   =>   CDf =  0.00502    CDp =  0.05282

 Side 1  free  transition at x/c =  0.4838   52
 Side 2  free  transition at x/c =  0.0810   34

  10   rms: 0.4419E-01   max: -.5098E+00   D at   34  2   RLX: 0.981
       a = -2.500      CL =  0.1009
      Cm = -0.0458     CD =  0.05428   =>   CDf =  0.00527    CDp =  0.04901

 Side 1  free  transition at x/c =  0.4837   52
 Side 2  free  transition at x/c =  0.0830   34

  11   rms: 0.6313E+00   max: -.3674E+01   T at   35  2   RLX: 0.136
       a = -2.500      CL =  0.0782
      Cm = -0.0387     CD =  0.05738   =>   CDf =  0.00516    CDp =  0.05222

 Side 1  free  transition at x/c =  0.4837   52
 Side 2  free  transition at x/c =  0.0779   34

  12   rms: 0.1164E+00   max: -.4549E+00   D at   34  2
       a = -2.500      CL =  0.0739
      Cm = -0.0400     CD =  0.05497   =>   CDf =  0.00475    CDp =  0.05022

 Side 1  free  transition at x/c =  0.4840   52
 Side 2  free  transition at x/c =  0.0795   34

  13   rms: 0.3819E-01   max: -.5500E+00   T at   34  2   RLX: 0.909
       a = -2.500      CL =  0.0937
      Cm = -0.0441     CD =  0.05369   =>   CDf =  0.00510    CDp =  0.04859

 Side 1  free  transition at x/c =  0.4838   52
 Side 2  free  transition at x/c =  0.0824   34

  14   rms: 0.5572E+00   max: 0.4733E+01   T at   34  2   RLX: 0.126
       a = -2.500      CL =  0.0673
      Cm = -0.0373     CD =  0.05827   =>   CDf =  0.00503    CDp =  0.05324

 Side 1  free  transition at x/c =  0.4838   52
 Side 2  free  transition at x/c =  0.0781   34

  15   rms: 0.1232E+00   max: -.4969E+00   D at   35  2
       a = -2.500      CL =  0.0682
      Cm = -0.0399     CD =  0.05482   =>   CDf =  0.00473    CDp =  0.05009

 Side 1  free  transition at x/c =  0.4841   52
 Side 2  free  transition at x/c =  0.0792   34

  16   rms: 0.3755E-01   max: -.5537E+00   T at   34  2   RLX: 0.903
       a = -2.500      CL =  0.0923
      Cm = -0.0438     CD =  0.05377   =>   CDf =  0.00509    CDp =  0.04868

 Side 1  free  transition at x/c =  0.4838   52
 Side 2  free  transition at x/c =  0.0822   34

  17   rms: 0.2305E+01   max: 0.2183E+02   T at   34  2   RLX: 0.031
       a = -2.500      CL =  0.0656
      Cm = -0.0369     CD =  0.05855   =>   CDf =  0.00502    CDp =  0.05353

 Side 1  free  transition at x/c =  0.4839   52
 Side 2  free  transition at x/c =  0.0778   34

  18   rms: 0.1255E+00   max: -.5198E+00   D at   35  2   RLX: 0.962
       a = -2.500      CL =  0.0641
      Cm = -0.0388     CD =  0.05565   =>   CDf =  0.00472    CDp =  0.05093

 Side 1  free  transition at x/c =  0.4841   52
 Side 2  free  transition at x/c =  0.0788   34

  19   rms: 0.4119E-01   max: -.5532E+00   T at   34  2   RLX: 0.904
       a = -2.500      CL =  0.0906
      Cm = -0.0433     CD =  0.05398   =>   CDf =  0.00506    CDp =  0.04892

 Side 1  free  transition at x/c =  0.4838   52
 Side 2  free  transition at x/c =  0.0819   34

  20   rms: 0.2157E+00   max: -.2084E+01   T at   34  2   RLX: 0.240
       a = -2.500      CL =  0.0932
      Cm = -0.0459     CD =  0.05661   =>   CDf =  0.00501    CDp =  0.05160

 Side 1  free  transition at x/c =  0.4839   52
 Side 2  free  transition at x/c =  0.0811   34

  21   rms: 0.3089E-01   max: -.4852E+00   D at   34  2
       a = -2.500      CL =  0.1013
      Cm = -0.0460     CD =  0.05399   =>   CDf =  0.00523    CDp =  0.04876

 Side 1  free  transition at x/c =  0.4837   52
 Side 2  free  transition at x/c =  0.0832   34

  22   rms: 0.2402E+00   max: -.1505E+01   T at   35  2   RLX: 0.332
       a = -2.500      CL =  0.0784
      Cm = -0.0391     CD =  0.05740   =>   CDf =  0.00514    CDp =  0.05226

 Side 1  free  transition at x/c =  0.4838   52
 Side 2  free  transition at x/c =  0.0787   34

  23   rms: 0.1116E+00   max: -.4096E+00   D at   73  2
       a = -2.500      CL =  0.0767
      Cm = -0.0416     CD =  0.05428   =>   CDf =  0.00477    CDp =  0.04951

 Side 1  free  transition at x/c =  0.4840   52
 Side 2  free  transition at x/c =  0.0803   34

  24   rms: 0.4113E-01   max: -.6068E+00   T at   34  2   RLX: 0.824
       a = -2.500      CL =  0.0954
      Cm = -0.0449     CD =  0.05351   =>   CDf =  0.00510    CDp =  0.04841

 Side 1  free  transition at x/c =  0.4839   52
 Side 2  free  transition at x/c =  0.0825   34

  25   rms: 0.4100E+00   max: -.2704E+01   T at   34  2   RLX: 0.185
       a = -2.500      CL =  0.1004
      Cm = -0.0494     CD =  0.05669   =>   CDf =  0.00506    CDp =  0.05164

 Side 1  free  transition at x/c =  0.4839   52
 Side 2  free  transition at x/c =  0.0812   34

  26   rms: 0.1419E+00   max: 0.5210E+00   D at   50  2   RLX: 0.992
       a = -2.500      CL =  0.1043
      Cm = -0.0462     CD =  0.05568   =>   CDf =  0.00556    CDp =  0.05012

 Side 1  free  transition at x/c =  0.4836   52
 Side 2  free  transition at x/c =  0.0826   34

  27   rms: 0.1976E+00   max: -.1390E+01   T at   34  2   RLX: 0.360
       a = -2.500      CL =  0.1236
      Cm = -0.0501     CD =  0.05323   =>   CDf =  0.00531    CDp =  0.04792

 Side 1  free  transition at x/c =  0.4837   52
 Side 2  free  transition at x/c =  0.0815   34

  28   rms: 0.2491E+00   max: 0.8090E+00   D at   48  2
       a = -2.500      CL =  0.1041
      Cm = -0.0477     CD =  0.05653   =>   CDf =  0.00591    CDp =  0.05062

 Side 1  free  transition at x/c =  0.4836   52
 Side 2  free  transition at x/c =  0.0826   34

  29   rms: 0.5397E+00   max: 0.4766E+01   T at   34  2   RLX: 0.152
       a = -2.500      CL =  0.1076
      Cm = -0.0448     CD =  0.04985   =>   CDf =  0.00551    CDp =  0.04434

 Side 1  free  transition at x/c =  0.4837   52
 Side 2  free  transition at x/c =  0.0773   34

  30   rms: 0.8110E-01   max: -.4984E+00   T at   34  2
       a = -2.500      CL =  0.0872
      Cm = -0.0402     CD =  0.05541   =>   CDf =  0.00488    CDp =  0.05053

 Side 1  free  transition at x/c =  0.4837   52
 Side 2  free  transition at x/c =  0.0800   34

  31   rms: 0.5304E-01   max: -.4430E+00   T at   34  2
       a = -2.500      CL =  0.0939
      Cm = -0.0444     CD =  0.05364   =>   CDf =  0.00503    CDp =  0.04862

 Side 1  free  transition at x/c =  0.4838   52
 Side 2  free  transition at x/c =  0.0828   34

  32   rms: 0.1187E+00   max: -.8650E+00   T at   35  2   RLX: 0.578
       a = -2.500      CL =  0.0760
      Cm = -0.0390     CD =  0.05576   =>   CDf =  0.00506    CDp =  0.05069

 Side 1  free  transition at x/c =  0.4839   52
 Side 2  free  transition at x/c =  0.0790   34

  33   rms: 0.1109E+00   max: -.4111E+00   D at   73  2
       a = -2.500      CL =  0.0761
      Cm = -0.0418     CD =  0.05414   =>   CDf =  0.00478    CDp =  0.04936

 Side 1  free  transition at x/c =  0.4840   52
 Side 2  free  transition at x/c =  0.0804   34

  34   rms: 0.4435E-01   max: -.6337E+00   T at   34  2   RLX: 0.789
       a = -2.500      CL =  0.0952
      Cm = -0.0450     CD =  0.05352   =>   CDf =  0.00509    CDp =  0.04843

 Side 1  free  transition at x/c =  0.4839   52
 Side 2  free  transition at x/c =  0.0825   34

  35   rms: 0.2472E+00   max: -.1574E+01   T at   34  2   RLX: 0.318
       a = -2.500      CL =  0.1017
      Cm = -0.0497     CD =  0.05588   =>   CDf =  0.00506    CDp =  0.05082

 Side 1  free  transition at x/c =  0.4839   52
 Side 2  free  transition at x/c =  0.0813   34

  36   rms: 0.1537E+00   max: 0.5598E+00   D at   50  2
       a = -2.500      CL =  0.1050
      Cm = -0.0465     CD =  0.05586   =>   CDf =  0.00560    CDp =  0.05026

 Side 1  free  transition at x/c =  0.4836   52
 Side 2  free  transition at x/c =  0.0826   34

  37   rms: 0.1864E+00   max: -.1347E+01   T at   34  2   RLX: 0.371
       a = -2.500      CL =  0.1248
      Cm = -0.0501     CD =  0.05293   =>   CDf =  0.00533    CDp =  0.04760

 Side 1  free  transition at x/c =  0.4837   52
 Side 2  free  transition at x/c =  0.0815   34

  38   rms: 0.2539E+00   max: 0.8227E+00   D at   35  2
       a = -2.500      CL =  0.1039
      Cm = -0.0478     CD =  0.05655   =>   CDf =  0.00592    CDp =  0.05062

 Side 1  free  transition at x/c =  0.4836   52
 Side 2  free  transition at x/c =  0.0825   34

  39   rms: 0.2322E+01   max: 0.2212E+02   T at   34  2   RLX: 0.035
       a = -2.500      CL =  0.1109
      Cm = -0.0449     CD =  0.04924   =>   CDf =  0.00551    CDp =  0.04373

 Side 1  free  transition at x/c =  0.4836   52
 Side 2  free  transition at x/c =  0.0770   34

  40   rms: 0.8126E-01   max: -.5573E+00   T at   34  2   RLX: 0.897
       a = -2.500      CL =  0.0854
      Cm = -0.0394     CD =  0.05630   =>   CDf =  0.00488    CDp =  0.05142

 Side 1  free  transition at x/c =  0.4837   52
 Side 2  free  transition at x/c =  0.0794   34

  41   rms: 0.5851E-01   max: -.3863E+00   T at   34  2
       a = -2.500      CL =  0.0913
      Cm = -0.0435     CD =  0.05393   =>   CDf =  0.00497    CDp =  0.04896

 Side 1  free  transition at x/c =  0.4838   52
 Side 2  free  transition at x/c =  0.0824   34

  42   rms: 0.9521E-01   max: 0.9234E+00   T at   34  2   RLX: 0.676
       a = -2.500      CL =  0.0787
      Cm = -0.0396     CD =  0.05482   =>   CDf =  0.00508    CDp =  0.04974

 Side 1  free  transition at x/c =  0.4839   52
 Side 2  free  transition at x/c =  0.0790   34

  43   rms: 0.1061E+00   max: -.4190E+00   D at   35  2
       a = -2.500      CL =  0.0773
      Cm = -0.0417     CD =  0.05412   =>   CDf =  0.00479    CDp =  0.04934

 Side 1  free  transition at x/c =  0.4840   52
 Side 2  free  transition at x/c =  0.0806   34

  44   rms: 0.4843E-01   max: -.6547E+00   T at   34  2   RLX: 0.764
       a = -2.500      CL =  0.0954
      Cm = -0.0451     CD =  0.05359   =>   CDf =  0.00508    CDp =  0.04851

 Side 1  free  transition at x/c =  0.4839   52
 Side 2  free  transition at x/c =  0.0824   34

  45   rms: 0.1804E+00   max: -.1095E+01   T at   34  2   RLX: 0.457
       a = -2.500      CL =  0.1037
      Cm = -0.0500     CD =  0.05501   =>   CDf =  0.00507    CDp =  0.04994

 Side 1  free  transition at x/c =  0.4839   52
 Side 2  free  transition at x/c =  0.0815   34

  46   rms: 0.1529E+00   max: 0.5472E+00   D at   50  2
       a = -2.500      CL =  0.1064
      Cm = -0.0471     CD =  0.05551   =>   CDf =  0.00563    CDp =  0.04988

 Side 1  free  transition at x/c =  0.4836   52
 Side 2  free  transition at x/c =  0.0832   34

  47   rms: 0.4139E+00   max: -.2444E+01   T at   35  2   RLX: 0.205
       a = -2.500      CL =  0.0925
      Cm = -0.0418     CD =  0.05484   =>   CDf =  0.00531    CDp =  0.04953

 Side 1  free  transition at x/c =  0.4837   52
 Side 2  free  transition at x/c =  0.0781   34

  48   rms: 0.9538E-01   max: -.4455E+00   D at   34  2
       a = -2.500      CL =  0.0835
      Cm = -0.0411     CD =  0.05498   =>   CDf =  0.00481    CDp =  0.05016

 Side 1  free  transition at x/c =  0.4838   52
 Side 2  free  transition at x/c =  0.0804   34

  49   rms: 0.4608E-01   max: -.5956E+00   T at   34  2   RLX: 0.840
       a = -2.500      CL =  0.0969
      Cm = -0.0449     CD =  0.05360   =>   CDf =  0.00510    CDp =  0.04850

 Side 1  free  transition at x/c =  0.4838   52
 Side 2  free  transition at x/c =  0.0824   34

  50   rms: 0.1839E+00   max: -.1131E+01   T at   34  2   RLX: 0.442
       a = -2.500      CL =  0.1050
      Cm = -0.0498     CD =  0.05520   =>   CDf =  0.00507    CDp =  0.05013

 Side 1  free  transition at x/c =  0.4839   52
 Side 2  free  transition at x/c =  0.0815   34

  51   rms: 0.1473E+00   max: 0.5271E+00   D at   50  2
       a = -2.500      CL =  0.1060
      Cm = -0.0471     CD =  0.05537   =>   CDf =  0.00563    CDp =  0.04974

 Side 1  free  transition at x/c =  0.4836   52
 Side 2  free  transition at x/c =  0.0832   34

  52   rms: 0.3481E+00   max: -.2071E+01   T at   35  2   RLX: 0.241
       a = -2.500      CL =  0.0912
      Cm = -0.0416     CD =  0.05515   =>   CDf =  0.00529    CDp =  0.04986

 Side 1  free  transition at x/c =  0.4837   52
 Side 2  free  transition at x/c =  0.0783   34

  53   rms: 0.9651E-01   max: -.4345E+00   D at   34  2
       a = -2.500      CL =  0.0830
      Cm = -0.0413     CD =  0.05484   =>   CDf =  0.00481    CDp =  0.05003

 Side 1  free  transition at x/c =  0.4839   52
 Side 2  free  transition at x/c =  0.0805   34

  54   rms: 0.4636E-01   max: -.6208E+00   T at   34  2   RLX: 0.805
       a = -2.500      CL =  0.0972
      Cm = -0.0450     CD =  0.05359   =>   CDf =  0.00510    CDp =  0.04849

 Side 1  free  transition at x/c =  0.4838   52
 Side 2  free  transition at x/c =  0.0824   34

  55   rms: 0.1618E+00   max: -.9734E+00   T at   34  2   RLX: 0.514
       a = -2.500      CL =  0.1058
      Cm = -0.0500     CD =  0.05473   =>   CDf =  0.00508    CDp =  0.04966

 Side 1  free  transition at x/c =  0.4839   52
 Side 2  free  transition at x/c =  0.0816   34

  56   rms: 0.1507E+00   max: 0.5366E+00   D at   50  2
       a = -2.500      CL =  0.1061
      Cm = -0.0472     CD =  0.05541   =>   CDf =  0.00564    CDp =  0.04977

 Side 1  free  transition at x/c =  0.4836   52
 Side 2  free  transition at x/c =  0.0832   34

  57   rms: 0.2901E+00   max: -.1726E+01   T at   35  2   RLX: 0.290
       a = -2.500      CL =  0.0913
      Cm = -0.0417     CD =  0.05508   =>   CDf =  0.00530    CDp =  0.04978

 Side 1  free  transition at x/c =  0.4837   52
 Side 2  free  transition at x/c =  0.0784   34

  58   rms: 0.9558E-01   max: -.4266E+00   D at   34  2
       a = -2.500      CL =  0.0836
      Cm = -0.0416     CD =  0.05474   =>   CDf =  0.00482    CDp =  0.04993

 Side 1  free  transition at x/c =  0.4838   52
 Side 2  free  transition at x/c =  0.0806   34

  59   rms: 0.4966E-01   max: -.6630E+00   T at   34  2   RLX: 0.754
       a = -2.500      CL =  0.0980
      Cm = -0.0451     CD =  0.05362   =>   CDf =  0.00510    CDp =  0.04851

 Side 1  free  transition at x/c =  0.4838   52
 Side 2  free  transition at x/c =  0.0824   34

  60   rms: 0.1266E+00   max: -.7366E+00   T at   34  2   RLX: 0.679
       a = -2.500      CL =  0.1080
      Cm = -0.0504     CD =  0.05379   =>   CDf =  0.00509    CDp =  0.04870

 Side 1  free  transition at x/c =  0.4839   52
 Side 2  free  transition at x/c =  0.0818   34

  61   rms: 0.1490E+00   max: 0.5368E+00   D at   35  2
       a = -2.500      CL =  0.1072
      Cm = -0.0475     CD =  0.05520   =>   CDf =  0.00566    CDp =  0.04954

 Side 1  free  transition at x/c =  0.4836   52
 Side 2  free  transition at x/c =  0.0836   34

  62   rms: 0.1514E+00   max: -.8958E+00   T at   35  2   RLX: 0.558
       a = -2.500      CL =  0.0916
      Cm = -0.0418     CD =  0.05559   =>   CDf =  0.00526    CDp =  0.05032

 Side 1  free  transition at x/c =  0.4837   52
 Side 2  free  transition at x/c =  0.0801   34

  63   rms: 0.9076E-01   max: -.3395E+00   D at   34  2
       a = -2.500      CL =  0.0883
      Cm = -0.0442     CD =  0.05371   =>   CDf =  0.00486    CDp =  0.04884

 Side 1  free  transition at x/c =  0.4839   52
 Side 2  free  transition at x/c =  0.0824   34

  64   rms: 0.8342E-01   max: 0.8587E+00   T at   34  2   RLX: 0.803
       a = -2.500      CL =  0.0802
      Cm = -0.0403     CD =  0.05421   =>   CDf =  0.00512    CDp =  0.04909

 Side 1  free  transition at x/c =  0.4839   52
 Side 2  free  transition at x/c =  0.0790   34

  65   rms: 0.1035E+00   max: -.4060E+00   D at   35  2
       a = -2.500      CL =  0.0783
      Cm = -0.0417     CD =  0.05416   =>   CDf =  0.00479    CDp =  0.04937

 Side 1  free  transition at x/c =  0.4840   52
 Side 2  free  transition at x/c =  0.0807   34

  66   rms: 0.5188E-01   max: -.6784E+00   T at   34  2   RLX: 0.737
       a = -2.500      CL =  0.0957
      Cm = -0.0451     CD =  0.05364   =>   CDf =  0.00508    CDp =  0.04856

 Side 1  free  transition at x/c =  0.4839   52
 Side 2  free  transition at x/c =  0.0824   34

  67   rms: 0.1455E+00   max: -.8526E+00   T at   34  2   RLX: 0.586
       a = -2.500      CL =  0.1055
      Cm = -0.0503     CD =  0.05424   =>   CDf =  0.00508    CDp =  0.04916

 Side 1  free  transition at x/c =  0.4839   52
 Side 2  free  transition at x/c =  0.0817   34

  68   rms: 0.1541E+00   max: 0.5486E+00   D at   35  2
       a = -2.500      CL =  0.1068
      Cm = -0.0473     CD =  0.05542   =>   CDf =  0.00565    CDp =  0.04977

 Side 1  free  transition at x/c =  0.4836   52
 Side 2  free  transition at x/c =  0.0833   34

  69   rms: 0.2182E+00   max: -.1306E+01   T at   35  2   RLX: 0.383
       a = -2.500      CL =  0.0917
      Cm = -0.0418     CD =  0.05517   =>   CDf =  0.00530    CDp =  0.04987

 Side 1  free  transition at x/c =  0.4837   52
 Side 2  free  transition at x/c =  0.0788   34

  70   rms: 0.9351E-01   max: -.4034E+00   D at   34  2
       a = -2.500      CL =  0.0847
      Cm = -0.0423     CD =  0.05449   =>   CDf =  0.00483    CDp =  0.04966

 Side 1  free  transition at x/c =  0.4839   52
 Side 2  free  transition at x/c =  0.0811   34

  71   rms: 0.6645E-01   max: -.8883E+00   T at   34  2   RLX: 0.563
       a = -2.500      CL =  0.1002
      Cm = -0.0455     CD =  0.05375   =>   CDf =  0.00511    CDp =  0.04864

 Side 1  free  transition at x/c =  0.4839   52
 Side 2  free  transition at x/c =  0.0821   34

  72   rms: 0.7728E-01   max: -.4509E+00   T at   34  2
       a = -2.500      CL =  0.1100
      Cm = -0.0501     CD =  0.05261   =>   CDf =  0.00513    CDp =  0.04748

 Side 1  free  transition at x/c =  0.4839   52
 Side 2  free  transition at x/c =  0.0830   34

  73   rms: 0.6134E-01   max: -.3489E+00   D at   34  2
       a = -2.500      CL =  0.1192
      Cm = -0.0524     CD =  0.05159   =>   CDf =  0.00550    CDp =  0.04610

 Side 1  free  transition at x/c =  0.4839   52
 Side 2  free  transition at x/c =  0.0957   36

  74   rms: 0.6042E+00   max: 0.2379E+01   D at   43  2   RLX: 0.631
       a = -2.500      CL =  0.1174
      Cm = -0.0526     CD =  0.04769   =>   CDf =  0.00730    CDp =  0.04039

 Side 1  free  transition at x/c =  0.4839   52
 Side 2  free  transition at x/c =  0.0878   35

  75   rms: 0.3493E+00   max: 0.1452E+01   D at   36  2
       a = -2.500      CL =  0.1098
      Cm = -0.0495     CD =  0.05553   =>   CDf =  0.00619    CDp =  0.04934

 Side 1  free  transition at x/c =  0.4836   52
 Side 2  free  transition at x/c =  0.0830   34

  76   rms: 0.4811E+00   max: -.3170E+01   T at   35  2   RLX: 0.158
       a = -2.500      CL =  0.0965
      Cm = -0.0446     CD =  0.05322   =>   CDf =  0.00540    CDp =  0.04782

 Side 1  free  transition at x/c =  0.4837   52
 Side 2  free  transition at x/c =  0.0790   34

  77   rms: 0.6468E-01   max: -.5149E+00   D at   35  2   RLX: 0.971
       a = -2.500      CL =  0.0895
      Cm = -0.0417     CD =  0.05514   =>   CDf =  0.00491    CDp =  0.05023

 Side 1  free  transition at x/c =  0.4837   52
 Side 2  free  transition at x/c =  0.0811   34

  78   rms: 0.7147E-01   max: -.9236E+00   T at   34  2   RLX: 0.541
       a = -2.500      CL =  0.1030
      Cm = -0.0454     CD =  0.05383   =>   CDf =  0.00512    CDp =  0.04870

 Side 1  free  transition at x/c =  0.4838   52
 Side 2  free  transition at x/c =  0.0820   34

  79   rms: 0.6265E-01   max: -.3757E+00   T at   34  2
       a = -2.500      CL =  0.1082
      Cm = -0.0491     CD =  0.05280   =>   CDf =  0.00515    CDp =  0.04765

 Side 1  free  transition at x/c =  0.4838   52
 Side 2  free  transition at x/c =  0.0835   34

  80   rms: 0.5288E+00   max: 0.2050E+01   T at   47  2   RLX: 0.306
       a = -2.500      CL =  0.1302
      Cm = -0.0597     CD =  0.05569   =>   CDf =  0.00530    CDp =  0.05039

 Side 1  free  transition at x/c =  0.4841   52
 Side 2  free  transition at x/c =  0.0824   34

  81   rms: 0.7897E+00   max: 0.3182E+01   D at   40  2   RLX: 0.471
       a = -2.500      CL =  0.1198
      Cm = -0.0538     CD =  0.04562   =>   CDf =  0.00689    CDp =  0.03873

 Side 1  free  transition at x/c =  0.4838   52
 Side 2  free  transition at x/c =  0.0829   34

  82   rms: 0.2347E+00   max: 0.1062E+01   D at   48  2
       a = -2.500      CL =  0.1151
      Cm = -0.0515     CD =  0.05281   =>   CDf =  0.00637    CDp =  0.04644

 Side 1  free  transition at x/c =  0.4839   52
 Side 2  free  transition at x/c =  0.0910   35

  83   rms: 0.5236E+00   max: 0.2785E+01   D at   42  2   RLX: 0.539
       a = -2.500      CL =  0.1165
      Cm = -0.0543     CD =  0.03873   =>   CDf =  0.00805    CDp =  0.03068

 MRCHDU: Convergence failed at  42  side 2    Res =  0.2461E+01
 MRCHDU: Convergence failed at  43  side 2    Res =  0.1135E+01
 MRCHDU: Convergence failed at  44  side 2    Res =  0.1108E+01
 MRCHDU: Convergence failed at  45  side 2    Res =  0.1574E+01
 MRCHDU: Convergence failed at  46  side 2    Res =  0.1226E+01
 MRCHDU: Convergence failed at  47  side 2    Res =  0.1279E+01
 MRCHDU: Convergence failed at  48  side 2    Res =  0.1641E+01
 MRCHDU: Convergence failed at  49  side 2    Res =  0.4112E+01
 MRCHDU: Convergence failed at  50  side 2    Res =  0.7003E+01
 MRCHDU: Convergence failed at  51  side 2    Res =  0.1358E+02
 MRCHDU: Convergence failed at  52  side 2    Res =  0.3251E+02
 MRCHDU: Convergence failed at  53  side 2    Res =  0.1131E+03
 MRCHDU: Convergence failed at  54  side 2    Res =  0.1598E+02
 MRCHDU: Convergence failed at  55  side 2    Res =  0.1056E+02
 MRCHDU: Convergence failed at  56  side 2    Res =  0.7840E+01
 MRCHDU: Convergence failed at  57  side 2    Res =  0.6415E+01
 MRCHDU: Convergence failed at  58  side 2    Res =  0.5358E+01
 MRCHDU: Convergence failed at  59  side 2    Res =  0.4660E+01
 MRCHDU: Convergence failed at  60  side 2    Res =  0.4197E+01
 MRCHDU: Convergence failed at  61  side 2    Res =  0.3872E+01
 MRCHDU: Convergence failed at  62  side 2    Res =  0.3554E+01
 MRCHDU: Convergence failed at  63  side 2    Res =  0.3375E+01
 MRCHDU: Convergence failed at  64  side 2    Res =  0.3172E+01
 MRCHDU: Convergence failed at  65  side 2    Res =  0.3061E+01
 MRCHDU: Convergence failed at  66  side 2    Res =  0.2975E+01
 MRCHDU: Convergence failed at  67  side 2    Res =  0.2908E+01
 MRCHDU: Convergence failed at  68  side 2    Res =  0.2855E+01
 MRCHDU: Convergence failed at  69  side 2    Res =  0.2815E+01
 MRCHDU: Convergence failed at  70  side 2    Res =  0.2785E+01
 MRCHDU: Convergence failed at  71  side 2    Res =  0.2698E+01
 MRCHDU: Convergence failed at  72  side 2    Res =  0.2683E+01
 MRCHDU: Convergence failed at  73  side 2    Res =  0.2422E+01
 MRCHDU: Convergence failed at  74  side 2    Res =  0.2511E+01
 MRCHDU: Convergence failed at  75  side 2    Res =  0.2593E+01
 MRCHDU: Convergence failed at  76  side 2    Res =  0.2667E+01
 MRCHDU: Convergence failed at  77  side 2    Res =  0.2725E+01
 MRCHDU: Convergence failed at  78  side 2    Res =  0.2764E+01
 MRCHDU: Convergence failed at  79  side 2    Res =  0.2721E+01
 MRCHDU: Convergence failed at  80  side 2    Res =  0.2729E+01
 MRCHDU: Convergence failed at  81  side 2    Res =  0.3110E+01
 MRCHDU: Convergence failed at  82  side 2    Res =  0.3569E+01
 Side 1  free  transition at x/c =  0.4842   52
 Side 2  free  transition at x/c =  0.0893   35

  84   rms: 0.2973E+00   max: 0.1190E+01   D at   41  2
       a = -2.500      CL =  0.1612
      Cm = -0.0503     CD =  0.04070   =>   CDf =  0.00491    CDp =  0.03580

 Side 1  free  transition at x/c =  0.4830   53
 Side 2  free  transition at x/c =  0.0884   34
 idif Ue xi dudx           1  0.12596092      3.42261791E-03   36.802505    
 Uenew xinew           2  2.91792713E-02  7.92860985E-04

  85   rms: 0.1667E+00   max: 0.1187E+01   T at   34  2
       a = -2.500      CL =  0.0838
      Cm = -0.0431     CD =  0.05469   =>   CDf =  0.00572    CDp =  0.04897

 Side 1  free  transition at x/c =  0.4839   52
 Side 2  free  transition at x/c =  0.0820   34

  86   rms: 0.9544E-01   max: -.3576E+00   D at   67  2
       a = -2.500      CL =  0.0986
      Cm = -0.0489     CD =  0.05259   =>   CDf =  0.00495    CDp =  0.04764

 Side 1  free  transition at x/c =  0.4840   52
 Side 2  free  transition at x/c =  0.0836   34

  87   rms: 0.2951E+00   max: -.1532E+01   T at   35  2   RLX: 0.326
       a = -2.500      CL =  0.0763
      Cm = -0.0389     CD =  0.05944   =>   CDf =  0.00515    CDp =  0.05429

 Side 1  free  transition at x/c =  0.4839   52
 Side 2  free  transition at x/c =  0.0789   34

  88   rms: 0.1161E+00   max: -.4406E+00   D at   34  2
       a = -2.500      CL =  0.0763
      Cm = -0.0426     CD =  0.05393   =>   CDf =  0.00476    CDp =  0.04917

 Side 1  free  transition at x/c =  0.4841   52
 Side 2  free  transition at x/c =  0.0805   34

  89   rms: 0.4600E-01   max: -.6669E+00   T at   34  2   RLX: 0.750
       a = -2.500      CL =  0.0954
      Cm = -0.0453     CD =  0.05350   =>   CDf =  0.00509    CDp =  0.04841

 Side 1  free  transition at x/c =  0.4839   52
 Side 2  free  transition at x/c =  0.0824   34

  90   rms: 0.1695E+00   max: -.1034E+01   T at   34  2   RLX: 0.484
       a = -2.500      CL =  0.1037
      Cm = -0.0501     CD =  0.05478   =>   CDf =  0.00507    CDp =  0.04970

 Side 1  free  transition at x/c =  0.4839   52
 Side 2  free  transition at x/c =  0.0815   34

  91   rms: 0.1519E+00   max: 0.5385E+00   D at   50  2
       a = -2.500      CL =  0.1065
      Cm = -0.0471     CD =  0.05550   =>   CDf =  0.00563    CDp =  0.04987

 Side 1  free  transition at x/c =  0.4836   52
 Side 2  free  transition at x/c =  0.0832   34

  92   rms: 0.3599E+00   max: -.2129E+01   T at   35  2   RLX: 0.235
       a = -2.500      CL =  0.0923
      Cm = -0.0418     CD =  0.05495   =>   CDf =  0.00531    CDp =  0.04964

 Side 1  free  transition at x/c =  0.4837   52
 Side 2  free  transition at x/c =  0.0782   34

  93   rms: 0.9547E-01   max: -.4386E+00   D at   34  2
       a = -2.500      CL =  0.0836
      Cm = -0.0413     CD =  0.05489   =>   CDf =  0.00481    CDp =  0.05008

 Side 1  free  transition at x/c =  0.4838   52
 Side 2  free  transition at x/c =  0.0805   34

  94   rms: 0.4734E-01   max: -.6194E+00   T at   34  2   RLX: 0.807
       a = -2.500      CL =  0.0975
      Cm = -0.0450     CD =  0.05360   =>   CDf =  0.00510    CDp =  0.04851

 Side 1  free  transition at x/c =  0.4838   52
 Side 2  free  transition at x/c =  0.0824   34

  95   rms: 0.1570E+00   max: -.9417E+00   T at   34  2   RLX: 0.531
       a = -2.500      CL =  0.1063
      Cm = -0.0500     CD =  0.05464   =>   CDf =  0.00508    CDp =  0.04956

 Side 1  free  transition at x/c =  0.4839   52
 Side 2  free  transition at x/c =  0.0816   34

  96   rms: 0.1503E+00   max: 0.5343E+00   D at   50  2
       a = -2.500      CL =  0.1061
      Cm = -0.0472     CD =  0.05539   =>   CDf =  0.00564    CDp =  0.04975

 Side 1  free  transition at x/c =  0.4836   52
 Side 2  free  transition at x/c =  0.0833   34

  97   rms: 0.2648E+00   max: -.1580E+01   T at   35  2   RLX: 0.316
       a = -2.500      CL =  0.0909
      Cm = -0.0417     CD =  0.05515   =>   CDf =  0.00530    CDp =  0.04985

 Side 1  free  transition at x/c =  0.4837   52
 Side 2  free  transition at x/c =  0.0785   34

  98   rms: 0.9545E-01   max: -.4211E+00   D at   34  2
       a = -2.500      CL =  0.0837
      Cm = -0.0417     CD =  0.05466   =>   CDf =  0.00482    CDp =  0.04984

 Side 1  free  transition at x/c =  0.4839   52
 Side 2  free  transition at x/c =  0.0807   34

  99   rms: 0.5161E-01   max: -.6922E+00   T at   34  2   RLX: 0.722
       a = -2.500      CL =  0.0983
      Cm = -0.0452     CD =  0.05363   =>   CDf =  0.00511    CDp =  0.04852

 Side 1  free  transition at x/c =  0.4838   52
 Side 2  free  transition at x/c =  0.0823   34

 100   rms: 0.1150E+00   max: -.6631E+00   T at   34  2   RLX: 0.754
       a = -2.500      CL =  0.1089
      Cm = -0.0505     CD =  0.05343   =>   CDf =  0.00510    CDp =  0.04834

 Side 1  free  transition at x/c =  0.4839   52
 Side 2  free  transition at x/c =  0.0820   34

 101   rms: 0.1431E+00   max: 0.5243E+00   D at   35  2
       a = -2.500      CL =  0.1078
      Cm = -0.0477     CD =  0.05502   =>   CDf =  0.00566    CDp =  0.04936

 Side 1  free  transition at x/c =  0.4837   52
 Side 2  free  transition at x/c =  0.0839   35

 102   rms: 0.6496E-01   max: -.4249E+00   T at   35  2
       a = -2.500      CL =  0.0996
      Cm = -0.0477     CD =  0.05111   =>   CDf =  0.00540    CDp =  0.04571

 Side 1  free  transition at x/c =  0.4840   52
 Side 2  free  transition at x/c =  0.0844   35

 103   rms: 0.7333E-01   max: -.2703E+00   D at   64  2
       a = -2.500      CL =  0.0987
      Cm = -0.0486     CD =  0.05140   =>   CDf =  0.00511    CDp =  0.04629

 Side 1  free  transition at x/c =  0.4840   52
 Side 2  free  transition at x/c =  0.0846   35

 104   rms: 0.9506E-02   max: -.6980E-01   T at   35  2
       a = -2.500      CL =  0.1018
      Cm = -0.0483     CD =  0.05171   =>   CDf =  0.00535    CDp =  0.04636

 Side 1  free  transition at x/c =  0.4840   52
 Side 2  free  transition at x/c =  0.0848   35

 105   rms: 0.2345E-02   max: -.8426E-02   D at   61  2
       a = -2.500      CL =  0.1019
      Cm = -0.0484     CD =  0.05173   =>   CDf =  0.00534    CDp =  0.04639

 Side 1  free  transition at x/c =  0.4839   52
 Side 2  free  transition at x/c =  0.0848   35

 106   rms: 0.7505E-04   max: -.5197E-03   T at   35  2
       a = -2.500      CL =  0.1020
      Cm = -0.0484     CD =  0.05174   =>   CDf =  0.00535    CDp =  0.04639
 plradd ia,ip,cpol            4           0  1.18929353E-02

 Point added to stored polar  1
 Point written to save file  lnv109a_Re200k.base.pol                         
 Dump file unspecified or not available
 Calculating wake trajectory ...
 Calculating source influence matrix ...

 Solving BL system ...

 Side 1  free  transition at x/c =  0.4839   52
 Side 2  free  transition at x/c =  0.0848   35

   1   rms: 0.8957E-01   max: -.6011E+00   T at   35  2   RLX: 0.832
       a = -2.000      CL =  0.1367
      Cm = -0.0484     CD =  0.04919   =>   CDf =  0.00530    CDp =  0.04389

 Side 1  free  transition at x/c =  0.4804   53
 Side 2  free  transition at x/c =  0.0861   34

   2   rms: 0.7788E-01   max: -.2901E+00   D at   34  2
       a = -2.000      CL =  0.1450
      Cm = -0.0496     CD =  0.04873   =>   CDf =  0.00491    CDp =  0.04382

 Side 1  free  transition at x/c =  0.4797   53
 Side 2  free  transition at x/c =  0.0876   34

   3   rms: 0.2099E-01   max: -.1462E+00   T at   34  2
       a = -2.000      CL =  0.1497
      Cm = -0.0499     CD =  0.04889   =>   CDf =  0.00514    CDp =  0.04375

 Side 1  free  transition at x/c =  0.4796   53
 Side 2  free  transition at x/c =  0.0888   34

   4   rms: 0.5716E-02   max: -.3705E-01   T at   34  2
       a = -2.000      CL =  0.1507
      Cm = -0.0502     CD =  0.04887   =>   CDf =  0.00520    CDp =  0.04367

 Side 1  free  transition at x/c =  0.4796   53
 Side 2  free  transition at x/c =  0.0891   34

   5   rms: 0.5058E-03   max: -.4503E-02   T at   34  2
       a = -2.000      CL =  0.1509
      Cm = -0.0502     CD =  0.04889   =>   CDf =  0.00522    CDp =  0.04366

 Side 1  free  transition at x/c =  0.4796   53
 Side 2  free  transition at x/c =  0.0891   34

   6   rms: 0.1821E-04   max: -.1911E-03   T at   34  2
       a = -2.000      CL =  0.1509
      Cm = -0.0502     CD =  0.04889   =>   CDf =  0.00523    CDp =  0.04366
 plradd ia,ip,cpol            5           0  1.41802737E-02

 Point added to stored polar  1
 Point written to save file  lnv109a_Re200k.base.pol                         
 Dump file unspecified or not available
 Calculating wake trajectory ...
 Calculating source influence matrix ...

 Solving BL system ...

 Side 1  free  transition at x/c =  0.4796   53
 Side 2  free  transition at x/c =  0.0891   34

   1   rms: 0.9520E-01   max: -.1276E+01   T at   34  2   RLX: 0.392
       a = -1.500      CL =  0.1737
      Cm = -0.0520     CD =  0.04754   =>   CDf =  0.00523    CDp =  0.04231

 Side 1  free  transition at x/c =  0.4780   53
 Side 2  free  transition at x/c =  0.0924   34

   2   rms: 0.2497E+00   max: -.1755E+01   T at   35  2   RLX: 0.285
       a = -1.500      CL =  0.1585
      Cm = -0.0474     CD =  0.05096   =>   CDf =  0.00509    CDp =  0.04587

 Side 1  free  transition at x/c =  0.4774   53
 Side 2  free  transition at x/c =  0.0881   34

   3   rms: 0.1512E+00   max: -.6362E+00   T at   34  2   RLX: 0.786
       a = -1.500      CL =  0.1782
      Cm = -0.0514     CD =  0.04923   =>   CDf =  0.00469    CDp =  0.04455

 Side 1  free  transition at x/c =  0.4762   53
 Side 2  free  transition at x/c =  0.0914   34

   4   rms: 0.2233E+00   max: -.1946E+01   T at   34  2   RLX: 0.257
       a = -1.500      CL =  0.1934
      Cm = -0.0533     CD =  0.05253   =>   CDf =  0.00491    CDp =  0.04762

 Side 1  free  transition at x/c =  0.4760   53
 Side 2  free  transition at x/c =  0.0903   34

   5   rms: 0.4425E-01   max: -.5672E+00   D at   34  2   RLX: 0.881
       a = -1.500      CL =  0.2103
      Cm = -0.0541     CD =  0.04661   =>   CDf =  0.00524    CDp =  0.04138

 Side 1  free  transition at x/c =  0.4757   53
 Side 2  free  transition at x/c =  0.0989   35

   6   rms: 0.1973E+00   max: 0.1055E+01   D at   46  2
       a = -1.500      CL =  0.2119
      Cm = -0.0568     CD =  0.04460   =>   CDf =  0.00647    CDp =  0.03814

 Side 1  free  transition at x/c =  0.4757   53
 Side 2  free  transition at x/c =  0.0964   35

   7   rms: 0.1837E-01   max: 0.2321E+00   D at   45  2
       a = -1.500      CL =  0.2090
      Cm = -0.0544     CD =  0.04514   =>   CDf =  0.00540    CDp =  0.03974

 Side 1  free  transition at x/c =  0.4757   53
 Side 2  free  transition at x/c =  0.0970   35

   8   rms: 0.2951E-02   max: 0.4395E-01   D at   45  2
       a = -1.500      CL =  0.2090
      Cm = -0.0545     CD =  0.04513   =>   CDf =  0.00542    CDp =  0.03971

 Side 1  free  transition at x/c =  0.4757   53
 Side 2  free  transition at x/c =  0.0970   35

   9   rms: 0.6007E-04   max: -.8644E-03   D at   45  2
       a = -1.500      CL =  0.2090
      Cm = -0.0545     CD =  0.04512   =>   CDf =  0.00541    CDp =  0.03971
 plradd ia,ip,cpol            6           0  1.41802737E-02

 Point added to stored polar  1
 Point written to save file  lnv109a_Re200k.base.pol                         
 Dump file unspecified or not available
 Calculating wake trajectory ...
 Calculating source influence matrix ...

 Solving BL system ...

 Side 1  free  transition at x/c =  0.4757   53
 Side 2  free  transition at x/c =  0.0970   35

   1   rms: 0.8100E-01   max: -.7826E+00   T at   35  2   RLX: 0.639
       a = -1.000      CL =  0.2408
      Cm = -0.0552     CD =  0.04383   =>   CDf =  0.00532    CDp =  0.03851

 Side 1  free  transition at x/c =  0.4731   54
 Side 2  free  transition at x/c =  0.1008   34

   2   rms: 0.1130E+00   max: -.1456E+01   T at   34  2   RLX: 0.343
       a = -1.000      CL =  0.2480
      Cm = -0.0560     CD =  0.04578   =>   CDf =  0.00524    CDp =  0.04054

 Side 1  free  transition at x/c =  0.4727   54
 Side 2  free  transition at x/c =  0.1017   34

   3   rms: 0.8437E-01   max: -.5310E+00   T at   34  2   RLX: 0.942
       a = -1.000      CL =  0.2713
      Cm = -0.0577     CD =  0.04349   =>   CDf =  0.00531    CDp =  0.03818

 Side 1  free  transition at x/c =  0.4720   54
 Side 2  free  transition at x/c =  0.1036   34

   4   rms: 0.7112E-01   max: -.4008E+00   D at   34  2
       a = -1.000      CL =  0.2815
      Cm = -0.0584     CD =  0.04392   =>   CDf =  0.00567    CDp =  0.03825

 Side 1  free  transition at x/c =  0.4719   54
 Side 2  free  transition at x/c =  0.1062   35

   5   rms: 0.1622E+00   max: -.1931E+01   T at   35  2   RLX: 0.259
       a = -1.000      CL =  0.2810
      Cm = -0.0596     CD =  0.03293   =>   CDf =  0.00701    CDp =  0.02592

 Side 1  free  transition at x/c =  0.4721   54
 Side 2  free  transition at x/c =  0.1124   35

   6   rms: 0.2716E+00   max: 0.1387E+01   D at   39  2
       a = -1.000      CL =  0.2633
      Cm = -0.0558     CD =  0.04468   =>   CDf =  0.00641    CDp =  0.03827

 Side 1  free  transition at x/c =  0.4719   54
 Side 2  free  transition at x/c =  0.1011   34

   7   rms: 0.5195E-01   max: -.5487E+00   T at   34  2   RLX: 0.911
       a = -1.000      CL =  0.2693
      Cm = -0.0561     CD =  0.04432   =>   CDf =  0.00543    CDp =  0.03888

 Side 1  free  transition at x/c =  0.4719   54
 Side 2  free  transition at x/c =  0.1032   34

   8   rms: 0.8148E-01   max: -.5190E+00   T at   34  2   RLX: 0.963
       a = -1.000      CL =  0.2813
      Cm = -0.0580     CD =  0.04436   =>   CDf =  0.00562    CDp =  0.03874

 Side 1  free  transition at x/c =  0.4719   54
 Side 2  free  transition at x/c =  0.1038   34

   9   rms: 0.1677E+00   max: 0.6793E+00   D at   35  2
       a = -1.000      CL =  0.2760
      Cm = -0.0567     CD =  0.04506   =>   CDf =  0.00637    CDp =  0.03869

 Side 1  free  transition at x/c =  0.4719   54
 Side 2  free  transition at x/c =  0.1189   36

  10   rms: 0.2101E+00   max: 0.1264E+01   D at   36  2
       a = -1.000      CL =  0.2714
      Cm = -0.0604     CD =  0.03897   =>   CDf =  0.00716    CDp =  0.03180

 Side 1  free  transition at x/c =  0.4722   54
 Side 2  free  transition at x/c =  0.1250   36

  11   rms: 0.2804E+00   max: 0.2155E+01   T at   36  2   RLX: 0.696
       a = -1.000      CL =  0.2650
      Cm = -0.0572     CD =  0.04205   =>   CDf =  0.00630    CDp =  0.03576

 Side 1  free  transition at x/c =  0.4720   54
 Side 2  free  transition at x/c =  0.1093   35

  12   rms: 0.4285E-01   max: -.5661E+00   D at   35  2   RLX: 0.883
       a = -1.000      CL =  0.2652
      Cm = -0.0564     CD =  0.04320   =>   CDf =  0.00555    CDp =  0.03765

 Side 1  free  transition at x/c =  0.4719   54
 Side 2  free  transition at x/c =  0.1052   35

  13   rms: 0.1140E+00   max: -.5491E+00   D at   35  2   RLX: 0.911
       a = -1.000      CL =  0.2628
      Cm = -0.0564     CD =  0.04297   =>   CDf =  0.00533    CDp =  0.03765

 Side 1  free  transition at x/c =  0.4720   54
 Side 2  free  transition at x/c =  0.1060   35

  14   rms: 0.5979E-01   max: -.2775E+00   T at   35  2
       a = -1.000      CL =  0.2648
      Cm = -0.0568     CD =  0.04194   =>   CDf =  0.00551    CDp =  0.03643

 Side 1  free  transition at x/c =  0.4720   54
 Side 2  free  transition at x/c =  0.1070   35

  15   rms: 0.2727E-01   max: -.1031E+00   D at   35  2
       a = -1.000      CL =  0.2660
      Cm = -0.0570     CD =  0.04198   =>   CDf =  0.00559    CDp =  0.03639

 Side 1  free  transition at x/c =  0.4720   54
 Side 2  free  transition at x/c =  0.1076   35

  16   rms: 0.3746E-02   max: -.1775E-01   T at   35  2
       a = -1.000      CL =  0.2662
      Cm = -0.0570     CD =  0.04199   =>   CDf =  0.00568    CDp =  0.03631

 Side 1  free  transition at x/c =  0.4720   54
 Side 2  free  transition at x/c =  0.1078   35

  17   rms: 0.1130E-03   max: -.6403E-03   T at   35  2
       a = -1.000      CL =  0.2662
      Cm = -0.0570     CD =  0.04199   =>   CDf =  0.00569    CDp =  0.03630

 Side 1  free  transition at x/c =  0.4720   54
 Side 2  free  transition at x/c =  0.1078   35

  18   rms: 0.2251E-05   max: 0.9963E-05   D at   60  1
       a = -1.000      CL =  0.2662
      Cm = -0.0570     CD =  0.04199   =>   CDf =  0.00569    CDp =  0.03630
 plradd ia,ip,cpol            7           0  1.41802737E-02

 Point added to stored polar  1
 Point written to save file  lnv109a_Re200k.base.pol                         
 Dump file unspecified or not available
 Calculating wake trajectory ...
 Calculating source influence matrix ...

 Solving BL system ...

 Side 1  free  transition at x/c =  0.4720   54
 Side 2  free  transition at x/c =  0.1078   35

   1   rms: 0.8829E-01   max: -.8198E+00   T at   35  2   RLX: 0.610
       a = -0.500      CL =  0.2952
      Cm = -0.0568     CD =  0.04078   =>   CDf =  0.00570    CDp =  0.03509

 Side 1  free  transition at x/c =  0.4698   54
 Side 2  free  transition at x/c =  0.1115   35

   2   rms: 0.8367E-01   max: -.9827E+00   T at   35  2   RLX: 0.509
       a = -0.500      CL =  0.3055
      Cm = -0.0571     CD =  0.04212   =>   CDf =  0.00537    CDp =  0.03675

[...]

 Side 1  free  transition at x/c =  0.4045   61
 Side 2 forced transition at x/c =  1.0000   69

 115   rms: 0.2867E+00   max: -.1081E+01   T at   61  1   RLX: 0.462
       a =  7.500      CL =  1.2408
      Cm = -0.0569     CD =  0.03028   =>   CDf =  0.00589    CDp =  0.02439

 Side 1  free  transition at x/c =  0.4152   63
 Side 2 forced transition at x/c =  1.0000   68
 idif Ue xi dudx           1  0.16215412      3.30352783E-03   49.085140    
 Uenew xinew           2  3.45642492E-02  7.04169273E-04

 116   rms: 0.2585E+00   max: 0.1004E+01   D at   65  1
       a =  7.500      CL =  1.1566
      Cm = -0.0544     CD =  0.04043   =>   CDf =  0.00676    CDp =  0.03368

 Side 1  free  transition at x/c =  0.4045   61
 Side 2 forced transition at x/c =  1.0000   69

 117   rms: 0.2867E+00   max: -.1081E+01   T at   61  1   RLX: 0.462
       a =  7.500      CL =  1.2409
      Cm = -0.0569     CD =  0.03028   =>   CDf =  0.00589    CDp =  0.02439

 Side 1  free  transition at x/c =  0.4152   63
 Side 2 forced transition at x/c =  1.0000   68
 idif Ue xi dudx           1  0.16215687      3.30352783E-03   49.085968    
 Uenew xinew           2  3.45648304E-02  7.04169273E-04

 118   rms: 0.2585E+00   max: 0.1004E+01   D at   65  1
       a =  7.500      CL =  1.1566
      Cm = -0.0544     CD =  0.04043   =>   CDf =  0.00676    CDp =  0.03368

 Side 1  free  transition at x/c =  0.4045   61
 Side 2 forced transition at x/c =  1.0000   69

 119   rms: 0.2867E+00   max: -.1081E+01   T at   61  1   RLX: 0.462
       a =  7.500      CL =  1.2408
      Cm = -0.0569     CD =  0.03028   =>   CDf =  0.00589    CDp =  0.02439

 Side 1  free  transition at x/c =  0.4152   63
 Side 2 forced transition at x/c =  1.0000   68
 idif Ue xi dudx           1  0.16215582      3.30352783E-03   49.085655    
 Uenew xinew           2  3.45646106E-02  7.04169273E-04

 120   rms: 0.2585E+00   max: 0.1004E+01   D at   65  1
       a =  7.500      CL =  1.1566
      Cm = -0.0544     CD =  0.04043   =>   CDf =  0.00676    CDp =  0.03368

 Side 1  free  transition at x/c =  0.4045   61
 Side 2 forced transition at x/c =  1.0000   69

 121   rms: 0.2867E+00   max: -.1081E+01   T at   61  1   RLX: 0.462
       a =  7.500      CL =  1.2409
      Cm = -0.0569     CD =  0.03028   =>   CDf =  0.00589    CDp =  0.02439

 Side 1  free  transition at x/c =  0.4152   63
 Side 2 forced transition at x/c =  1.0000   68
 idif Ue xi dudx           1  0.16215673      3.30352783E-03   49.085930    
 Uenew xinew           2  3.45648043E-02  7.04169273E-04

 122   rms: 0.2585E+00   max: 0.1004E+01   D at   65  1
       a =  7.500      CL =  1.1566
      Cm = -0.0544     CD =  0.04043   =>   CDf =  0.00676    CDp =  0.03368

 Side 1  free  transition at x/c =  0.4045   61
 Side 2 forced transition at x/c =  1.0000   69

 123   rms: 0.2867E+00   max: -.1081E+01   T at   61  1   RLX: 0.462
       a =  7.500      CL =  1.2409
      Cm = -0.0569     CD =  0.03028   =>   CDf =  0.00589    CDp =  0.02439

 Side 1  free  transition at x/c =  0.4152   63
 Side 2 forced transition at x/c =  1.0000   68
 idif Ue xi dudx           1  0.16215566      3.30352783E-03   49.085602    
 Uenew xinew           2  3.45645733E-02  7.04169273E-04

 124   rms: 0.2585E+00   max: 0.1004E+01   D at   65  1
       a =  7.500      CL =  1.1566
      Cm = -0.0544     CD =  0.04043   =>   CDf =  0.00676    CDp =  0.03368

 Side 1  free  transition at x/c =  0.4045   61
 Side 2 forced transition at x/c =  1.0000   69

 125   rms: 0.2867E+00   max: -.1081E+01   T at   61  1   RLX: 0.462
       a =  7.500      CL =  1.2409
      Cm = -0.0569     CD =  0.03028   =>   CDf =  0.00589    CDp =  0.02439

 Side 1  free  transition at x/c =  0.4152   63
 Side 2 forced transition at x/c =  1.0000   68
 idif Ue xi dudx           1  0.16215713      3.30352783E-03   49.086052    
 Uenew xinew           2  3.45648900E-02  7.04169273E-04

 126   rms: 0.2585E+00   max: 0.1004E+01   D at   65  1
       a =  7.500      CL =  1.1566
      Cm = -0.0544     CD =  0.04043   =>   CDf =  0.00676    CDp =  0.03368

 Side 1  free  transition at x/c =  0.4045   61
 Side 2 forced transition at x/c =  1.0000   69

 127   rms: 0.2867E+00   max: -.1081E+01   T at   61  1   RLX: 0.462
       a =  7.500      CL =  1.2408
      Cm = -0.0569     CD =  0.03028   =>   CDf =  0.00589    CDp =  0.02439

 Side 1  free  transition at x/c =  0.4152   63
 Side 2 forced transition at x/c =  1.0000   68
 idif Ue xi dudx           1  0.16215485      3.30352783E-03   49.085361    
 Uenew xinew           2  3.45644020E-02  7.04169273E-04

 128   rms: 0.2585E+00   max: 0.1004E+01   D at   65  1
       a =  7.500      CL =  1.1566
      Cm = -0.0544     CD =  0.04043   =>   CDf =  0.00676    CDp =  0.03368

 Side 1  free  transition at x/c =  0.4045   61
 Side 2 forced transition at x/c =  1.0000   69

 129   rms: 0.2867E+00   max: -.1082E+01   T at   61  1   RLX: 0.462
       a =  7.500      CL =  1.2408
      Cm = -0.0569     CD =  0.03028   =>   CDf =  0.00589    CDp =  0.02439

 Side 1  free  transition at x/c =  0.4152   63
 Side 2 forced transition at x/c =  1.0000   68
 idif Ue xi dudx           1  0.16215476      3.30352783E-03   49.085335    
 Uenew xinew           2  3.45643833E-02  7.04169273E-04

 130   rms: 0.2585E+00   max: 0.1004E+01   D at   65  1
       a =  7.500      CL =  1.1566
      Cm = -0.0544     CD =  0.04043   =>   CDf =  0.00676    CDp =  0.03368

 Side 1  free  transition at x/c =  0.4045   61
 Side 2 forced transition at x/c =  1.0000   69

 131   rms: 0.2867E+00   max: -.1081E+01   T at   61  1   RLX: 0.462
       a =  7.500      CL =  1.2409
      Cm = -0.0569     CD =  0.03028   =>   CDf =  0.00589    CDp =  0.02439

 Side 1  free  transition at x/c =  0.4152   63
 Side 2 forced transition at x/c =  1.0000   68
 idif Ue xi dudx           1  0.16215643      3.30352783E-03   49.085838    
 Uenew xinew           2  3.45647410E-02  7.04169273E-04

 132   rms: 0.2585E+00   max: 0.1004E+01   D at   65  1
       a =  7.500      CL =  1.1566
      Cm = -0.0544     CD =  0.04043   =>   CDf =  0.00676    CDp =  0.03368

 Side 1  free  transition at x/c =  0.4045   61
 Side 2 forced transition at x/c =  1.0000   69

 133   rms: 0.2867E+00   max: -.1081E+01   T at   61  1   RLX: 0.462
       a =  7.500      CL =  1.2408
      Cm = -0.0569     CD =  0.03028   =>   CDf =  0.00589    CDp =  0.02439

 Side 1  free  transition at x/c =  0.4152   63
 Side 2 forced transition at x/c =  1.0000   68
 idif Ue xi dudx           1  0.16215736      3.30352783E-03   49.086117    
 Uenew xinew           2  3.45649347E-02  7.04169273E-04

 134   rms: 0.2585E+00   max: 0.1004E+01   D at   65  1
       a =  7.500      CL =  1.1566
      Cm = -0.0544     CD =  0.04043   =>   CDf =  0.00676    CDp =  0.03368

 Side 1  free  transition at x/c =  0.4045   61
 Side 2 forced transition at x/c =  1.0000   69

 135   rms: 0.2867E+00   max: -.1081E+01   T at   61  1   RLX: 0.462
       a =  7.500      CL =  1.2409
      Cm = -0.0569     CD =  0.03028   =>   CDf =  0.00589    CDp =  0.02439

 Side 1  free  transition at x/c =  0.4152   63
 Side 2 forced transition at x/c =  1.0000   68
 idif Ue xi dudx           1  0.16215500      3.30352783E-03   49.085403    
 Uenew xinew           2  3.45644318E-02  7.04169273E-04

 136   rms: 0.2585E+00   max: 0.1004E+01   D at   65  1
       a =  7.500      CL =  1.1566
      Cm = -0.0544     CD =  0.04043   =>   CDf =  0.00676    CDp =  0.03368

 Side 1  free  transition at x/c =  0.4045   61
 Side 2 forced transition at x/c =  1.0000   69

 137   rms: 0.2867E+00   max: -.1081E+01   T at   61  1   RLX: 0.462
       a =  7.500      CL =  1.2409
      Cm = -0.0569     CD =  0.03028   =>   CDf =  0.00589    CDp =  0.02439

 Side 1  free  transition at x/c =  0.4152   63
 Side 2 forced transition at x/c =  1.0000   68
 idif Ue xi dudx           1  0.16215712      3.30352783E-03   49.086044    
 Uenew xinew           2  3.45648825E-02  7.04169273E-04

 138   rms: 0.2585E+00   max: 0.1004E+01   D at   65  1
       a =  7.500      CL =  1.1566
      Cm = -0.0544     CD =  0.04043   =>   CDf =  0.00676    CDp =  0.03368

 Side 1  free  transition at x/c =  0.4045   61
 Side 2 forced transition at x/c =  1.0000   69

 139   rms: 0.2867E+00   max: -.1081E+01   T at   61  1   RLX: 0.462
       a =  7.500      CL =  1.2409
      Cm = -0.0569     CD =  0.03028   =>   CDf =  0.00589    CDp =  0.02439

 Side 1  free  transition at x/c =  0.4152   63
 Side 2 forced transition at x/c =  1.0000   68
 idif Ue xi dudx           1  0.16215709      3.30352783E-03   49.086037    
 Uenew xinew           2  3.45648788E-02  7.04169273E-04

 140   rms: 0.2585E+00   max: 0.1004E+01   D at   65  1
       a =  7.500      CL =  1.1566
      Cm = -0.0544     CD =  0.04043   =>   CDf =  0.00676    CDp =  0.03368

 Side 1  free  transition at x/c =  0.4045   61
 Side 2 forced transition at x/c =  1.0000   69

 141   rms: 0.2867E+00   max: -.1081E+01   T at   61  1   RLX: 0.462
       a =  7.500      CL =  1.2409
      Cm = -0.0569     CD =  0.03028   =>   CDf =  0.00589    CDp =  0.02439

 Side 1  free  transition at x/c =  0.4152   63
 Side 2 forced transition at x/c =  1.0000   68
 idif Ue xi dudx           1  0.16215689      3.30352783E-03   49.085979    
 Uenew xinew           2  3.45648378E-02  7.04169273E-04

 142   rms: 0.2585E+00   max: 0.1004E+01   D at   65  1
       a =  7.500      CL =  1.1566
      Cm = -0.0544     CD =  0.04043   =>   CDf =  0.00676    CDp =  0.03368

 Side 1  free  transition at x/c =  0.4045   61
 Side 2 forced transition at x/c =  1.0000   69

 143   rms: 0.2867E+00   max: -.1082E+01   T at   61  1   RLX: 0.462
       a =  7.500      CL =  1.2408
      Cm = -0.0569     CD =  0.03028   =>   CDf =  0.00589    CDp =  0.02439

 Side 1  free  transition at x/c =  0.4152   63
 Side 2 forced transition at x/c =  1.0000   68
 idif Ue xi dudx           1  0.16215368      3.30352783E-03   49.085003    
 Uenew xinew           2  3.45641524E-02  7.04169273E-04

 144   rms: 0.2585E+00   max: 0.1004E+01   D at   65  1
       a =  7.500      CL =  1.1566
      Cm = -0.0544     CD =  0.04043   =>   CDf =  0.00676    CDp =  0.03368

 Side 1  free  transition at x/c =  0.4045   61
 Side 2 forced transition at x/c =  1.0000   69

 145   rms: 0.2867E+00   max: -.1081E+01   T at   61  1   RLX: 0.462
       a =  7.500      CL =  1.2409
      Cm = -0.0569     CD =  0.03028   =>   CDf =  0.00589    CDp =  0.02439

 Side 1  free  transition at x/c =  0.4152   63
 Side 2 forced transition at x/c =  1.0000   68
 idif Ue xi dudx           1  0.16215836      3.30364704E-03   49.084648    
 Uenew xinew           2  3.45697515E-02  7.04288483E-04

 146   rms: 0.2585E+00   max: 0.1004E+01   D at   65  1
       a =  7.500      CL =  1.1566
      Cm = -0.0544     CD =  0.04043   =>   CDf =  0.00676    CDp =  0.03368

 Side 1  free  transition at x/c =  0.4045   61
 Side 2 forced transition at x/c =  1.0000   69

 147   rms: 0.2867E+00   max: -.1081E+01   T at   61  1   RLX: 0.462
       a =  7.500      CL =  1.2409
      Cm = -0.0569     CD =  0.03028   =>   CDf =  0.00589    CDp =  0.02439

 Side 1  free  transition at x/c =  0.4152   63
 Side 2 forced transition at x/c =  1.0000   68
 idif Ue xi dudx           1  0.16215667      3.30352783E-03   49.085911    
 Uenew xinew           2  3.45647894E-02  7.04169273E-04

 148   rms: 0.2585E+00   max: 0.1004E+01   D at   65  1
       a =  7.500      CL =  1.1566
      Cm = -0.0544     CD =  0.04043   =>   CDf =  0.00676    CDp =  0.03368

 Side 1  free  transition at x/c =  0.4045   61
 Side 2 forced transition at x/c =  1.0000   69

 149   rms: 0.2867E+00   max: -.1081E+01   T at   61  1   RLX: 0.462
       a =  7.500      CL =  1.2409
      Cm = -0.0569     CD =  0.03028   =>   CDf =  0.00589    CDp =  0.02439

 Side 1  free  transition at x/c =  0.4152   63
 Side 2 forced transition at x/c =  1.0000   68
 idif Ue xi dudx           1  0.16215608      3.30352783E-03   49.085732    
 Uenew xinew           2  3.45646627E-02  7.04169273E-04

 150   rms: 0.2585E+00   max: 0.1004E+01   D at   65  1
       a =  7.500      CL =  1.1566
      Cm = -0.0544     CD =  0.04043   =>   CDf =  0.00676    CDp =  0.03368

 Side 1  free  transition at x/c =  0.4045   61
 Side 2 forced transition at x/c =  1.0000   69

 151   rms: 0.2867E+00   max: -.1081E+01   T at   61  1   RLX: 0.462
       a =  7.500      CL =  1.2409
      Cm = -0.0569     CD =  0.03028   =>   CDf =  0.00589    CDp =  0.02439

 Side 1  free  transition at x/c =  0.4152   63
 Side 2 forced transition at x/c =  1.0000   68
 idif Ue xi dudx           1  0.16215663      3.30352783E-03   49.085896    
 Uenew xinew           2  3.45647782E-02  7.04169273E-04

 152   rms: 0.2585E+00   max: 0.1004E+01   D at   65  1
       a =  7.500      CL =  1.1566
      Cm = -0.0544     CD =  0.04043   =>   CDf =  0.00676    CDp =  0.03368

 Side 1  free  transition at x/c =  0.4045   61
 Side 2 forced transition at x/c =  1.0000   69

 153   rms: 0.2867E+00   max: -.1081E+01   T at   61  1   RLX: 0.462
       a =  7.500      CL =  1.2409
      Cm = -0.0569     CD =  0.03028   =>   CDf =  0.00589    CDp =  0.02439

 Side 1  free  transition at x/c =  0.4152   63
 Side 2 forced transition at x/c =  1.0000   68
 idif Ue xi dudx           1  0.16215740      3.30352783E-03   49.086132    
 Uenew xinew           2  3.45649458E-02  7.04169273E-04

 154   rms: 0.2585E+00   max: 0.1004E+01   D at   65  1
       a =  7.500      CL =  1.1566
      Cm = -0.0544     CD =  0.04043   =>   CDf =  0.00676    CDp =  0.03368

 Side 1  free  transition at x/c =  0.4045   61
 Side 2 forced transition at x/c =  1.0000   69

 155   rms: 0.2867E+00   max: -.1081E+01   T at   61  1   RLX: 0.462
       a =  7.500      CL =  1.2409
      Cm = -0.0569     CD =  0.03028   =>   CDf =  0.00589    CDp =  0.02439
 VISCAL:  Convergence failed
 Calculating wake trajectory ...
 Calculating source influence matrix ...

 Solving BL system ...

 Side 1  free  transition at x/c =  0.4152   63
 Side 2 forced transition at x/c =  1.0000   68

   1   rms: 0.2470E+00   max: 0.9294E+00   T at   63  1
       a =  8.000      CL =  1.2128
      Cm = -0.0536     CD =  0.04027   =>   CDf =  0.00658    CDp =  0.03368

 Side 1  free  transition at x/c =  0.4017   62
 Side 2 forced transition at x/c =  1.0000   68

   2   rms: 0.5989E+00   max: -.2166E+01   T at   62  1   RLX: 0.231
       a =  8.000      CL =  1.3231
      Cm = -0.0636     CD =  0.02911   =>   CDf =  0.00606    CDp =  0.02305

 Side 1  free  transition at x/c =  0.4121   63
 Side 2 forced transition at x/c =  1.0000   68

   3   rms: 0.2174E+00   max: 0.8418E+00   D at   65  1
       a =  8.000      CL =  1.2191
      Cm = -0.0527     CD =  0.03913   =>   CDf =  0.00666    CDp =  0.03247

 Side 1  free  transition at x/c =  0.4032   62
 Side 2 forced transition at x/c =  1.0000   68

   4   rms: 0.5500E+00   max: -.1977E+01   T at   62  1   RLX: 0.253
       a =  8.000      CL =  1.3178
      Cm = -0.0594     CD =  0.02781   =>   CDf =  0.00612    CDp =  0.02169

 Side 1  free  transition at x/c =  0.4138   63
 Side 2 forced transition at x/c =  1.0000   68

   5   rms: 0.2504E+00   max: 0.1009E+01   D at   64  1
       a =  8.000      CL =  1.2131
      Cm = -0.0528     CD =  0.03969   =>   CDf =  0.00659    CDp =  0.03310

 Side 1  free  transition at x/c =  0.4027   62
 Side 2 forced transition at x/c =  1.0000   68

   6   rms: 0.5471E+00   max: -.1962E+01   T at   62  1   RLX: 0.255
       a =  8.000      CL =  1.3162
      Cm = -0.0603     CD =  0.02845   =>   CDf =  0.00610    CDp =  0.02235

 Side 1  free  transition at x/c =  0.4133   63
 Side 2 forced transition at x/c =  1.0000   68

   7   rms: 0.2390E+00   max: 0.9549E+00   D at   65  1
       a =  8.000      CL =  1.2154
      Cm = -0.0528     CD =  0.03952   =>   CDf =  0.00661    CDp =  0.03291

 Side 1  free  transition at x/c =  0.4028   62
 Side 2 forced transition at x/c =  1.0000   68

   8   rms: 0.5455E+00   max: -.1956E+01   T at   62  1   RLX: 0.256
       a =  8.000      CL =  1.3174
      Cm = -0.0601     CD =  0.02824   =>   CDf =  0.00610    CDp =  0.02214

 Side 1  free  transition at x/c =  0.4134   63
 Side 2 forced transition at x/c =  1.0000   68

   9   rms: 0.2425E+00   max: 0.9694E+00   D at   65  1
       a =  8.000      CL =  1.2145
      Cm = -0.0528     CD =  0.03957   =>   CDf =  0.00660    CDp =  0.03297

 Side 1  free  transition at x/c =  0.4028   62
 Side 2 forced transition at x/c =  1.0000   68

  10   rms: 0.5457E+00   max: -.1955E+01   T at   62  1   RLX: 0.256
       a =  8.000      CL =  1.3168
      Cm = -0.0601     CD =  0.02830   =>   CDf =  0.00610    CDp =  0.02219

 Side 1  free  transition at x/c =  0.4134   63
 Side 2 forced transition at x/c =  1.0000   68

  11   rms: 0.2415E+00   max: 0.9649E+00   D at   65  1
       a =  8.000      CL =  1.2148
      Cm = -0.0528     CD =  0.03957   =>   CDf =  0.00660    CDp =  0.03296

 Side 1  free  transition at x/c =  0.4028   62
 Side 2 forced transition at x/c =  1.0000   68

  12   rms: 0.5463E+00   max: -.1959E+01   T at   62  1   RLX: 0.255
       a =  8.000      CL =  1.3168
      Cm = -0.0601     CD =  0.02827   =>   CDf =  0.00610    CDp =  0.02217

 Side 1  free  transition at x/c =  0.4134   63
 Side 2 forced transition at x/c =  1.0000   68

  13   rms: 0.2419E+00   max: 0.9666E+00   D at   65  1
       a =  8.000      CL =  1.2147
      Cm = -0.0528     CD =  0.03957   =>   CDf =  0.00660    CDp =  0.03297

 Side 1  free  transition at x/c =  0.4028   62
 Side 2 forced transition at x/c =  1.0000   68

  14   rms: 0.5462E+00   max: -.1957E+01   T at   62  1   RLX: 0.255
       a =  8.000      CL =  1.3170
      Cm = -0.0602     CD =  0.02829   =>   CDf =  0.00610    CDp =  0.02219

 Side 1  free  transition at x/c =  0.4134   63
 Side 2 forced transition at x/c =  1.0000   68

  15   rms: 0.2416E+00   max: 0.9658E+00   D at   65  1
       a =  8.000      CL =  1.2148
      Cm = -0.0528     CD =  0.03956   =>   CDf =  0.00660    CDp =  0.03295

 Side 1  free  transition at x/c =  0.4028   62
 Side 2 forced transition at x/c =  1.0000   68

  16   rms: 0.5455E+00   max: -.1955E+01   T at   62  1   RLX: 0.256
       a =  8.000      CL =  1.3171
      Cm = -0.0602     CD =  0.02831   =>   CDf =  0.00610    CDp =  0.02220

 Side 1  free  transition at x/c =  0.4134   63
 Side 2 forced transition at x/c =  1.0000   68

  17   rms: 0.2415E+00   max: 0.9653E+00   D at   65  1
       a =  8.000      CL =  1.2148
      Cm = -0.0528     CD =  0.03955   =>   CDf =  0.00660    CDp =  0.03295

 Side 1  free  transition at x/c =  0.4028   62
 Side 2 forced transition at x/c =  1.0000   68

  18   rms: 0.5456E+00   max: -.1955E+01   T at   62  1   RLX: 0.256
       a =  8.000      CL =  1.3171
      Cm = -0.0602     CD =  0.02829   =>   CDf =  0.00610    CDp =  0.02218

 Side 1  free  transition at x/c =  0.4134   63
 Side 2 forced transition at x/c =  1.0000   68

  19   rms: 0.2416E+00   max: 0.9654E+00   D at   65  1
       a =  8.000      CL =  1.2148
      Cm = -0.0528     CD =  0.03956   =>   CDf =  0.00660    CDp =  0.03295

 Side 1  free  transition at x/c =  0.4028   62
 Side 2 forced transition at x/c =  1.0000   68

  20   rms: 0.5458E+00   max: -.1956E+01   T at   62  1   RLX: 0.256
       a =  8.000      CL =  1.3171
      Cm = -0.0602     CD =  0.02830   =>   CDf =  0.00610    CDp =  0.02220

 Side 1  free  transition at x/c =  0.4134   63
 Side 2 forced transition at x/c =  1.0000   68

  21   rms: 0.2415E+00   max: 0.9654E+00   D at   65  1
       a =  8.000      CL =  1.2148
      Cm = -0.0528     CD =  0.03955   =>   CDf =  0.00660    CDp =  0.03295

 Side 1  free  transition at x/c =  0.4028   62
 Side 2 forced transition at x/c =  1.0000   68

  22   rms: 0.5455E+00   max: -.1955E+01   T at   62  1   RLX: 0.256

[TIMEOUT]
