  
       XFOIL         Version 6.99
  
 Calculated polar for: NASA LRN 1015 (NASA TM 102840)                  
  
 1 1 Reynolds number fixed          Mach number fixed         
  
 xtrf =   1.000 (top)        1.000 (bottom)  
 Mach =   0.000     Re =     0.600 e 6     Ncrit =   9.000
  
   alpha    CL        CD       CDp       CM     Top_Xtr  Bot_Xtr
  ------ -------- --------- --------- -------- -------- --------
  16.250   1.5073   0.06043   0.05489  -0.0315   0.0716   1.0000
  16.500   1.5116   0.06269   0.05720  -0.0312   0.0697   1.0000
  16.750   1.5121   0.06542   0.05996  -0.0310   0.0674   1.0000
  17.000   1.5211   0.06723   0.06188  -0.0310   0.0661   1.0000
  17.250   1.5291   0.06918   0.06393  -0.0310   0.0644   1.0000
  17.500   1.5345   0.07145   0.06626  -0.0311   0.0624   1.0000
  17.750   1.5375   0.07405   0.06891  -0.0313   0.0606   1.0000
  18.000   1.5374   0.07707   0.07197  -0.0315   0.0586   1.0000
  18.250   1.5410   0.07968   0.07468  -0.0319   0.0569   1.0000
  18.750   1.5507   0.08466   0.07982  -0.0327   0.0528   1.0000
  19.250   1.5484   0.09139   0.08667  -0.0341   0.0487   1.0000
  19.750   1.5518   0.09749   0.09294  -0.0358   0.0439   1.0000
  20.250   1.5463   0.10500   0.10060  -0.0381   0.0389   1.0000
  20.750   1.5329   0.11392   0.10963  -0.0414   0.0314   1.0000
  21.250   1.5059   0.12531   0.12110  -0.0462   0.0233   1.0000
  21.750   1.4762   0.13750   0.13346  -0.0520   0.0185   1.0000
  22.250   1.4446   0.15042   0.14656  -0.0589   0.0145   1.0000
