  
       XFOIL         Version 6.99
  
 Calculated polar for: NASA/LANGLEY LS(1)-0421 AIRFOIL                 
  
 1 1 Reynolds number fixed          Mach number fixed         
  
 xtrf =   1.000 (top)        1.000 (bottom)  
 Mach =   0.000     Re =     0.200 e 6     Ncrit =   9.000
  
   alpha    CL        CD       CDp       CM     Top_Xtr  Bot_Xtr
  ------ -------- --------- --------- -------- -------- --------
  -4.000  -0.0954   0.02434   0.01877  -0.0838   0.8150   0.6473
  -3.500  -0.0450   0.02553   0.01991  -0.0818   0.8093   0.6635
  -3.000   0.0189   0.02621   0.02049  -0.0821   0.8062   0.6806
  -2.500   0.0690   0.02770   0.02200  -0.0777   0.8028   0.6878
  -1.500   0.1384   0.02975   0.02405  -0.0702   0.7844   0.7098
  -1.000   0.2175   0.02916   0.02333  -0.0750   0.7821   0.7239
   0.000   0.2355   0.03215   0.02641  -0.0615   0.7493   0.7430
   0.500   0.3026   0.03152   0.02579  -0.0616   0.7453   0.7498
   1.000   0.3861   0.03026   0.02449  -0.0646   0.7433   0.7570
   1.500   0.4719   0.02901   0.02318  -0.0709   0.7375   0.7665
   2.500   0.6015   0.02656   0.02076  -0.0714   0.7221   0.7762
   3.000   0.6647   0.02549   0.01970  -0.0731   0.7078   0.7828
   3.500   0.7636   0.02323   0.01735  -0.0802   0.7012   0.7877
   4.000   0.8078   0.02254   0.01676  -0.0776   0.6852   0.7916
   4.500   0.8637   0.02166   0.01593  -0.0773   0.6687   0.7965
   5.000   0.9250   0.02073   0.01502  -0.0785   0.6484   0.8012
   5.500   0.9901   0.01992   0.01416  -0.0807   0.6219   0.8068
   6.000   1.0184   0.01967   0.01393  -0.0756   0.5836   0.8106
   6.500   1.0413   0.01988   0.01392  -0.0699   0.5276   0.8152
   7.000   1.0620   0.02126   0.01488  -0.0654   0.4544   0.8210
   7.500   1.0757   0.02359   0.01678  -0.0612   0.3861   0.8263
   8.000   1.0808   0.02614   0.01902  -0.0556   0.3311   0.8305
   8.500   1.0939   0.02877   0.02142  -0.0518   0.2849   0.8353
   9.000   1.1136   0.03145   0.02389  -0.0495   0.2491   0.8407
   9.500   1.1349   0.03397   0.02625  -0.0473   0.2226   0.8459
  10.000   1.1564   0.03631   0.02846  -0.0447   0.2030   0.8506
  10.000   1.1564   0.03631   0.02846  -0.0447   0.2030   0.8506
  10.250   1.1712   0.03735   0.02956  -0.0441   0.1943   0.8533
  10.500   1.1842   0.03857   0.03065  -0.0433   0.1869   0.8560
  10.750   1.2006   0.03967   0.03182  -0.0431   0.1797   0.8589
  11.000   1.2155   0.04090   0.03295  -0.0427   0.1735   0.8614
  11.250   1.2288   0.04189   0.03400  -0.0416   0.1680   0.8639
  11.500   1.2417   0.04296   0.03511  -0.0407   0.1628   0.8667
  11.750   1.2571   0.04394   0.03595  -0.0398   0.1579   0.8699
  12.000   1.2712   0.04514   0.03729  -0.0393   0.1535   0.8736
  12.250   1.2865   0.04638   0.03854  -0.0391   0.1492   0.8771
  12.500   1.3038   0.04719   0.03922  -0.0384   0.1450   0.8800
  12.750   1.3145   0.04849   0.04068  -0.0375   0.1416   0.8831
  13.000   1.3275   0.04970   0.04195  -0.0368   0.1380   0.8866
  13.250   1.3426   0.05085   0.04308  -0.0364   0.1347   0.8903
  13.500   1.3613   0.05190   0.04410  -0.0363   0.1314   0.8938
  13.750   1.3703   0.05333   0.04568  -0.0353   0.1284   0.8973
  14.000   1.3815   0.05463   0.04704  -0.0346   0.1255   0.9013
  14.250   1.3968   0.05572   0.04808  -0.0341   0.1228   0.9058
  14.500   1.4133   0.05686   0.04924  -0.0337   0.1201   0.9103
  14.750   1.4196   0.05849   0.05104  -0.0327   0.1177   0.9152
  15.000   1.4294   0.06002   0.05265  -0.0320   0.1153   0.9206
  15.250   1.4424   0.06129   0.05391  -0.0316   0.1130   0.9259
  15.500   1.4620   0.06179   0.05432  -0.0308   0.1105   0.9318
  15.750   1.4638   0.06411   0.05687  -0.0302   0.1087   0.9381
  16.000   1.4675   0.06597   0.05888  -0.0292   0.1068   0.9456
