
 ===================================================
  XFOIL Version 6.99
  Copyright (C) 2000   Mark Drela, Harold Youngren

  This software comes with ABSOLUTELY NO WARRANTY,
    subject to the GNU General Public License.

  Caveat computor
 ===================================================

 File  xfoil.def  not found

   QUIT    Exit program

  .OPER    Direct operating point(s)
  .MDES    Complex mapping design routine
  .QDES    Surface speed design routine
  .GDES    Geometry design routine

   SAVE f  Write airfoil to labeled coordinate file
   PSAV f  Write airfoil to plain coordinate file
   ISAV f  Write airfoil to ISES coordinate file
   MSAV f  Write airfoil to MSES coordinate file
   REVE    Reverse written-airfoil node ordering

   LOAD f  Read buffer airfoil from coordinate file
   NACA i  Set NACA 4,5-digit airfoil and buffer airfoil
   INTE    Set buffer airfoil by interpolating two airfoils
   NORM    Buffer airfoil normalization toggle
   XYCM rr Change CM reference location, currently  0.25000 0.00000

   BEND    Display structural properties of current airfoil

   PCOP    Set current-airfoil panel nodes directly from buffer airfoil points
   PANE    Set current-airfoil panel nodes ( 160 ) based on curvature
  .PPAR    Show/change paneling

  .PLOP    Plotting options

   WDEF f  Write  current-settings file
   RDEF f  Reread current-settings file
   NAME s  Specify new airfoil name
   NINC    Increment name version number

   Z       Zoom    | (available in all menus)
   U       Unzoom  | 

 XFOIL   c>  
 Labeled airfoil file.  Name:  LWK 79-100                                      

 Number of input coordinate points:  97
 Counterclockwise ordering
 Max thickness =     0.099940  at x =   0.279
 Max camber    =    -0.000000  at x =   0.067

  LE  x,y  =   0.00000   0.00000  |   Chord =   1.00000
  TE  x,y  =   1.00000   0.00000  |

 Current airfoil nodes set from buffer airfoil nodes (  97 )

 XFOIL   c>  
 XFOIL   c>  
 Sharp trailing edge

 Paneling parameters used...
   Number of panel nodes       160
   Panel bunching parameter    1.000
   TE/LE panel density ratio   0.150
   Refined-area/LE panel density ratio    0.200
   Top    side refined area x/c limits  1.000 1.000
   Bottom side refined area x/c limits  1.000 1.000

 XFOIL   c>  
.OPERi   c>  
 Xtr/c     =  1.0000    top    side
 Xtr/c     =  1.0000    bottom side
 Ncrit     =    9.00   ( 0.070 % turb. level )
 Vacc      =  0.0100

 Klag  =  5.6000     Uxwt  =    1.00
 A     =  6.7000     B     =  0.7500       KCt = 0.01485
 CtiniK=  1.8000     CtiniX=  3.3000

..VPAR   c>  
..VPAR   c>  
.OPERi   c>  
 M  =    0.0000
 Re =    200000

.OPERv   c>  
.OPERv   c>  
.OPERv   c>  
 Polar  1 newly created for accumulation
 Airfoil archived with polar: LWK 79-100                                      

Enter  polar save filename  OR  <return> for no file   s>  
 New polar save file available

Enter  polar dump filename  OR  <return> for no file   s>  
 Polar dump file will NOT be written

 Polar accumulation enabled

.OPERva   c>   Calculating unit vorticity distributions ...
 Calculating wake trajectory ...
 Calculating source influence matrix ...

 Solving BL system ...

 Initializing BL ...
    side            1  ...
 MRCHUE: Inverse mode at  47     Hk =   3.800
 MRCHUE: Inverse mode at  48     Hk =   4.186
 MRCHUE: Inverse mode at  49     Hk =   4.563
 MRCHUE: Inverse mode at  50     Hk =   4.931
 MRCHUE: Inverse mode at  51     Hk =   5.292
 MRCHUE: Inverse mode at  52     Hk =   5.647
 MRCHUE: Inverse mode at  53     Hk =   5.995
 MRCHUE: Inverse mode at  54     Hk =   6.338
 MRCHUE: Inverse mode at  55     Hk =   6.677
 MRCHUE: Inverse mode at  56     Hk =   7.012
 MRCHUE: Inverse mode at  57     Hk =   7.343
 MRCHUE: Inverse mode at  58     Hk =   7.671
 MRCHUE: Inverse mode at  59     Hk =   7.996
 MRCHUE: Inverse mode at  60     Hk =   8.318
 MRCHUE: Inverse mode at  61     Hk =   8.639
 MRCHUE: Inverse mode at  62     Hk =   8.957
 MRCHUE: Inverse mode at  63     Hk =   9.273
 MRCHUE: Inverse mode at  64     Hk =   9.588
 MRCHUE: Inverse mode at  65     Hk =   9.271
 MRCHUE: Inverse mode at  66     Hk =   7.887
 MRCHUE: Inverse mode at  67     Hk =   6.892
 MRCHUE: Inverse mode at  68     Hk =   6.106
 MRCHUE: Inverse mode at  69     Hk =   5.454
 MRCHUE: Inverse mode at  70     Hk =   4.896
 MRCHUE: Inverse mode at  71     Hk =   4.410
 MRCHUE: Inverse mode at  72     Hk =   3.983
 MRCHUE: Inverse mode at  73     Hk =   3.613
 MRCHUE: Inverse mode at  74     Hk =   3.303
    side            2  ...
 MRCHUE: Inverse mode at  32     Hk =   4.051
 MRCHUE: Inverse mode at  33     Hk =   4.613
 MRCHUE: Inverse mode at  34     Hk =   5.156
 MRCHUE: Inverse mode at  35     Hk =   5.682
 MRCHUE: Inverse mode at  36     Hk =   6.194
 MRCHUE: Inverse mode at  37     Hk =   6.695
 MRCHUE: Inverse mode at  38     Hk =   7.186
 MRCHUE: Inverse mode at  39     Hk =   5.534
 MRCHUE: Inverse mode at  40     Hk =   3.744
 MRCHUE: Inverse mode at  41     Hk =   2.500

 Side 1  free  transition at x/c =  0.8451   65
 Side 2  free  transition at x/c =  0.3037   39

   1   rms: 0.2921E+00   max: -.2521E+01   T at   65  1   RLX: 0.198
       a = -4.000      CL = -0.4978
      Cm =  0.0161     CD =  0.01473   =>   CDf =  0.00704    CDp =  0.00769

 Side 1  free  transition at x/c =  0.8728   67
 Side 2  free  transition at x/c =  0.3086   39

   2   rms: 0.2224E+00   max: -.1739E+01   T at   67  1   RLX: 0.288
       a = -4.000      CL = -0.4745
      Cm =  0.0075     CD =  0.01283   =>   CDf =  0.00697    CDp =  0.00586

 Side 1  free  transition at x/c =  0.9051   69
 Side 2  free  transition at x/c =  0.3299   41

   3   rms: 0.3117E+00   max: -.1968E+01   T at   69  1   RLX: 0.254
       a = -4.000      CL = -0.4631
      Cm =  0.0033     CD =  0.01080   =>   CDf =  0.00684    CDp =  0.00397

 MRCHDU: Convergence failed at  74  side 1    Res =  0.1064E+01
 Side 1  free  transition at x/c =  0.9486   72
 Side 2  free  transition at x/c =  0.3467   42

   4   rms: 0.2594E+00   max: -.2727E+01   C at   72  1   RLX: 0.183
       a = -4.000      CL = -0.4663
      Cm =  0.0016     CD =  0.01054   =>   CDf =  0.00675    CDp =  0.00379

 Side 1  free  transition at x/c =  0.9660   73
 Side 2  free  transition at x/c =  0.3550   42

   5   rms: 0.2034E+00   max: -.2386E+01   C at   42  2   RLX: 0.210
       a = -4.000      CL = -0.4737
      Cm =  0.0033     CD =  0.01055   =>   CDf =  0.00644    CDp =  0.00411

 Side 1 forced transition at x/c =  1.0000   76
 Side 2  free  transition at x/c =  0.3596   43

   6   rms: 0.2585E+00   max: -.2116E+01   C at   76  1   RLX: 0.236
       a = -4.000      CL = -0.4730
      Cm =  0.0040     CD =  0.01003   =>   CDf =  0.00664    CDp =  0.00339

 Side 1 forced transition at x/c =  1.0000   76
 Side 2  free  transition at x/c =  0.3720   43

   7   rms: 0.8768E-01   max: -.6720E+00   T at   43  2   RLX: 0.744
       a = -4.000      CL = -0.4721
      Cm =  0.0027     CD =  0.01028   =>   CDf =  0.00666    CDp =  0.00362

 MRCHDU: Convergence failed at  45  side 2    Res =  0.4639E+01
 MRCHDU: Convergence failed at  46  side 2    Res =  0.8244E+00
 MRCHDU: Convergence failed at  47  side 2    Res =  0.1341E+01
 MRCHDU: Convergence failed at  48  side 2    Res =  0.1712E+01
 MRCHDU: Convergence failed at  49  side 2    Res =  0.2172E+01
 MRCHDU: Convergence failed at  50  side 2    Res =  0.2640E+01
 MRCHDU: Convergence failed at  51  side 2    Res =  0.3010E+01
 MRCHDU: Convergence failed at  52  side 2    Res =  0.3060E+01
 MRCHDU: Convergence failed at  53  side 2    Res =  0.3210E+01
 MRCHDU: Convergence failed at  54  side 2    Res =  0.3261E+01
 MRCHDU: Convergence failed at  55  side 2    Res =  0.3254E+01
 MRCHDU: Convergence failed at  56  side 2    Res =  0.3208E+01
 MRCHDU: Convergence failed at  57  side 2    Res =  0.3167E+01
 MRCHDU: Convergence failed at  58  side 2    Res =  0.3126E+01
 MRCHDU: Convergence failed at  59  side 2    Res =  0.3089E+01
 MRCHDU: Convergence failed at  60  side 2    Res =  0.3064E+01
 MRCHDU: Convergence failed at  61  side 2    Res =  0.3046E+01
 MRCHDU: Convergence failed at  62  side 2    Res =  0.3038E+01
 MRCHDU: Convergence failed at  63  side 2    Res =  0.3030E+01
 MRCHDU: Convergence failed at  64  side 2    Res =  0.3034E+01
 MRCHDU: Convergence failed at  65  side 2    Res =  0.3037E+01
 MRCHDU: Convergence failed at  66  side 2    Res =  0.3051E+01
 MRCHDU: Convergence failed at  67  side 2    Res =  0.3066E+01
 MRCHDU: Convergence failed at  68  side 2    Res =  0.3081E+01
 MRCHDU: Convergence failed at  69  side 2    Res =  0.2618E+01
 MRCHDU: Convergence failed at  70  side 2    Res =  0.2688E+01
 MRCHDU: Convergence failed at  71  side 2    Res =  0.2750E+01
 MRCHDU: Convergence failed at  72  side 2    Res =  0.2807E+01
 MRCHDU: Convergence failed at  73  side 2    Res =  0.2857E+01
 MRCHDU: Convergence failed at  74  side 2    Res =  0.2903E+01
 MRCHDU: Convergence failed at  75  side 2    Res =  0.2946E+01
 MRCHDU: Convergence failed at  76  side 2    Res =  0.3006E+01
 MRCHDU: Convergence failed at  77  side 2    Res =  0.3075E+01
 MRCHDU: Convergence failed at  78  side 2    Res =  0.3152E+01
 MRCHDU: Convergence failed at  79  side 2    Res =  0.3266E+01
 MRCHDU: Convergence failed at  80  side 2    Res =  0.3422E+01
 MRCHDU: Convergence failed at  81  side 2    Res =  0.3444E+01
 MRCHDU: Convergence failed at  82  side 2    Res =  0.3725E+01
 MRCHDU: Convergence failed at  83  side 2    Res =  0.4106E+01
 MRCHDU: Convergence failed at  84  side 2    Res =  0.4691E+01
 MRCHDU: Convergence failed at  85  side 2    Res =  0.5877E+01
 MRCHDU: Convergence failed at  86  side 2    Res =  0.1029E+02
 Side 1 forced transition at x/c =  1.0000   76
 Side 2  free  transition at x/c =  0.9230   80

   8   rms: 0.4447E+00   max: 0.3465E+01   C at   80  2   RLX: 0.203
       a = -4.000      CL = -0.6851
      Cm =  0.1055     CD =  0.00558   =>   CDf =  0.00517    CDp =  0.00040

 Side 1 forced transition at x/c =  1.0000   76
 Side 2  free  transition at x/c =  0.6990   65

   9   rms: 0.7900E+00   max: 0.1196E+02   C at   65  2   RLX: 0.125
       a = -4.000      CL = -0.6512
      Cm =  0.0891     CD =  0.00613   =>   CDf =  0.00598    CDp =  0.00015

 Side 1 forced transition at x/c =  1.0000   76
 Side 2  free  transition at x/c =  0.6183   60

  10   rms: 0.4311E+00   max: 0.6190E+01   C at   60  2   RLX: 0.242
       a = -4.000      CL = -0.6069
      Cm =  0.0667     CD =  0.00692   =>   CDf =  0.00628    CDp =  0.00063

 Side 1 forced transition at x/c =  1.0000   76
 Side 2  free  transition at x/c =  0.5405   55

  11   rms: 0.2238E+00   max: 0.2482E+01   C at   55  2   RLX: 0.604
       a = -4.000      CL = -0.5286
      Cm =  0.0274     CD =  0.00841   =>   CDf =  0.00644    CDp =  0.00197

 Side 1 forced transition at x/c =  1.0000   76
 Side 2  free  transition at x/c =  0.4704   50

  12   rms: 0.7287E-01   max: 0.2604E+00   D at   54  2
       a = -4.000      CL = -0.4744
      Cm =  0.0021     CD =  0.00987   =>   CDf =  0.00631    CDp =  0.00356

 Side 1 forced transition at x/c =  1.0000   76
 Side 2  free  transition at x/c =  0.4461   48

  13   rms: 0.6547E-02   max: -.9905E-01   D at   49  2
       a = -4.000      CL = -0.4720
      Cm =  0.0017     CD =  0.01011   =>   CDf =  0.00614    CDp =  0.00397

 Side 1 forced transition at x/c =  1.0000   76
 Side 2  free  transition at x/c =  0.4469   48

  14   rms: 0.4061E-02   max: -.6251E-01   C at   48  2
       a = -4.000      CL = -0.4720
      Cm =  0.0017     CD =  0.01011   =>   CDf =  0.00615    CDp =  0.00396

 Side 1 forced transition at x/c =  1.0000   76
 Side 2  free  transition at x/c =  0.4467   48

  15   rms: 0.4246E-02   max: -.6498E-01   C at   48  2
       a = -4.000      CL = -0.4719
      Cm =  0.0017     CD =  0.01011   =>   CDf =  0.00616    CDp =  0.00396

 Side 1 forced transition at x/c =  1.0000   76
 Side 2  free  transition at x/c =  0.4468   48

  16   rms: 0.4224E-02   max: -.6470E-01   C at   48  2
       a = -4.000      CL = -0.4719
      Cm =  0.0017     CD =  0.01011   =>   CDf =  0.00616    CDp =  0.00396

 Side 1 forced transition at x/c =  1.0000   76
 Side 2  free  transition at x/c =  0.4468   48

  17   rms: 0.4227E-02   max: -.6474E-01   C at   48  2
       a = -4.000      CL = -0.4719
      Cm =  0.0017     CD =  0.01011   =>   CDf =  0.00616    CDp =  0.00396

 Side 1 forced transition at x/c =  1.0000   76
 Side 2  free  transition at x/c =  0.4468   48

  18   rms: 0.4227E-02   max: -.6473E-01   C at   48  2
       a = -4.000      CL = -0.4719
      Cm =  0.0017     CD =  0.01011   =>   CDf =  0.00616    CDp =  0.00396

 Side 1 forced transition at x/c =  1.0000   76
 Side 2  free  transition at x/c =  0.4468   48

  19   rms: 0.4227E-02   max: -.6473E-01   C at   48  2
       a = -4.000      CL = -0.4719
      Cm =  0.0017     CD =  0.01011   =>   CDf =  0.00616    CDp =  0.00396

 Side 1 forced transition at x/c =  1.0000   76
 Side 2  free  transition at x/c =  0.4468   48

  20   rms: 0.4227E-02   max: -.6473E-01   C at   48  2
       a = -4.000      CL = -0.4719
      Cm =  0.0017     CD =  0.01011   =>   CDf =  0.00616    CDp =  0.00396

 Side 1 forced transition at x/c =  1.0000   76
 Side 2  free  transition at x/c =  0.4468   48

  21   rms: 0.4227E-02   max: -.6474E-01   C at   48  2
       a = -4.000      CL = -0.4719
      Cm =  0.0017     CD =  0.01011   =>   CDf =  0.00616    CDp =  0.00396

 Side 1 forced transition at x/c =  1.0000   76
 Side 2  free  transition at x/c =  0.4468   48

  22   rms: 0.4227E-02   max: -.6473E-01   C at   48  2
       a = -4.000      CL = -0.4719
      Cm =  0.0017     CD =  0.01011   =>   CDf =  0.00616    CDp =  0.00396

 Side 1 forced transition at x/c =  1.0000   76
 Side 2  free  transition at x/c =  0.4468   48

  23   rms: 0.4227E-02   max: -.6473E-01   C at   48  2
       a = -4.000      CL = -0.4719
      Cm =  0.0017     CD =  0.01011   =>   CDf =  0.00616    CDp =  0.00396

 Side 1 forced transition at x/c =  1.0000   76
 Side 2  free  transition at x/c =  0.4468   48

  24   rms: 0.4227E-02   max: -.6474E-01   C at   48  2
       a = -4.000      CL = -0.4719
      Cm =  0.0017     CD =  0.01011   =>   CDf =  0.00616    CDp =  0.00396

 Side 1 forced transition at x/c =  1.0000   76
 Side 2  free  transition at x/c =  0.4468   48

  25   rms: 0.4227E-02   max: -.6474E-01   C at   48  2
       a = -4.000      CL = -0.4719
      Cm =  0.0017     CD =  0.01011   =>   CDf =  0.00616    CDp =  0.00396

 Side 1 forced transition at x/c =  1.0000   76
 Side 2  free  transition at x/c =  0.4468   48

  26   rms: 0.4227E-02   max: -.6474E-01   C at   48  2
       a = -4.000      CL = -0.4719
      Cm =  0.0017     CD =  0.01011   =>   CDf =  0.00616    CDp =  0.00396

 Side 1 forced transition at x/c =  1.0000   76
 Side 2  free  transition at x/c =  0.4468   48

  27   rms: 0.4227E-02   max: -.6473E-01   C at   48  2
       a = -4.000      CL = -0.4719
      Cm =  0.0017     CD =  0.01011   =>   CDf =  0.00616    CDp =  0.00396

 Side 1 forced transition at x/c =  1.0000   76
 Side 2  free  transition at x/c =  0.4468   48

  28   rms: 0.4227E-02   max: -.6474E-01   C at   48  2
       a = -4.000      CL = -0.4719
      Cm =  0.0017     CD =  0.01011   =>   CDf =  0.00616    CDp =  0.00396

 Side 1 forced transition at x/c =  1.0000   76
 Side 2  free  transition at x/c =  0.4468   48

  29   rms: 0.4227E-02   max: -.6473E-01   C at   48  2
       a = -4.000      CL = -0.4719
      Cm =  0.0017     CD =  0.01011   =>   CDf =  0.00616    CDp =  0.00396

 Side 1 forced transition at x/c =  1.0000   76
 Side 2  free  transition at x/c =  0.4468   48

  30   rms: 0.4227E-02   max: -.6474E-01   C at   48  2
       a = -4.000      CL = -0.4719
      Cm =  0.0017     CD =  0.01011   =>   CDf =  0.00616    CDp =  0.00396

 Side 1 forced transition at x/c =  1.0000   76
 Side 2  free  transition at x/c =  0.4468   48

  31   rms: 0.4227E-02   max: -.6473E-01   C at   48  2
       a = -4.000      CL = -0.4719
      Cm =  0.0017     CD =  0.01011   =>   CDf =  0.00616    CDp =  0.00396

 Side 1 forced transition at x/c =  1.0000   76
 Side 2  free  transition at x/c =  0.4468   48

  32   rms: 0.4227E-02   max: -.6473E-01   C at   48  2
       a = -4.000      CL = -0.4719
      Cm =  0.0017     CD =  0.01011   =>   CDf =  0.00616    CDp =  0.00396

 Side 1 forced transition at x/c =  1.0000   76
 Side 2  free  transition at x/c =  0.4468   48

  33   rms: 0.4227E-02   max: -.6473E-01   C at   48  2
       a = -4.000      CL = -0.4719
      Cm =  0.0017     CD =  0.01011   =>   CDf =  0.00616    CDp =  0.00396

 Side 1 forced transition at x/c =  1.0000   76
 Side 2  free  transition at x/c =  0.4468   48

  34   rms: 0.4227E-02   max: -.6473E-01   C at   48  2
       a = -4.000      CL = -0.4719
      Cm =  0.0017     CD =  0.01011   =>   CDf =  0.00616    CDp =  0.00396

 Side 1 forced transition at x/c =  1.0000   76
 Side 2  free  transition at x/c =  0.4468   48

  35   rms: 0.4227E-02   max: -.6474E-01   C at   48  2
       a = -4.000      CL = -0.4719
      Cm =  0.0017     CD =  0.01011   =>   CDf =  0.00616    CDp =  0.00396

 Side 1 forced transition at x/c =  1.0000   76
 Side 2  free  transition at x/c =  0.4468   48

  36   rms: 0.4227E-02   max: -.6473E-01   C at   48  2
       a = -4.000      CL = -0.4719
      Cm =  0.0017     CD =  0.01011   =>   CDf =  0.00616    CDp =  0.00396

 Side 1 forced transition at x/c =  1.0000   76
 Side 2  free  transition at x/c =  0.4468   48

  37   rms: 0.4227E-02   max: -.6474E-01   C at   48  2
       a = -4.000      CL = -0.4719
      Cm =  0.0017     CD =  0.01011   =>   CDf =  0.00616    CDp =  0.00396

 Side 1 forced transition at x/c =  1.0000   76
 Side 2  free  transition at x/c =  0.4468   48

  38   rms: 0.4227E-02   max: -.6474E-01   C at   48  2
       a = -4.000      CL = -0.4719
      Cm =  0.0017     CD =  0.01011   =>   CDf =  0.00616    CDp =  0.00396

 Side 1 forced transition at x/c =  1.0000   76
 Side 2  free  transition at x/c =  0.4468   48

  39   rms: 0.4227E-02   max: -.6474E-01   C at   48  2
       a = -4.000      CL = -0.4719
      Cm =  0.0017     CD =  0.01011   =>   CDf =  0.00616    CDp =  0.00396

 Side 1 forced transition at x/c =  1.0000   76
 Side 2  free  transition at x/c =  0.4468   48

  40   rms: 0.4227E-02   max: -.6473E-01   C at   48  2
       a = -4.000      CL = -0.4719
      Cm =  0.0017     CD =  0.01011   =>   CDf =  0.00616    CDp =  0.00396

 Side 1 forced transition at x/c =  1.0000   76
 Side 2  free  transition at x/c =  0.4468   48

  41   rms: 0.4227E-02   max: -.6474E-01   C at   48  2
       a = -4.000      CL = -0.4719
      Cm =  0.0017     CD =  0.01011   =>   CDf =  0.00616    CDp =  0.00396

 Side 1 forced transition at x/c =  1.0000   76
 Side 2  free  transition at x/c =  0.4468   48

  42   rms: 0.4227E-02   max: -.6473E-01   C at   48  2
       a = -4.000      CL = -0.4719
      Cm =  0.0017     CD =  0.01011   =>   CDf =  0.00616    CDp =  0.00396

 Side 1 forced transition at x/c =  1.0000   76
 Side 2  free  transition at x/c =  0.4468   48

  43   rms: 0.4227E-02   max: -.6474E-01   C at   48  2
       a = -4.000      CL = -0.4719
      Cm =  0.0017     CD =  0.01011   =>   CDf =  0.00616    CDp =  0.00396

 Side 1 forced transition at x/c =  1.0000   76
 Side 2  free  transition at x/c =  0.4468   48

  44   rms: 0.4227E-02   max: -.6473E-01   C at   48  2
       a = -4.000      CL = -0.4719
      Cm =  0.0017     CD =  0.01011   =>   CDf =  0.00616    CDp =  0.00396

 Side 1 forced transition at x/c =  1.0000   76
 Side 2  free  transition at x/c =  0.4468   48

  45   rms: 0.4227E-02   max: -.6474E-01   C at   48  2
       a = -4.000      CL = -0.4719
      Cm =  0.0017     CD =  0.01011   =>   CDf =  0.00616    CDp =  0.00396

 Side 1 forced transition at x/c =  1.0000   76
 Side 2  free  transition at x/c =  0.4468   48

  46   rms: 0.4227E-02   max: -.6473E-01   C at   48  2
       a = -4.000      CL = -0.4719
      Cm =  0.0017     CD =  0.01011   =>   CDf =  0.00616    CDp =  0.00396

 Side 1 forced transition at x/c =  1.0000   76
 Side 2  free  transition at x/c =  0.4468   48

  47   rms: 0.4227E-02   max: -.6473E-01   C at   48  2
       a = -4.000      CL = -0.4719
      Cm =  0.0017     CD =  0.01011   =>   CDf =  0.00616    CDp =  0.00396

 Side 1 forced transition at x/c =  1.0000   76
 Side 2  free  transition at x/c =  0.4468   48

  48   rms: 0.4227E-02   max: -.6474E-01   C at   48  2
       a = -4.000      CL = -0.4719
      Cm =  0.0017     CD =  0.01011   =>   CDf =  0.00616    CDp =  0.00396

 Side 1 forced transition at x/c =  1.0000   76
 Side 2  free  transition at x/c =  0.4468   48

  49   rms: 0.4227E-02   max: -.6473E-01   C at   48  2
       a = -4.000      CL = -0.4719
      Cm =  0.0017     CD =  0.01011   =>   CDf =  0.00616    CDp =  0.00396

 Side 1 forced transition at x/c =  1.0000   76
 Side 2  free  transition at x/c =  0.4468   48

  50   rms: 0.4227E-02   max: -.6473E-01   C at   48  2
       a = -4.000      CL = -0.4719
      Cm =  0.0017     CD =  0.01011   =>   CDf =  0.00616    CDp =  0.00396

 Side 1 forced transition at x/c =  1.0000   76
 Side 2  free  transition at x/c =  0.4468   48

  51   rms: 0.4227E-02   max: -.6474E-01   C at   48  2
       a = -4.000      CL = -0.4719
      Cm =  0.0017     CD =  0.01011   =>   CDf =  0.00616    CDp =  0.00396

 Side 1 forced transition at x/c =  1.0000   76
 Side 2  free  transition at x/c =  0.4468   48

  52   rms: 0.4227E-02   max: -.6473E-01   C at   48  2
       a = -4.000      CL = -0.4719
      Cm =  0.0017     CD =  0.01011   =>   CDf =  0.00616    CDp =  0.00396

 Side 1 forced transition at x/c =  1.0000   76
 Side 2  free  transition at x/c =  0.4468   48

  53   rms: 0.4227E-02   max: -.6474E-01   C at   48  2
       a = -4.000      CL = -0.4719
      Cm =  0.0017     CD =  0.01011   =>   CDf =  0.00616    CDp =  0.00396

 Side 1 forced transition at x/c =  1.0000   76
 Side 2  free  transition at x/c =  0.4468   48

  54   rms: 0.4227E-02   max: -.6473E-01   C at   48  2
       a = -4.000      CL = -0.4719
      Cm =  0.0017     CD =  0.01011   =>   CDf =  0.00616    CDp =  0.00396

 Side 1 forced transition at x/c =  1.0000   76
 Side 2  free  transition at x/c =  0.4468   48

  55   rms: 0.4227E-02   max: -.6474E-01   C at   48  2
       a = -4.000      CL = -0.4719
      Cm =  0.0017     CD =  0.01011   =>   CDf =  0.00616    CDp =  0.00396

 Side 1 forced transition at x/c =  1.0000   76
 Side 2  free  transition at x/c =  0.4468   48

  56   rms: 0.4227E-02   max: -.6474E-01   C at   48  2
       a = -4.000      CL = -0.4719
      Cm =  0.0017     CD =  0.01011   =>   CDf =  0.00616    CDp =  0.00396

 Side 1 forced transition at x/c =  1.0000   76
 Side 2  free  transition at x/c =  0.4468   48

  57   rms: 0.4227E-02   max: -.6474E-01   C at   48  2
       a = -4.000      CL = -0.4719
      Cm =  0.0017     CD =  0.01011   =>   CDf =  0.00616    CDp =  0.00396

 Side 1 forced transition at x/c =  1.0000   76
 Side 2  free  transition at x/c =  0.4468   48

  58   rms: 0.4227E-02   max: -.6473E-01   C at   48  2
       a = -4.000      CL = -0.4719
      Cm =  0.0017     CD =  0.01011   =>   CDf =  0.00616    CDp =  0.00396

 Side 1 forced transition at x/c =  1.0000   76
 Side 2  free  transition at x/c =  0.4468   48

  59   rms: 0.4227E-02   max: -.6474E-01   C at   48  2
       a = -4.000      CL = -0.4719
      Cm =  0.0017     CD =  0.01011   =>   CDf =  0.00616    CDp =  0.00396

 Side 1 forced transition at x/c =  1.0000   76
 Side 2  free  transition at x/c =  0.4468   48

  60   rms: 0.4227E-02   max: -.6474E-01   C at   48  2
       a = -4.000      CL = -0.4719
      Cm =  0.0017     CD =  0.01011   =>   CDf =  0.00616    CDp =  0.00396

 Side 1 forced transition at x/c =  1.0000   76
 Side 2  free  transition at x/c =  0.4468   48

  61   rms: 0.4227E-02   max: -.6474E-01   C at   48  2
       a = -4.000      CL = -0.4719
      Cm =  0.0017     CD =  0.01011   =>   CDf =  0.00616    CDp =  0.00396

 Side 1 forced transition at x/c =  1.0000   76
 Side 2  free  transition at x/c =  0.4468   48

  62   rms: 0.4227E-02   max: -.6473E-01   C at   48  2
       a = -4.000      CL = -0.4719
      Cm =  0.0017     CD =  0.01011   =>   CDf =  0.00616    CDp =  0.00396

 Side 1 forced transition at x/c =  1.0000   76
 Side 2  free  transition at x/c =  0.4468   48

  63   rms: 0.4227E-02   max: -.6474E-01   C at   48  2
       a = -4.000      CL = -0.4719
      Cm =  0.0017     CD =  0.01011   =>   CDf =  0.00616    CDp =  0.00396

 Side 1 forced transition at x/c =  1.0000   76
 Side 2  free  transition at x/c =  0.4468   48

  64   rms: 0.4227E-02   max: -.6473E-01   C at   48  2
       a = -4.000      CL = -0.4719
      Cm =  0.0017     CD =  0.01011   =>   CDf =  0.00616    CDp =  0.00396

 Side 1 forced transition at x/c =  1.0000   76
 Side 2  free  transition at x/c =  0.4468   48

  65   rms: 0.4227E-02   max: -.6474E-01   C at   48  2
       a = -4.000      CL = -0.4719
      Cm =  0.0017     CD =  0.01011   =>   CDf =  0.00616    CDp =  0.00396

 Side 1 forced transition at x/c =  1.0000   76
 Side 2  free  transition at x/c =  0.4468   48

  66   rms: 0.4227E-02   max: -.6473E-01   C at   48  2
       a = -4.000      CL = -0.4719
      Cm =  0.0017     CD =  0.01011   =>   CDf =  0.00616    CDp =  0.00396

 Side 1 forced transition at x/c =  1.0000   76
 Side 2  free  transition at x/c =  0.4468   48

  67   rms: 0.4227E-02   max: -.6474E-01   C at   48  2
       a = -4.000      CL = -0.4719
      Cm =  0.0017     CD =  0.01011   =>   CDf =  0.00616    CDp =  0.00396

 Side 1 forced transition at x/c =  1.0000   76
 Side 2  free  transition at x/c =  0.4468   48

  68   rms: 0.4227E-02   max: -.6474E-01   C at   48  2
       a = -4.000      CL = -0.4719
      Cm =  0.0017     CD =  0.01011   =>   CDf =  0.00616    CDp =  0.00396

 Side 1 forced transition at x/c =  1.0000   76
 Side 2  free  transition at x/c =  0.4468   48

  69   rms: 0.4227E-02   max: -.6473E-01   C at   48  2
       a = -4.000      CL = -0.4719
      Cm =  0.0017     CD =  0.01011   =>   CDf =  0.00616    CDp =  0.00396

 Side 1 forced transition at x/c =  1.0000   76
 Side 2  free  transition at x/c =  0.4468   48

  70   rms: 0.4227E-02   max: -.6474E-01   C at   48  2
       a = -4.000      CL = -0.4719
      Cm =  0.0017     CD =  0.01011   =>   CDf =  0.00616    CDp =  0.00396

 Side 1 forced transition at x/c =  1.0000   76
 Side 2  free  transition at x/c =  0.4468   48

  71   rms: 0.4227E-02   max: -.6473E-01   C at   48  2
       a = -4.000      CL = -0.4719
      Cm =  0.0017     CD =  0.01011   =>   CDf =  0.00616    CDp =  0.00396

 Side 1 forced transition at x/c =  1.0000   76
 Side 2  free  transition at x/c =  0.4468   48

  72   rms: 0.4227E-02   max: -.6473E-01   C at   48  2
       a = -4.000      CL = -0.4719
      Cm =  0.0017     CD =  0.01011   =>   CDf =  0.00616    CDp =  0.00396

 Side 1 forced transition at x/c =  1.0000   76
 Side 2  free  transition at x/c =  0.4468   48

  73   rms: 0.4227E-02   max: -.6473E-01   C at   48  2
       a = -4.000      CL = -0.4719
      Cm =  0.0017     CD =  0.01011   =>   CDf =  0.00616    CDp =  0.00396

 Side 1 forced transition at x/c =  1.0000   76
 Side 2  free  transition at x/c =  0.4468   48

  74   rms: 0.4227E-02   max: -.6474E-01   C at   48  2
       a = -4.000      CL = -0.4719
      Cm =  0.0017     CD =  0.01011   =>   CDf =  0.00616    CDp =  0.00396

 Side 1 forced transition at x/c =  1.0000   76
 Side 2  free  transition at x/c =  0.4468   48

  75   rms: 0.4227E-02   max: -.6473E-01   C at   48  2
       a = -4.000      CL = -0.4719
      Cm =  0.0017     CD =  0.01011   =>   CDf =  0.00616    CDp =  0.00396

 Side 1 forced transition at x/c =  1.0000   76
 Side 2  free  transition at x/c =  0.4468   48

  76   rms: 0.4227E-02   max: -.6473E-01   C at   48  2
       a = -4.000      CL = -0.4719
      Cm =  0.0017     CD =  0.01011   =>   CDf =  0.00616    CDp =  0.00396

 Side 1 forced transition at x/c =  1.0000   76
 Side 2  free  transition at x/c =  0.4468   48

  77   rms: 0.4227E-02   max: -.6473E-01   C at   48  2
       a = -4.000      CL = -0.4719
      Cm =  0.0017     CD =  0.01011   =>   CDf =  0.00616    CDp =  0.00396

 Side 1 forced transition at x/c =  1.0000   76
 Side 2  free  transition at x/c =  0.4468   48

  78   rms: 0.4227E-02   max: -.6474E-01   C at   48  2
       a = -4.000      CL = -0.4719
      Cm =  0.0017     CD =  0.01011   =>   CDf =  0.00616    CDp =  0.00396

 Side 1 forced transition at x/c =  1.0000   76
 Side 2  free  transition at x/c =  0.4468   48

  79   rms: 0.4227E-02   max: -.6473E-01   C at   48  2
       a = -4.000      CL = -0.4719
      Cm =  0.0017     CD =  0.01011   =>   CDf =  0.00616    CDp =  0.00396

 Side 1 forced transition at x/c =  1.0000   76
 Side 2  free  transition at x/c =  0.4468   48

  80   rms: 0.4227E-02   max: -.6473E-01   C at   48  2
       a = -4.000      CL = -0.4719
      Cm =  0.0017     CD =  0.01011   =>   CDf =  0.00616    CDp =  0.00396

 Side 1 forced transition at x/c =  1.0000   76
 Side 2  free  transition at x/c =  0.4468   48

  81   rms: 0.4227E-02   max: -.6473E-01   C at   48  2
       a = -4.000      CL = -0.4719
      Cm =  0.0017     CD =  0.01011   =>   CDf =  0.00616    CDp =  0.00396

 Side 1 forced transition at x/c =  1.0000   76
 Side 2  free  transition at x/c =  0.4468   48

  82   rms: 0.4227E-02   max: -.6473E-01   C at   48  2
       a = -4.000      CL = -0.4719
      Cm =  0.0017     CD =  0.01011   =>   CDf =  0.00616    CDp =  0.00396

 Side 1 forced transition at x/c =  1.0000   76
 Side 2  free  transition at x/c =  0.4468   48

  83   rms: 0.4227E-02   max: -.6473E-01   C at   48  2
       a = -4.000      CL = -0.4719
      Cm =  0.0017     CD =  0.01011   =>   CDf =  0.00616    CDp =  0.00396

 Side 1 forced transition at x/c =  1.0000   76
 Side 2  free  transition at x/c =  0.4468   48

  84   rms: 0.4227E-02   max: -.6474E-01   C at   48  2
       a = -4.000      CL = -0.4719
      Cm =  0.0017     CD =  0.01011   =>   CDf =  0.00616    CDp =  0.00396

 Side 1 forced transition at x/c =  1.0000   76
 Side 2  free  transition at x/c =  0.4468   48

  85   rms: 0.4227E-02   max: -.6473E-01   C at   48  2
       a = -4.000      CL = -0.4719
      Cm =  0.0017     CD =  0.01011   =>   CDf =  0.00616    CDp =  0.00396

 Side 1 forced transition at x/c =  1.0000   76
 Side 2  free  transition at x/c =  0.4468   48

  86   rms: 0.4227E-02   max: -.6474E-01   C at   48  2
       a = -4.000      CL = -0.4719
      Cm =  0.0017     CD =  0.01011   =>   CDf =  0.00616    CDp =  0.00396

 Side 1 forced transition at x/c =  1.0000   76
 Side 2  free  transition at x/c =  0.4468   48

  87   rms: 0.4227E-02   max: -.6473E-01   C at   48  2
       a = -4.000      CL = -0.4719
      Cm =  0.0017     CD =  0.01011   =>   CDf =  0.00616    CDp =  0.00396

 Side 1 forced transition at x/c =  1.0000   76
 Side 2  free  transition at x/c =  0.4468   48

  88   rms: 0.4227E-02   max: -.6473E-01   C at   48  2
       a = -4.000      CL = -0.4719
      Cm =  0.0017     CD =  0.01011   =>   CDf =  0.00616    CDp =  0.00396

 Side 1 forced transition at x/c =  1.0000   76
 Side 2  free  transition at x/c =  0.4468   48

  89   rms: 0.4227E-02   max: -.6474E-01   C at   48  2
       a = -4.000      CL = -0.4719
      Cm =  0.0017     CD =  0.01011   =>   CDf =  0.00616    CDp =  0.00396

 Side 1 forced transition at x/c =  1.0000   76
 Side 2  free  transition at x/c =  0.4468   48

  90   rms: 0.4227E-02   max: -.6473E-01   C at   48  2
       a = -4.000      CL = -0.4719
      Cm =  0.0017     CD =  0.01011   =>   CDf =  0.00616    CDp =  0.00396

 Side 1 forced transition at x/c =  1.0000   76
 Side 2  free  transition at x/c =  0.4468   48

  91   rms: 0.4227E-02   max: -.6474E-01   C at   48  2
       a = -4.000      CL = -0.4719
      Cm =  0.0017     CD =  0.01011   =>   CDf =  0.00616    CDp =  0.00396

 Side 1 forced transition at x/c =  1.0000   76
 Side 2  free  transition at x/c =  0.4468   48

  92   rms: 0.4227E-02   max: -.6474E-01   C at   48  2
       a = -4.000      CL = -0.4719
      Cm =  0.0017     CD =  0.01011   =>   CDf =  0.00616    CDp =  0.00396

 Side 1 forced transition at x/c =  1.0000   76
 Side 2  free  transition at x/c =  0.4468   48

  93   rms: 0.4227E-02   max: -.6473E-01   C at   48  2
       a = -4.000      CL = -0.4719
      Cm =  0.0017     CD =  0.01011   =>   CDf =  0.00616    CDp =  0.00396

 Side 1 forced transition at x/c =  1.0000   76
 Side 2  free  transition at x/c =  0.4468   48

  94   rms: 0.4227E-02   max: -.6473E-01   C at   48  2
       a = -4.000      CL = -0.4719
      Cm =  0.0017     CD =  0.01011   =>   CDf =  0.00616    CDp =  0.00396

 Side 1 forced transition at x/c =  1.0000   76
 Side 2  free  transition at x/c =  0.4468   48

  95   rms: 0.4227E-02   max: -.6474E-01   C at   48  2
       a = -4.000      CL = -0.4719
      Cm =  0.0017     CD =  0.01011   =>   CDf =  0.00616    CDp =  0.00396

 Side 1 forced transition at x/c =  1.0000   76
 Side 2  free  transition at x/c =  0.4468   48

  96   rms: 0.4227E-02   max: -.6474E-01   C at   48  2
       a = -4.000      CL = -0.4719
      Cm =  0.0017     CD =  0.01011   =>   CDf =  0.00616    CDp =  0.00396

 Side 1 forced transition at x/c =  1.0000   76
 Side 2  free  transition at x/c =  0.4468   48

  97   rms: 0.4227E-02   max: -.6474E-01   C at   48  2
       a = -4.000      CL = -0.4719
      Cm =  0.0017     CD =  0.01011   =>   CDf =  0.00616    CDp =  0.00396

 Side 1 forced transition at x/c =  1.0000   76
 Side 2  free  transition at x/c =  0.4468   48

  98   rms: 0.4227E-02   max: -.6474E-01   C at   48  2
       a = -4.000      CL = -0.4719
      Cm =  0.0017     CD =  0.01011   =>   CDf =  0.00616    CDp =  0.00396

 Side 1 forced transition at x/c =  1.0000   76
 Side 2  free  transition at x/c =  0.4468   48

  99   rms: 0.4227E-02   max: -.6473E-01   C at   48  2
       a = -4.000      CL = -0.4719
      Cm =  0.0017     CD =  0.01011   =>   CDf =  0.00616    CDp =  0.00396

 Side 1 forced transition at x/c =  1.0000   76
 Side 2  free  transition at x/c =  0.4468   48

 100   rms: 0.4227E-02   max: -.6474E-01   C at   48  2
       a = -4.000      CL = -0.4719
      Cm =  0.0017     CD =  0.01011   =>   CDf =  0.00616    CDp =  0.00396

 Side 1 forced transition at x/c =  1.0000   76
 Side 2  free  transition at x/c =  0.4468   48

 101   rms: 0.4227E-02   max: -.6474E-01   C at   48  2
       a = -4.000      CL = -0.4719
      Cm =  0.0017     CD =  0.01011   =>   CDf =  0.00616    CDp =  0.00396

 Side 1 forced transition at x/c =  1.0000   76
 Side 2  free  transition at x/c =  0.4468   48

 102   rms: 0.4227E-02   max: -.6474E-01   C at   48  2
       a = -4.000      CL = -0.4719
      Cm =  0.0017     CD =  0.01011   =>   CDf =  0.00616    CDp =  0.00396

 Side 1 forced transition at x/c =  1.0000   76
 Side 2  free  transition at x/c =  0.4468   48

 103   rms: 0.4227E-02   max: -.6473E-01   C at   48  2
       a = -4.000      CL = -0.4719
      Cm =  0.0017     CD =  0.01011   =>   CDf =  0.00616    CDp =  0.00396

 Side 1 forced transition at x/c =  1.0000   76
 Side 2  free  transition at x/c =  0.4468   48

 104   rms: 0.4227E-02   max: -.6473E-01   C at   48  2
       a = -4.000      CL = -0.4719
      Cm =  0.0017     CD =  0.01011   =>   CDf =  0.00616    CDp =  0.00396

 Side 1 forced transition at x/c =  1.0000   76
 Side 2  free  transition at x/c =  0.4468   48

 105   rms: 0.4227E-02   max: -.6473E-01   C at   48  2
       a = -4.000      CL = -0.4719
      Cm =  0.0017     CD =  0.01011   =>   CDf =  0.00616    CDp =  0.00396

 Side 1 forced transition at x/c =  1.0000   76
 Side 2  free  transition at x/c =  0.4468   48

 106   rms: 0.4227E-02   max: -.6474E-01   C at   48  2
       a = -4.000      CL = -0.4719
      Cm =  0.0017     CD =  0.01011   =>   CDf =  0.00616    CDp =  0.00396

 Side 1 forced transition at x/c =  1.0000   76
 Side 2  free  transition at x/c =  0.4468   48

 107   rms: 0.4227E-02   max: -.6473E-01   C at   48  2
       a = -4.000      CL = -0.4719
      Cm =  0.0017     CD =  0.01011   =>   CDf =  0.00616    CDp =  0.00396

 Side 1 forced transition at x/c =  1.0000   76
 Side 2  free  transition at x/c =  0.4468   48

 108   rms: 0.4227E-02   max: -.6473E-01   C at   48  2
       a = -4.000      CL = -0.4719
      Cm =  0.0017     CD =  0.01011   =>   CDf =  0.00616    CDp =  0.00396

 Side 1 forced transition at x/c =  1.0000   76
 Side 2  free  transition at x/c =  0.4468   48

 109   rms: 0.4227E-02   max: -.6474E-01   C at   48  2
       a = -4.000      CL = -0.4719
      Cm =  0.0017     CD =  0.01011   =>   CDf =  0.00616    CDp =  0.00396

 Side 1 forced transition at x/c =  1.0000   76
 Side 2  free  transition at x/c =  0.4468   48

 110   rms: 0.4227E-02   max: -.6474E-01   C at   48  2
       a = -4.000      CL = -0.4719
      Cm =  0.0017     CD =  0.01011   =>   CDf =  0.00616    CDp =  0.00396

 Side 1 forced transition at x/c =  1.0000   76
 Side 2  free  transition at x/c =  0.4468   48

 111   rms: 0.4227E-02   max: -.6474E-01   C at   48  2
       a = -4.000      CL = -0.4719
      Cm =  0.0017     CD =  0.01011   =>   CDf =  0.00616    CDp =  0.00396

 Side 1 forced transition at x/c =  1.0000   76
 Side 2  free  transition at x/c =  0.4468   48

 112   rms: 0.4227E-02   max: -.6474E-01   C at   48  2
       a = -4.000      CL = -0.4719
      Cm =  0.0017     CD =  0.01011   =>   CDf =  0.00616    CDp =  0.00396

 Side 1 forced transition at x/c =  1.0000   76
 Side 2  free  transition at x/c =  0.4468   48

 113   rms: 0.4227E-02   max: -.6473E-01   C at   48  2
       a = -4.000      CL = -0.4719
      Cm =  0.0017     CD =  0.01011   =>   CDf =  0.00616    CDp =  0.00396

 Side 1 forced transition at x/c =  1.0000   76
 Side 2  free  transition at x/c =  0.4468   48

 114   rms: 0.4227E-02   max: -.6473E-01   C at   48  2
       a = -4.000      CL = -0.4719
      Cm =  0.0017     CD =  0.01011   =>   CDf =  0.00616    CDp =  0.00396

 Side 1 forced transition at x/c =  1.0000   76
 Side 2  free  transition at x/c =  0.4468   48

 115   rms: 0.4227E-02   max: -.6473E-01   C at   48  2
       a = -4.000      CL = -0.4719
      Cm =  0.0017     CD =  0.01011   =>   CDf =  0.00616    CDp =  0.00396

 Side 1 forced transition at x/c =  1.0000   76
 Side 2  free  transition at x/c =  0.4468   48

 116   rms: 0.4227E-02   max: -.6474E-01   C at   48  2
       a = -4.000      CL = -0.4719
      Cm =  0.0017     CD =  0.01011   =>   CDf =  0.00616    CDp =  0.00396

 Side 1 forced transition at x/c =  1.0000   76
 Side 2  free  transition at x/c =  0.4468   48

 117   rms: 0.4227E-02   max: -.6474E-01   C at   48  2
       a = -4.000      CL = -0.4719
      Cm =  0.0017     CD =  0.01011   =>   CDf =  0.00616    CDp =  0.00396

 Side 1 forced transition at x/c =  1.0000   76
 Side 2  free  transition at x/c =  0.4468   48

 118   rms: 0.4227E-02   max: -.6474E-01   C at   48  2
       a = -4.000      CL = -0.4719
      Cm =  0.0017     CD =  0.01011   =>   CDf =  0.00616    CDp =  0.00396

 Side 1 forced transition at x/c =  1.0000   76
 Side 2  free  transition at x/c =  0.4468   48

 119   rms: 0.4227E-02   max: -.6474E-01   C at   48  2
       a = -4.000      CL = -0.4719
      Cm =  0.0017     CD =  0.01011   =>   CDf =  0.00616    CDp =  0.00396

 Side 1 forced transition at x/c =  1.0000   76
 Side 2  free  transition at x/c =  0.4468   48

 120   rms: 0.4227E-02   max: -.6474E-01   C at   48  2
       a = -4.000      CL = -0.4719
      Cm =  0.0017     CD =  0.01011   =>   CDf =  0.00616    CDp =  0.00396

 Side 1 forced transition at x/c =  1.0000   76
 Side 2  free  transition at x/c =  0.4468   48

 121   rms: 0.4227E-02   max: -.6473E-01   C at   48  2
       a = -4.000      CL = -0.4719
      Cm =  0.0017     CD =  0.01011   =>   CDf =  0.00616    CDp =  0.00396

 Side 1 forced transition at x/c =  1.0000   76
 Side 2  free  transition at x/c =  0.4468   48

 122   rms: 0.4227E-02   max: -.6474E-01   C at   48  2
       a = -4.000      CL = -0.4719
      Cm =  0.0017     CD =  0.01011   =>   CDf =  0.00616    CDp =  0.00396

 Side 1 forced transition at x/c =  1.0000   76
 Side 2  free  transition at x/c =  0.4468   48

 123   rms: 0.4227E-02   max: -.6473E-01   C at   48  2
       a = -4.000      CL = -0.4719
      Cm =  0.0017     CD =  0.01011   =>   CDf =  0.00616    CDp =  0.00396

 Side 1 forced transition at x/c =  1.0000   76
 Side 2  free  transition at x/c =  0.4468   48

 124   rms: 0.4227E-02   max: -.6474E-01   C at   48  2
       a = -4.000      CL = -0.4719
      Cm =  0.0017     CD =  0.01011   =>   CDf =  0.00616    CDp =  0.00396

 Side 1 forced transition at x/c =  1.0000   76
 Side 2  free  transition at x/c =  0.4468   48

 125   rms: 0.4227E-02   max: -.6473E-01   C at   48  2
       a = -4.000      CL = -0.4719
      Cm =  0.0017     CD =  0.01011   =>   CDf =  0.00616    CDp =  0.00396

 Side 1 forced transition at x/c =  1.0000   76
 Side 2  free  transition at x/c =  0.4468   48

 126   rms: 0.4227E-02   max: -.6473E-01   C at   48  2
       a = -4.000      CL = -0.4719
      Cm =  0.0017     CD =  0.01011   =>   CDf =  0.00616    CDp =  0.00396

 Side 1 forced transition at x/c =  1.0000   76
 Side 2  free  transition at x/c =  0.4468   48

 127   rms: 0.4227E-02   max: -.6473E-01   C at   48  2
       a = -4.000      CL = -0.4719
      Cm =  0.0017     CD =  0.01011   =>   CDf =  0.00616    CDp =  0.00396

 Side 1 forced transition at x/c =  1.0000   76
 Side 2  free  transition at x/c =  0.4468   48

 128   rms: 0.4227E-02   max: -.6473E-01   C at   48  2
       a = -4.000      CL = -0.4719
      Cm =  0.0017     CD =  0.01011   =>   CDf =  0.00616    CDp =  0.00396

 Side 1 forced transition at x/c =  1.0000   76
 Side 2  free  transition at x/c =  0.4468   48

 129   rms: 0.4227E-02   max: -.6473E-01   C at   48  2
       a = -4.000      CL = -0.4719
      Cm =  0.0017     CD =  0.01011   =>   CDf =  0.00616    CDp =  0.00396

 Side 1 forced transition at x/c =  1.0000   76
 Side 2  free  transition at x/c =  0.4468   48

 130   rms: 0.4227E-02   max: -.6473E-01   C at   48  2
       a = -4.000      CL = -0.4719
      Cm =  0.0017     CD =  0.01011   =>   CDf =  0.00616    CDp =  0.00396

 Side 1 forced transition at x/c =  1.0000   76
 Side 2  free  transition at x/c =  0.4468   48

 131   rms: 0.4227E-02   max: -.6473E-01   C at   48  2
       a = -4.000      CL = -0.4719
      Cm =  0.0017     CD =  0.01011   =>   CDf =  0.00616    CDp =  0.00396

 Side 1 forced transition at x/c =  1.0000   76
 Side 2  free  transition at x/c =  0.4468   48

 132   rms: 0.4227E-02   max: -.6474E-01   C at   48  2
       a = -4.000      CL = -0.4719
      Cm =  0.0017     CD =  0.01011   =>   CDf =  0.00616    CDp =  0.00396

 Side 1 forced transition at x/c =  1.0000   76
 Side 2  free  transition at x/c =  0.4468   48

 133   rms: 0.4227E-02   max: -.6474E-01   C at   48  2
       a = -4.000      CL = -0.4719
      Cm =  0.0017     CD =  0.01011   =>   CDf =  0.00616    CDp =  0.00396

 Side 1 forced transition at x/c =  1.0000   76
 Side 2  free  transition at x/c =  0.4468   48

 134   rms: 0.4227E-02   max: -.6474E-01   C at   48  2
       a = -4.000      CL = -0.4719
      Cm =  0.0017     CD =  0.01011   =>   CDf =  0.00616    CDp =  0.00396

 Side 1 forced transition at x/c =  1.0000   76
 Side 2  free  transition at x/c =  0.4468   48

 135   rms: 0.4227E-02   max: -.6473E-01   C at   48  2
       a = -4.000      CL = -0.4719
      Cm =  0.0017     CD =  0.01011   =>   CDf =  0.00616    CDp =  0.00396

 Side 1 forced transition at x/c =  1.0000   76
 Side 2  free  transition at x/c =  0.4468   48

 136   rms: 0.4227E-02   max: -.6474E-01   C at   48  2
       a = -4.000      CL = -0.4719
      Cm =  0.0017     CD =  0.01011   =>   CDf =  0.00616    CDp =  0.00396

 Side 1 forced transition at x/c =  1.0000   76
 Side 2  free  transition at x/c =  0.4468   48

 137   rms: 0.4227E-02   max: -.6473E-01   C at   48  2
       a = -4.000      CL = -0.4719
      Cm =  0.0017     CD =  0.01011   =>   CDf =  0.00616    CDp =  0.00396

 Side 1 forced transition at x/c =  1.0000   76
 Side 2  free  transition at x/c =  0.4468   48

 138   rms: 0.4227E-02   max: -.6474E-01   C at   48  2
       a = -4.000      CL = -0.4719
      Cm =  0.0017     CD =  0.01011   =>   CDf =  0.00616    CDp =  0.00396

 Side 1 forced transition at x/c =  1.0000   76
 Side 2  free  transition at x/c =  0.4468   48

 139   rms: 0.4227E-02   max: -.6474E-01   C at   48  2
       a = -4.000      CL = -0.4719
      Cm =  0.0017     CD =  0.01011   =>   CDf =  0.00616    CDp =  0.00396

 Side 1 forced transition at x/c =  1.0000   76
 Side 2  free  transition at x/c =  0.4468   48

 140   rms: 0.4227E-02   max: -.6474E-01   C at   48  2
       a = -4.000      CL = -0.4719
      Cm =  0.0017     CD =  0.01011   =>   CDf =  0.00616    CDp =  0.00396

 Side 1 forced transition at x/c =  1.0000   76
 Side 2  free  transition at x/c =  0.4468   48

 141   rms: 0.4227E-02   max: -.6474E-01   C at   48  2
       a = -4.000      CL = -0.4719
      Cm =  0.0017     CD =  0.01011   =>   CDf =  0.00616    CDp =  0.00396

 Side 1 forced transition at x/c =  1.0000   76
 Side 2  free  transition at x/c =  0.4468   48

 142   rms: 0.4227E-02   max: -.6474E-01   C at   48  2
       a = -4.000      CL = -0.4719
      Cm =  0.0017     CD =  0.01011   =>   CDf =  0.00616    CDp =  0.00396

 Side 1 forced transition at x/c =  1.0000   76
 Side 2  free  transition at x/c =  0.4468   48

 143   rms: 0.4227E-02   max: -.6474E-01   C at   48  2
       a = -4.000      CL = -0.4719
      Cm =  0.0017     CD =  0.01011   =>   CDf =  0.00616    CDp =  0.00396

 Side 1 forced transition at x/c =  1.0000   76
 Side 2  free  transition at x/c =  0.4468   48

 144   rms: 0.4227E-02   max: -.6473E-01   C at   48  2
       a = -4.000      CL = -0.4719
      Cm =  0.0017     CD =  0.01011   =>   CDf =  0.00616    CDp =  0.00396

 Side 1 forced transition at x/c =  1.0000   76
 Side 2  free  transition at x/c =  0.4468   48

 145   rms: 0.4227E-02   max: -.6474E-01   C at   48  2
       a = -4.000      CL = -0.4719
      Cm =  0.0017     CD =  0.01011   =>   CDf =  0.00616    CDp =  0.00396

 Side 1 forced transition at x/c =  1.0000   76
 Side 2  free  transition at x/c =  0.4468   48

 146   rms: 0.4227E-02   max: -.6473E-01   C at   48  2
       a = -4.000      CL = -0.4719
      Cm =  0.0017     CD =  0.01011   =>   CDf =  0.00616    CDp =  0.00396

 Side 1 forced transition at x/c =  1.0000   76
 Side 2  free  transition at x/c =  0.4468   48

 147   rms: 0.4227E-02   max: -.6473E-01   C at   48  2
       a = -4.000      CL = -0.4719
      Cm =  0.0017     CD =  0.01011   =>   CDf =  0.00616    CDp =  0.00396

 Side 1 forced transition at x/c =  1.0000   76
 Side 2  free  transition at x/c =  0.4468   48

 148   rms: 0.4227E-02   max: -.6474E-01   C at   48  2
       a = -4.000      CL = -0.4719
      Cm =  0.0017     CD =  0.01011   =>   CDf =  0.00616    CDp =  0.00396

 Side 1 forced transition at x/c =  1.0000   76
 Side 2  free  transition at x/c =  0.4468   48

 149   rms: 0.4227E-02   max: -.6473E-01   C at   48  2
       a = -4.000      CL = -0.4719
      Cm =  0.0017     CD =  0.01011   =>   CDf =  0.00616    CDp =  0.00396

 Side 1 forced transition at x/c =  1.0000   76
 Side 2  free  transition at x/c =  0.4468   48

 150   rms: 0.4227E-02   max: -.6473E-01   C at   48  2
       a = -4.000      CL = -0.4719
      Cm =  0.0017     CD =  0.01011   =>   CDf =  0.00616    CDp =  0.00396

 Side 1 forced transition at x/c =  1.0000   76
 Side 2  free  transition at x/c =  0.4468   48

 151   rms: 0.4227E-02   max: -.6473E-01   C at   48  2
       a = -4.000      CL = -0.4719
      Cm =  0.0017     CD =  0.01011   =>   CDf =  0.00616    CDp =  0.00396

 Side 1 forced transition at x/c =  1.0000   76
 Side 2  free  transition at x/c =  0.4468   48

 152   rms: 0.4227E-02   max: -.6473E-01   C at   48  2
       a = -4.000      CL = -0.4719
      Cm =  0.0017     CD =  0.01011   =>   CDf =  0.00616    CDp =  0.00396

 Side 1 forced transition at x/c =  1.0000   76
 Side 2  free  transition at x/c =  0.4468   48

 153   rms: 0.4227E-02   max: -.6474E-01   C at   48  2
       a = -4.000      CL = -0.4719
      Cm =  0.0017     CD =  0.01011   =>   CDf =  0.00616    CDp =  0.00396

 Side 1 forced transition at x/c =  1.0000   76
 Side 2  free  transition at x/c =  0.4468   48

 154   rms: 0.4227E-02   max: -.6473E-01   C at   48  2
       a = -4.000      CL = -0.4719
      Cm =  0.0017     CD =  0.01011   =>   CDf =  0.00616    CDp =  0.00396

 Side 1 forced transition at x/c =  1.0000   76
 Side 2  free  transition at x/c =  0.4468   48

 155   rms: 0.4227E-02   max: -.6474E-01   C at   48  2
       a = -4.000      CL = -0.4719
      Cm =  0.0017     CD =  0.01011   =>   CDf =  0.00616    CDp =  0.00396
 VISCAL:  Convergence failed
 Calculating wake trajectory ...
 Calculating source influence matrix ...

 Solving BL system ...

 Side 1 forced transition at x/c =  1.0000   76
 Side 2  free  transition at x/c =  0.4468   48

   1   rms: 0.1000E+00   max: -.5024E+00   T at   48  2   RLX: 0.995
       a = -3.500      CL = -0.4200
      Cm =  0.0025     CD =  0.00996   =>   CDf =  0.00615    CDp =  0.00380

 MRCHDU: Convergence failed at  52  side 2    Res =  0.1363E+01
 MRCHDU: Convergence failed at  53  side 2    Res =  0.2207E+01
 MRCHDU: Convergence failed at  54  side 2    Res =  0.1245E+01
 MRCHDU: Convergence failed at  55  side 2    Res =  0.1688E+01
 MRCHDU: Convergence failed at  56  side 2    Res =  0.2284E+01
 MRCHDU: Convergence failed at  57  side 2    Res =  0.2903E+01
 MRCHDU: Convergence failed at  58  side 2    Res =  0.3571E+01
 MRCHDU: Convergence failed at  59  side 2    Res =  0.4131E+01
 MRCHDU: Convergence failed at  60  side 2    Res =  0.4551E+01
 MRCHDU: Convergence failed at  61  side 2    Res =  0.4827E+01
 MRCHDU: Convergence failed at  62  side 2    Res =  0.4980E+01
 MRCHDU: Convergence failed at  63  side 2    Res =  0.5047E+01
 MRCHDU: Convergence failed at  64  side 2    Res =  0.5063E+01
 MRCHDU: Convergence failed at  65  side 2    Res =  0.5423E+01
 MRCHDU: Convergence failed at  66  side 2    Res =  0.5344E+01
 MRCHDU: Convergence failed at  67  side 2    Res =  0.5182E+01
 MRCHDU: Convergence failed at  68  side 2    Res =  0.5034E+01
 MRCHDU: Convergence failed at  69  side 2    Res =  0.4917E+01
 MRCHDU: Convergence failed at  70  side 2    Res =  0.4823E+01
 MRCHDU: Convergence failed at  71  side 2    Res =  0.4739E+01
 MRCHDU: Convergence failed at  72  side 2    Res =  0.4656E+01
 MRCHDU: Convergence failed at  73  side 2    Res =  0.4590E+01
 MRCHDU: Convergence failed at  74  side 2    Res =  0.4531E+01
 MRCHDU: Convergence failed at  75  side 2    Res =  0.4475E+01
 MRCHDU: Convergence failed at  76  side 2    Res =  0.4404E+01
 MRCHDU: Convergence failed at  77  side 2    Res =  0.4319E+01
 MRCHDU: Convergence failed at  78  side 2    Res =  0.4249E+01
 MRCHDU: Convergence failed at  79  side 2    Res =  0.4165E+01
 MRCHDU: Convergence failed at  80  side 2    Res =  0.4069E+01
 MRCHDU: Convergence failed at  81  side 2    Res =  0.3969E+01
 MRCHDU: Convergence failed at  82  side 2    Res =  0.3863E+01
 MRCHDU: Convergence failed at  83  side 2    Res =  0.3751E+01
 MRCHDU: Convergence failed at  84  side 2    Res =  0.3628E+01
 MRCHDU: Convergence failed at  85  side 2    Res =  0.4074E+01
 MRCHDU: Convergence failed at  86  side 2    Res =  0.5375E+01
 Side 1 forced transition at x/c =  1.0000   76
 Side 2  free  transition at x/c =  0.6930   65

   2   rms: 0.2856E+00   max: 0.1428E+01   C at   65  2   RLX: 0.772
       a = -3.500      CL = -0.4370
      Cm =  0.0202     CD =  0.00729   =>   CDf =  0.00493    CDp =  0.00235

 Side 1 forced transition at x/c =  1.0000   77
 Side 2  free  transition at x/c =  0.5874   57
 idif Ue xi dudx           1  0.20434320      2.45654583E-03   83.183144    
 Uenew xinew           2  1.22365952E-02  1.47104263E-04

   3   rms: 0.9511E-01   max: -.6422E+00   D at   60  2   RLX: 0.779
       a = -3.500      CL = -0.4300
      Cm =  0.0075     CD =  0.00905   =>   CDf =  0.00586    CDp =  0.00319

 Side 1 forced transition at x/c =  1.0000   76
 Side 2  free  transition at x/c =  0.5389   55

   4   rms: 0.3812E-01   max: -.3740E+00   D at   56  2
       a = -3.500      CL = -0.4235
      Cm =  0.0035     CD =  0.00982   =>   CDf =  0.00592    CDp =  0.00390

 Side 1 forced transition at x/c =  1.0000   76
 Side 2  free  transition at x/c =  0.5246   54

   5   rms: 0.7212E-02   max: -.8717E-01   D at   54  2
       a = -3.500      CL = -0.4235
      Cm =  0.0034     CD =  0.00980   =>   CDf =  0.00590    CDp =  0.00390

 Side 1 forced transition at x/c =  1.0000   76
 Side 2  free  transition at x/c =  0.5245   54

   6   rms: 0.3037E-03   max: -.3700E-02   D at   58  2
       a = -3.500      CL = -0.4235
      Cm =  0.0034     CD =  0.00980   =>   CDf =  0.00588    CDp =  0.00392

 Side 1 forced transition at x/c =  1.0000   76
 Side 2  free  transition at x/c =  0.5244   54

   7   rms: 0.1648E-05   max: -.1358E-04   D at   58  2
       a = -3.500      CL = -0.4235
      Cm =  0.0034     CD =  0.00980   =>   CDf =  0.00588    CDp =  0.00392
 plradd ia,ip,cpol            1           0  1.00156246E-02

 Point added to stored polar  1
 Point written to save file  lwk79100_Re200k.base.pol                        
 Dump file unspecified or not available
 Calculating wake trajectory ...
 Calculating source influence matrix ...

 Solving BL system ...

 Side 1 forced transition at x/c =  1.0000   76
 Side 2  free  transition at x/c =  0.5244   54

   1   rms: 0.1050E+00   max: 0.5527E+00   D at   56  2   RLX: 0.929
       a = -3.000      CL = -0.3794
      Cm =  0.0053     CD =  0.00960   =>   CDf =  0.00599    CDp =  0.00362

 Side 1 forced transition at x/c =  1.0000   77
 Side 2  free  transition at x/c =  0.5570   55

   2   rms: 0.3555E-01   max: -.2629E+00   T at   55  2
       a = -3.000      CL = -0.3749
      Cm =  0.0049     CD =  0.00966   =>   CDf =  0.00598    CDp =  0.00368

 Side 1 forced transition at x/c =  1.0000   77
 Side 2  free  transition at x/c =  0.5791   56

   3   rms: 0.8491E-02   max: 0.9635E-01   D at   57  2
       a = -3.000      CL = -0.3756
      Cm =  0.0051     CD =  0.00969   =>   CDf =  0.00575    CDp =  0.00394

 Side 1 forced transition at x/c =  1.0000   77
 Side 2  free  transition at x/c =  0.5756   56

   4   rms: 0.4330E-03   max: -.5879E-02   D at   60  2
       a = -3.000      CL = -0.3756
      Cm =  0.0051     CD =  0.00969   =>   CDf =  0.00577    CDp =  0.00392

 Side 1 forced transition at x/c =  1.0000   77
 Side 2  free  transition at x/c =  0.5754   56

   5   rms: 0.5878E-05   max: -.6086E-04   D at   57  2
       a = -3.000      CL = -0.3756
      Cm =  0.0051     CD =  0.00969   =>   CDf =  0.00577    CDp =  0.00392
 plradd ia,ip,cpol            2           0  1.34049058E-02

 Point added to stored polar  1
 Point written to save file  lwk79100_Re200k.base.pol                        
 Dump file unspecified or not available
 Calculating wake trajectory ...
 Calculating source influence matrix ...

 Solving BL system ...

 Side 1 forced transition at x/c =  1.0000   77
 Side 2  free  transition at x/c =  0.5754   56

   1   rms: 0.9678E-01   max: -.4722E+00   T at   56  2
       a = -2.500      CL = -0.3290
      Cm =  0.0068     CD =  0.00970   =>   CDf =  0.00585    CDp =  0.00385

 Side 1  free  transition at x/c =  0.9610   75
 Side 2  free  transition at x/c =  0.6129   58

   2   rms: 0.6425E-01   max: -.7595E+00   T at    2  1   RLX: 0.658
       a = -2.500      CL = -0.3110
      Cm =  0.0030     CD =  0.00978   =>   CDf =  0.00578    CDp =  0.00400

 Side 1  free  transition at x/c =  0.9681   75
 Side 2  free  transition at x/c =  0.6155   58

   3   rms: 0.1739E-01   max: -.1470E+00   D at   78  1
       a = -2.500      CL = -0.3008
      Cm =  0.0009     CD =  0.00969   =>   CDf =  0.00572    CDp =  0.00397

 Side 1  free  transition at x/c =  0.9730   76
 Side 2  free  transition at x/c =  0.6178   58

   4   rms: 0.5983E-02   max: 0.6677E-01   C at   76  1
       a = -2.500      CL = -0.3022
      Cm =  0.0012     CD =  0.00970   =>   CDf =  0.00572    CDp =  0.00398

 Side 1  free  transition at x/c =  0.9694   76
 Side 2  free  transition at x/c =  0.6180   58

   5   rms: 0.4922E-03   max: -.5147E-02   C at   76  1
       a = -2.500      CL = -0.3022
      Cm =  0.0012     CD =  0.00970   =>   CDf =  0.00571    CDp =  0.00399

 Side 1  free  transition at x/c =  0.9697   76
 Side 2  free  transition at x/c =  0.6181   58

   6   rms: 0.2207E-05   max: -.1611E-04   C at   76  1
       a = -2.500      CL = -0.3022
      Cm =  0.0012     CD =  0.00970   =>   CDf =  0.00571    CDp =  0.00399
 plradd ia,ip,cpol            3           0  1.34049058E-02

 Point added to stored polar  1
 Point written to save file  lwk79100_Re200k.base.pol                        
 Dump file unspecified or not available
 Calculating wake trajectory ...
 Calculating source influence matrix ...

 Solving BL system ...

 Side 1  free  transition at x/c =  0.9697   76
 Side 2  free  transition at x/c =  0.6181   58

   1   rms: 0.1282E+00   max: -.5757E+00   T at   58  2   RLX: 0.869
       a = -2.000      CL = -0.2153
      Cm = -0.0066     CD =  0.00979   =>   CDf =  0.00571    CDp =  0.00408

 Side 1  free  transition at x/c =  0.9152   72
 Side 2  free  transition at x/c =  0.6470   60

   2   rms: 0.1857E-01   max: 0.1524E+00   D at   75  1
       a = -2.000      CL = -0.2159
      Cm = -0.0045     CD =  0.00969   =>   CDf =  0.00580    CDp =  0.00388

 Side 1  free  transition at x/c =  0.9047   71
 Side 2  free  transition at x/c =  0.6528   60

   3   rms: 0.8140E-02   max: -.7476E-01   D at   62  2
       a = -2.000      CL = -0.2157
      Cm = -0.0046     CD =  0.00972   =>   CDf =  0.00581    CDp =  0.00391

 Side 1  free  transition at x/c =  0.9049   71
 Side 2  free  transition at x/c =  0.6551   60

   4   rms: 0.2460E-03   max: 0.3296E-02   D at   61  2
       a = -2.000      CL = -0.2158
      Cm = -0.0046     CD =  0.00972   =>   CDf =  0.00580    CDp =  0.00392

 Side 1  free  transition at x/c =  0.9049   71
 Side 2  free  transition at x/c =  0.6550   60

   5   rms: 0.2332E-05   max: 0.2274E-04   D at    4  2
       a = -2.000      CL = -0.2158
      Cm = -0.0046     CD =  0.00972   =>   CDf =  0.00580    CDp =  0.00392
 plradd ia,ip,cpol            4           0  1.76676624E-02

 Point added to stored polar  1
 Point written to save file  lwk79100_Re200k.base.pol                        
 Dump file unspecified or not available
 Calculating wake trajectory ...
 Calculating source influence matrix ...

 Solving BL system ...

 Side 1  free  transition at x/c =  0.9049   71
 Side 2  free  transition at x/c =  0.6550   60

   1   rms: 0.1187E+00   max: 0.8312E+00   C at   71  1   RLX: 0.824
       a = -1.500      CL = -0.1562
      Cm = -0.0070     CD =  0.00992   =>   CDf =  0.00586    CDp =  0.00407

 MRCHDU: Convergence failed at  62  side 2    Res =  0.6490E+01
 MRCHDU: Convergence failed at  63  side 2    Res =  0.5645E+01
 MRCHDU: Convergence failed at  64  side 2    Res =  0.3361E+01
 MRCHDU: Convergence failed at  65  side 2    Res =  0.5469E+01
 MRCHDU: Convergence failed at  66  side 2    Res =  0.9129E+01
 MRCHDU: Convergence failed at  67  side 2    Res =  0.1590E+02
 MRCHDU: Convergence failed at  68  side 2    Res =  0.3264E+02
 MRCHDU: Convergence failed at  69  side 2    Res =  0.7600E+02
 MRCHDU: Convergence failed at  70  side 2    Res =  0.3185E+03
 MRCHDU: Convergence failed at  71  side 2    Res =  0.4853E+03
 MRCHDU: Convergence failed at  72  side 2    Res =  0.2496E+03
 MRCHDU: Convergence failed at  73  side 2    Res =  0.2914E+03
 MRCHDU: Convergence failed at  74  side 2    Res =  0.8680E+03
 MRCHDU: Convergence failed at  75  side 2    Res =  0.4775E+03
 MRCHDU: Convergence failed at  76  side 2    Res =  0.1647E+03
 MRCHDU: Convergence failed at  77  side 2    Res =  0.9509E+02
 MRCHDU: Convergence failed at  78  side 2    Res =  0.6540E+02
 MRCHDU: Convergence failed at  79  side 2    Res =  0.4750E+02
 MRCHDU: Convergence failed at  80  side 2    Res =  0.3539E+02
 MRCHDU: Convergence failed at  81  side 2    Res =  0.2558E+02
 MRCHDU: Convergence failed at  82  side 2    Res =  0.1870E+02
 MRCHDU: Convergence failed at  83  side 2    Res =  0.1315E+02
 Side 1  free  transition at x/c =  0.8583   69
 Side 2  free  transition at x/c =  0.6894   62

   2   rms: 0.2414E+00   max: 0.9294E+00   T at   72  2   RLX: 0.990
       a = -1.500      CL = -0.0937
      Cm = -0.0170     CD =  0.00859   =>   CDf =  0.00478    CDp =  0.00381

 Side 1  free  transition at x/c =  0.8632   69
 Side 2  free  transition at x/c =  0.6823   61

   3   rms: 0.7020E-01   max: -.3638E+00   D at   63  2
       a = -1.500      CL = -0.1576
      Cm = -0.0041     CD =  0.00978   =>   CDf =  0.00592    CDp =  0.00386

 Side 1  free  transition at x/c =  0.8511   69
 Side 2  free  transition at x/c =  0.6852   61

   4   rms: 0.8298E-02   max: -.6885E-01   C at   61  2
       a = -1.500      CL = -0.1558
      Cm = -0.0044     CD =  0.00979   =>   CDf =  0.00600    CDp =  0.00379

 Side 1  free  transition at x/c =  0.8521   69
 Side 2  free  transition at x/c =  0.6838   61

   5   rms: 0.2101E-03   max: -.2265E-02   D at   62  2
       a = -1.500      CL = -0.1558
      Cm = -0.0044     CD =  0.00979   =>   CDf =  0.00595    CDp =  0.00384

 Side 1  free  transition at x/c =  0.8521   69
 Side 2  free  transition at x/c =  0.6839   61

   6   rms: 0.1079E-05   max: -.5764E-05   D at   65  2
       a = -1.500      CL = -0.1558
      Cm = -0.0044     CD =  0.00979   =>   CDf =  0.00595    CDp =  0.00384
 plradd ia,ip,cpol            5           0  4.82897796E-02

 Point added to stored polar  1
 Point written to save file  lwk79100_Re200k.base.pol                        
 Dump file unspecified or not available
 Calculating wake trajectory ...
 Calculating source influence matrix ...

 Solving BL system ...

 Side 1  free  transition at x/c =  0.8521   69
 Side 2  free  transition at x/c =  0.6839   61

   1   rms: 0.9824E-01   max: 0.6743E+00   C at   69  1
       a = -1.000      CL = -0.1018
      Cm = -0.0034     CD =  0.01008   =>   CDf =  0.00600    CDp =  0.00407

 MRCHDU: Convergence failed at  63  side 2    Res =  0.3550E+01
 MRCHDU: Convergence failed at  64  side 2    Res =  0.7754E+01
 MRCHDU: Convergence failed at  65  side 2    Res =  0.3717E+01
 MRCHDU: Convergence failed at  66  side 2    Res =  0.4498E+01
 MRCHDU: Convergence failed at  67  side 2    Res =  0.7071E+01
 MRCHDU: Convergence failed at  68  side 2    Res =  0.1104E+02
 MRCHDU: Convergence failed at  69  side 2    Res =  0.1745E+02
 MRCHDU: Convergence failed at  70  side 2    Res =  0.3133E+02
 MRCHDU: Convergence failed at  71  side 2    Res =  0.5127E+02
 MRCHDU: Convergence failed at  72  side 2    Res =  0.7593E+02
 MRCHDU: Convergence failed at  73  side 2    Res =  0.9319E+02
 MRCHDU: Convergence failed at  74  side 2    Res =  0.9215E+02
 MRCHDU: Convergence failed at  75  side 2    Res =  0.8014E+02
 MRCHDU: Convergence failed at  76  side 2    Res =  0.6752E+02
 MRCHDU: Convergence failed at  77  side 2    Res =  0.5687E+02
 MRCHDU: Convergence failed at  78  side 2    Res =  0.4762E+02
 MRCHDU: Convergence failed at  79  side 2    Res =  0.3792E+02
 MRCHDU: Convergence failed at  80  side 2    Res =  0.2800E+02
 MRCHDU: Convergence failed at  81  side 2    Res =  0.2095E+02
 MRCHDU: Convergence failed at  82  side 2    Res =  0.1448E+02
 Side 1  free  transition at x/c =  0.8186   67
 Side 2  free  transition at x/c =  0.7178   63

   2   rms: 0.2213E+00   max: 0.9228E+00   T at   73  2   RLX: 0.889
       a = -1.000      CL = -0.0629
      Cm = -0.0089     CD =  0.00870   =>   CDf =  0.00500    CDp =  0.00370

 Side 1  free  transition at x/c =  0.8203   68
 Side 2  free  transition at x/c =  0.7090   62

   3   rms: 0.5068E-01   max: -.3827E+00   D at   64  2
       a = -1.000      CL = -0.1063
      Cm = -0.0023     CD =  0.00990   =>   CDf =  0.00617    CDp =  0.00373

 Side 1  free  transition at x/c =  0.8179   67
 Side 2  free  transition at x/c =  0.7104   62

   4   rms: 0.4649E-02   max: 0.3455E-01   D at   65  2
       a = -1.000      CL = -0.1039
      Cm = -0.0028     CD =  0.00987   =>   CDf =  0.00606    CDp =  0.00381

 Side 1  free  transition at x/c =  0.8169   67
 Side 2  free  transition at x/c =  0.7096   62

   5   rms: 0.8391E-04   max: -.8284E-03   C at   67  1
       a = -1.000      CL = -0.1038
      Cm = -0.0028     CD =  0.00987   =>   CDf =  0.00606    CDp =  0.00381
 plradd ia,ip,cpol            6           0  7.18606189E-02

 Point added to stored polar  1
 Point written to save file  lwk79100_Re200k.base.pol                        
 Dump file unspecified or not available
 Calculating wake trajectory ...
 Calculating source influence matrix ...

 Solving BL system ...

 Side 1  free  transition at x/c =  0.8169   67
 Side 2  free  transition at x/c =  0.7096   62

   1   rms: 0.8582E-01   max: -.4132E+00   T at   62  2
       a = -0.500      CL = -0.0513
      Cm = -0.0018     CD =  0.00994   =>   CDf =  0.00606    CDp =  0.00388

 Side 1  free  transition at x/c =  0.7856   65
 Side 2  free  transition at x/c =  0.7370   64

   2   rms: 0.2275E-01   max: -.2967E+00   D at   66  1
       a = -0.500      CL = -0.0521
      Cm = -0.0013     CD =  0.00993   =>   CDf =  0.00614    CDp =  0.00378

 Side 1  free  transition at x/c =  0.7894   65
 Side 2  free  transition at x/c =  0.7366   64

   3   rms: 0.7001E-02   max: -.9184E-01   C at   65  1
       a = -0.500      CL = -0.0521
      Cm = -0.0013     CD =  0.00993   =>   CDf =  0.00616    CDp =  0.00377

 Side 1  free  transition at x/c =  0.7895   65
 Side 2  free  transition at x/c =  0.7361   64

   4   rms: 0.4559E-03   max: 0.4910E-02   D at   66  1
       a = -0.500      CL = -0.0520
      Cm = -0.0014     CD =  0.00993   =>   CDf =  0.00612    CDp =  0.00381

 Side 1  free  transition at x/c =  0.7893   65
 Side 2  free  transition at x/c =  0.7361   64

   5   rms: 0.3559E-05   max: -.3473E-04   D at   65  2
       a = -0.500      CL = -0.0520
      Cm = -0.0014     CD =  0.00993   =>   CDf =  0.00613    CDp =  0.00381
 plradd ia,ip,cpol            7           0  8.47578421E-02

 Point added to stored polar  1
 Point written to save file  lwk79100_Re200k.base.pol                        
 Dump file unspecified or not available
 Calculating wake trajectory ...
 Calculating source influence matrix ...

 Solving BL system ...

 Side 1  free  transition at x/c =  0.7893   65
 Side 2  free  transition at x/c =  0.7361   64

   1   rms: 0.8774E-01   max: -.4320E+00   T at   64  2
       a =  0.000      CL =  0.0006
      Cm = -0.0003     CD =  0.00986   =>   CDf =  0.00615    CDp =  0.00372

 Side 1  free  transition at x/c =  0.7589   64
 Side 2  free  transition at x/c =  0.7586   64

   2   rms: 0.3292E-01   max: -.3072E+00   D at   65  1
       a =  0.000      CL = -0.0000
      Cm = -0.0000     CD =  0.01005   =>   CDf =  0.00626    CDp =  0.00379

 Side 1  free  transition at x/c =  0.7655   65
 Side 2  free  transition at x/c =  0.7665   65

   3   rms: 0.1301E-01   max: 0.1159E+00   D at   65  2
       a =  0.000      CL =  0.0000
      Cm = -0.0000     CD =  0.00994   =>   CDf =  0.00609    CDp =  0.00385

 Side 1  free  transition at x/c =  0.7637   65
 Side 2  free  transition at x/c =  0.7639   65

   4   rms: 0.1735E-02   max: -.1411E-01   D at   68  2
       a =  0.000      CL =  0.0000
      Cm = -0.0000     CD =  0.00994   =>   CDf =  0.00611    CDp =  0.00383

 Side 1  free  transition at x/c =  0.7634   65
 Side 2  free  transition at x/c =  0.7634   65

   5   rms: 0.2125E-04   max: -.3337E-03   D at   68  2
       a =  0.000      CL =  0.0000
      Cm = -0.0000     CD =  0.00994   =>   CDf =  0.00612    CDp =  0.00382
 plradd ia,ip,cpol            8           0  0.11173385    

 Point added to stored polar  1
 Point written to save file  lwk79100_Re200k.base.pol                        
 Dump file unspecified or not available
 Calculating wake trajectory ...
 Calculating source influence matrix ...

 Solving BL system ...

 Side 1  free  transition at x/c =  0.7634   65
 Side 2  free  transition at x/c =  0.7634   65

   1   rms: 0.8863E-01   max: -.4029E+00   T at   65  2
       a =  0.500      CL =  0.0514
      Cm =  0.0017     CD =  0.00994   =>   CDf =  0.00612    CDp =  0.00382

 Side 1  free  transition at x/c =  0.7368   64
 Side 2  free  transition at x/c =  0.7827   65

   2   rms: 0.3617E-01   max: -.3210E+00   D at   65  1
       a =  0.500      CL =  0.0521
      Cm =  0.0013     CD =  0.00989   =>   CDf =  0.00616    CDp =  0.00373

 Side 1  free  transition at x/c =  0.7366   64
 Side 2  free  transition at x/c =  0.7898   66

   3   rms: 0.5459E-02   max: -.7225E-01   D at   65  2
       a =  0.500      CL =  0.0521
      Cm =  0.0013     CD =  0.00993   =>   CDf =  0.00615    CDp =  0.00378

 Side 1  free  transition at x/c =  0.7361   64
 Side 2  free  transition at x/c =  0.7896   65

   4   rms: 0.5122E-03   max: 0.7999E-02   D at   66  2
       a =  0.500      CL =  0.0520
      Cm =  0.0014     CD =  0.00993   =>   CDf =  0.00613    CDp =  0.00381

 Side 1  free  transition at x/c =  0.7361   64
 Side 2  free  transition at x/c =  0.7893   65

   5   rms: 0.3685E-05   max: -.3841E-04   D at   66  2
       a =  0.500      CL =  0.0521
      Cm =  0.0014     CD =  0.00993   =>   CDf =  0.00613    CDp =  0.00381
 plradd ia,ip,cpol            9           0  8.47581327E-02

 Point added to stored polar  1
 Point written to save file  lwk79100_Re200k.base.pol                        
 Dump file unspecified or not available
 Calculating wake trajectory ...
 Calculating source influence matrix ...

 Solving BL system ...

 Side 1  free  transition at x/c =  0.7361   64
 Side 2  free  transition at x/c =  0.7893   65

   1   rms: 0.8768E-01   max: -.3255E+00   T at   65  2
       a =  1.000      CL =  0.1048
      Cm =  0.0023     CD =  0.01001   =>   CDf =  0.00613    CDp =  0.00389

 Side 1  free  transition at x/c =  0.7106   62
 Side 2  free  transition at x/c =  0.8224   68

   2   rms: 0.2456E-01   max: -.2838E+00   D at   63  1
       a =  1.000      CL =  0.1041
      Cm =  0.0027     CD =  0.00990   =>   CDf =  0.00608    CDp =  0.00382

 Side 1  free  transition at x/c =  0.7100   62
 Side 2  free  transition at x/c =  0.8191   67

   3   rms: 0.4072E-02   max: 0.5738E-01   D at   68  2
       a =  1.000      CL =  0.1039
      Cm =  0.0028     CD =  0.00987   =>   CDf =  0.00605    CDp =  0.00382

 Side 1  free  transition at x/c =  0.7096   62
 Side 2  free  transition at x/c =  0.8169   67

   4   rms: 0.1260E-03   max: -.1556E-02   C at   67  2
       a =  1.000      CL =  0.1039
      Cm =  0.0028     CD =  0.00987   =>   CDf =  0.00606    CDp =  0.00381

 Side 1  free  transition at x/c =  0.7096   62
 Side 2  free  transition at x/c =  0.8169   67

   5   rms: 0.1239E-05   max: 0.1040E-04   D at    4  2
       a =  1.000      CL =  0.1039
      Cm =  0.0028     CD =  0.00987   =>   CDf =  0.00606    CDp =  0.00381
 plradd ia,ip,cpol           10           0  5.96057363E-02

 Point added to stored polar  1
 Point written to save file  lwk79100_Re200k.base.pol                        
 Dump file unspecified or not available
 Calculating wake trajectory ...
 Calculating source influence matrix ...

 Solving BL system ...

 Side 1  free  transition at x/c =  0.7096   62
 Side 2  free  transition at x/c =  0.8169   67

   1   rms: 0.8584E-01   max: -.2936E+00   T at   67  2
       a =  1.500      CL =  0.1565
      Cm =  0.0039     CD =  0.00981   =>   CDf =  0.00602    CDp =  0.00379

 Side 1  free  transition at x/c =  0.6814   61
 Side 2  free  transition at x/c =  0.8519   69

   2   rms: 0.3098E-01   max: -.3162E+00   D at   62  1
       a =  1.500      CL =  0.1559
      Cm =  0.0044     CD =  0.00979   =>   CDf =  0.00602    CDp =  0.00377

 Side 1  free  transition at x/c =  0.6842   61
 Side 2  free  transition at x/c =  0.8539   69

   3   rms: 0.4370E-02   max: 0.5947E-01   C at   69  2
       a =  1.500      CL =  0.1558
      Cm =  0.0044     CD =  0.00979   =>   CDf =  0.00593    CDp =  0.00386

 Side 1  free  transition at x/c =  0.6839   61
 Side 2  free  transition at x/c =  0.8521   69

   4   rms: 0.9756E-04   max: -.1259E-02   D at   73  2
       a =  1.500      CL =  0.1558
      Cm =  0.0044     CD =  0.00979   =>   CDf =  0.00595    CDp =  0.00384
 plradd ia,ip,cpol           11           0  4.82900850E-02

 Point added to stored polar  1
 Point written to save file  lwk79100_Re200k.base.pol                        
 Dump file unspecified or not available
 Calculating wake trajectory ...
 Calculating source influence matrix ...

 Solving BL system ...

 Side 1  free  transition at x/c =  0.6839   61
 Side 2  free  transition at x/c =  0.8521   69

   1   rms: 0.9815E-01   max: -.6735E+00   C at   69  2   RLX: 0.742
       a =  2.000      CL =  0.1960
      Cm =  0.0052     CD =  0.00957   =>   CDf =  0.00595    CDp =  0.00362

 Side 1  free  transition at x/c =  0.6568   60
 Side 2  free  transition at x/c =  0.8788   70

   2   rms: 0.4192E-01   max: -.3055E+00   D at   60  1
       a =  2.000      CL =  0.2078
      Cm =  0.0059     CD =  0.00969   =>   CDf =  0.00589    CDp =  0.00380

 Side 1  free  transition at x/c =  0.6562   61
 Side 2  free  transition at x/c =  0.9186   72

   3   rms: 0.2685E-01   max: 0.3116E+00   C at   72  2
       a =  2.000      CL =  0.2119
      Cm =  0.0054     CD =  0.00972   =>   CDf =  0.00578    CDp =  0.00394

 Side 1  free  transition at x/c =  0.6556   61
 Side 2  free  transition at x/c =  0.9109   72

   4   rms: 0.9705E-02   max: 0.1312E+00   C at   72  2
       a =  2.000      CL =  0.2144
      Cm =  0.0048     CD =  0.00973   =>   CDf =  0.00579    CDp =  0.00393

 Side 1  free  transition at x/c =  0.6554   60
 Side 2  free  transition at x/c =  0.9062   71

   5   rms: 0.1858E-02   max: 0.1740E-01   C at   71  2
       a =  2.000      CL =  0.2158
      Cm =  0.0046     CD =  0.00972   =>   CDf =  0.00580    CDp =  0.00392

 Side 1  free  transition at x/c =  0.6550   60
 Side 2  free  transition at x/c =  0.9048   71

   6   rms: 0.7742E-04   max: -.1065E-02   C at   71  2
       a =  2.000      CL =  0.2158
      Cm =  0.0046     CD =  0.00972   =>   CDf =  0.00580    CDp =  0.00392
 plradd ia,ip,cpol           12           0  1.76678225E-02

 Point added to stored polar  1
 Point written to save file  lwk79100_Re200k.base.pol                        
 Dump file unspecified or not available
 Calculating wake trajectory ...
 Calculating source influence matrix ...

 Solving BL system ...

 Side 1  free  transition at x/c =  0.6550   60
 Side 2  free  transition at x/c =  0.9048   71

   1   rms: 0.1188E+00   max: -.8313E+00   C at   71  2   RLX: 0.601
       a =  2.500      CL =  0.2594
      Cm =  0.0028     CD =  0.00957   =>   CDf =  0.00580    CDp =  0.00377

 Side 1  free  transition at x/c =  0.6281   59
 Side 2  free  transition at x/c =  0.9401   74

   2   rms: 0.6446E-01   max: -.4097E+00   C at   74  2
       a =  2.500      CL =  0.3019
      Cm = -0.0010     CD =  0.00969   =>   CDf =  0.00581    CDp =  0.00389

 Side 1  free  transition at x/c =  0.6186   58
 Side 2  free  transition at x/c =  0.9592   75

   3   rms: 0.1497E-01   max: -.1092E+00   C at   75  2
       a =  2.500      CL =  0.3018
      Cm = -0.0011     CD =  0.00970   =>   CDf =  0.00573    CDp =  0.00396

 Side 1  free  transition at x/c =  0.6181   58
 Side 2  free  transition at x/c =  0.9706   76

   4   rms: 0.2550E-02   max: 0.3254E-01   C at   76  2
       a =  2.500      CL =  0.3021
      Cm = -0.0012     CD =  0.00970   =>   CDf =  0.00571    CDp =  0.00399

 Side 1  free  transition at x/c =  0.6180   58
 Side 2  free  transition at x/c =  0.9695   76

   5   rms: 0.1069E-03   max: -.1110E-02   C at   76  2
       a =  2.500      CL =  0.3021
      Cm = -0.0012     CD =  0.00970   =>   CDf =  0.00571    CDp =  0.00399

 Side 1  free  transition at x/c =  0.6180   58
 Side 2  free  transition at x/c =  0.9696   76

   6   rms: 0.1002E-05   max: 0.1095E-04   D at    4  2
       a =  2.500      CL =  0.3021
      Cm = -0.0012     CD =  0.00970   =>   CDf =  0.00571    CDp =  0.00399
 plradd ia,ip,cpol           13           0  1.34050092E-02

 Point added to stored polar  1
 Point written to save file  lwk79100_Re200k.base.pol                        
 Dump file unspecified or not available
 Calculating wake trajectory ...
 Calculating source influence matrix ...

 Solving BL system ...

 Side 1  free  transition at x/c =  0.6180   58
 Side 2  free  transition at x/c =  0.9696   76

   1   rms: 0.1278E+00   max: 0.3239E+00   D at   78  2
       a =  3.000      CL =  0.4022
      Cm = -0.0102     CD =  0.00961   =>   CDf =  0.00565    CDp =  0.00395

 Side 1  free  transition at x/c =  0.5645   55
 Side 2 forced transition at x/c =  1.0000   77

   2   rms: 0.6525E-01   max: 0.4412E+00   D at   58  1
       a =  3.000      CL =  0.3702
      Cm = -0.0045     CD =  0.00999   =>   CDf =  0.00584    CDp =  0.00415

 Side 1  free  transition at x/c =  0.5791   56
 Side 2 forced transition at x/c =  1.0000   77

   3   rms: 0.2641E-01   max: 0.2177E+00   C at   56  1
       a =  3.000      CL =  0.3747
      Cm = -0.0050     CD =  0.00965   =>   CDf =  0.00575    CDp =  0.00389

 Side 1  free  transition at x/c =  0.5769   56
 Side 2 forced transition at x/c =  1.0000   77

   4   rms: 0.4346E-02   max: 0.3156E-01   C at   77  2
       a =  3.000      CL =  0.3756
      Cm = -0.0052     CD =  0.00969   =>   CDf =  0.00577    CDp =  0.00392

 Side 1  free  transition at x/c =  0.5753   56
 Side 2 forced transition at x/c =  1.0000   77

   5   rms: 0.2032E-03   max: -.1376E-02   D at   57  1
       a =  3.000      CL =  0.3757
      Cm = -0.0052     CD =  0.00969   =>   CDf =  0.00577    CDp =  0.00392

 Side 1  free  transition at x/c =  0.5753   56
 Side 2 forced transition at x/c =  1.0000   77

   6   rms: 0.9571E-06   max: 0.5007E-05   C at   77  2
       a =  3.000      CL =  0.3757
      Cm = -0.0052     CD =  0.00969   =>   CDf =  0.00577    CDp =  0.00392
 plradd ia,ip,cpol           14           0  1.34050092E-02

 Point added to stored polar  1
 Point written to save file  lwk79100_Re200k.base.pol                        
 Dump file unspecified or not available
 Calculating wake trajectory ...
 Calculating source influence matrix ...

 Solving BL system ...

 Side 1  free  transition at x/c =  0.5753   56
 Side 2 forced transition at x/c =  1.0000   77

   1   rms: 0.9660E-01   max: 0.4700E+00   T at   56  1
       a =  3.500      CL =  0.4225
      Cm = -0.0036     CD =  0.00972   =>   CDf =  0.00569    CDp =  0.00403

 Side 1  free  transition at x/c =  0.5178   53
 Side 2 forced transition at x/c =  1.0000   76

   2   rms: 0.3361E-01   max: -.4528E+00   D at   55  1
       a =  3.500      CL =  0.4223
      Cm = -0.0033     CD =  0.00994   =>   CDf =  0.00610    CDp =  0.00384

 Side 1  free  transition at x/c =  0.5271   54
 Side 2 forced transition at x/c =  1.0000   76

   3   rms: 0.8548E-02   max: 0.9063E-01   C at   54  1
       a =  3.500      CL =  0.4236
[...]
       a = 13.750      CL =  0.5964
      Cm = -0.0289     CD =  0.15382   =>   CDf =  0.00331    CDp =  0.15051

 Side 1  free  transition at x/c =  0.0593   25
 Side 2 forced transition at x/c =  1.0000   72

   6   rms: 0.2438E-02   max: 0.1308E-01   D at    4  1
       a = 13.750      CL =  0.5955
      Cm = -0.0287     CD =  0.15310   =>   CDf =  0.00331    CDp =  0.14979

 Side 1  free  transition at x/c =  0.0593   25
 Side 2 forced transition at x/c =  1.0000   72

   7   rms: 0.2776E-03   max: -.1043E-02   C at   72  2
       a = 13.750      CL =  0.5955
      Cm = -0.0287     CD =  0.15295   =>   CDf =  0.00331    CDp =  0.14964

 Side 1  free  transition at x/c =  0.0593   25
 Side 2 forced transition at x/c =  1.0000   72

   8   rms: 0.4123E-04   max: 0.1821E-03   D at   91  2
       a = 13.750      CL =  0.5954
      Cm = -0.0287     CD =  0.15292   =>   CDf =  0.00331    CDp =  0.14961
 plradd ia,ip,cpol           43           0  3.52049974E-04

 Point added to stored polar  1
 Point written to save file  lwk79100_Re200k.base.pol                        
 Dump file unspecified or not available
 Calculating wake trajectory ...
 Calculating source influence matrix ...

 Solving BL system ...

 Side 1  free  transition at x/c =  0.0593   25
 Side 2 forced transition at x/c =  1.0000   72
 idif Ue xi dudx           1  0.12492771      4.97758389E-03   25.098063    
 Uenew xinew           2  3.52448435E-03  1.40428543E-04

   1   rms: 0.4495E-01   max: 0.1766E+00   T at   25  1   RLX: 0.477
       a = 14.000      CL =  0.5910
      Cm = -0.0308     CD =  0.15655   =>   CDf =  0.00345    CDp =  0.15310

 Side 1  free  transition at x/c =  0.0588   24
 Side 2 forced transition at x/c =  1.0000   73

   2   rms: 0.4959E-01   max: -.3653E+00   D at    2  2
       a = 14.000      CL =  0.5877
      Cm = -0.0340     CD =  0.16284   =>   CDf =  0.00332    CDp =  0.15952

 Side 1  free  transition at x/c =  0.0574   24
 Side 2 forced transition at x/c =  1.0000   73

   3   rms: 0.4062E-01   max: 0.1857E+00   D at   25  1
       a = 14.000      CL =  0.5782
      Cm = -0.0352     CD =  0.16221   =>   CDf =  0.00332    CDp =  0.15889

 Side 1  free  transition at x/c =  0.0577   24
 Side 2 forced transition at x/c =  1.0000   73

   4   rms: 0.1547E-01   max: -.1320E+00   T at   24  1
       a = 14.000      CL =  0.5752
      Cm = -0.0339     CD =  0.15624   =>   CDf =  0.00333    CDp =  0.15291

 Side 1  free  transition at x/c =  0.0584   24
 Side 2 forced transition at x/c =  1.0000   73

   5   rms: 0.8540E-02   max: -.3418E-01   D at   25  1
       a = 14.000      CL =  0.5767
      Cm = -0.0334     CD =  0.15454   =>   CDf =  0.00333    CDp =  0.15122

 Side 1  free  transition at x/c =  0.0585   24
 Side 2 forced transition at x/c =  1.0000   73

   6   rms: 0.4968E-02   max: 0.3062E-01   T at   24  1
       a = 14.000      CL =  0.5769
      Cm = -0.0338     CD =  0.15583   =>   CDf =  0.00332    CDp =  0.15251

 Side 1  free  transition at x/c =  0.0583   24
 Side 2 forced transition at x/c =  1.0000   73

   7   rms: 0.9774E-03   max: -.6045E-02   T at   24  1
       a = 14.000      CL =  0.5769
      Cm = -0.0337     CD =  0.15574   =>   CDf =  0.00332    CDp =  0.15241

 Side 1  free  transition at x/c =  0.0584   24
 Side 2 forced transition at x/c =  1.0000   73

   8   rms: 0.1336E-03   max: 0.8688E-03   T at   24  1
       a = 14.000      CL =  0.5769
      Cm = -0.0337     CD =  0.15574   =>   CDf =  0.00332    CDp =  0.15242

 Side 1  free  transition at x/c =  0.0584   24
 Side 2 forced transition at x/c =  1.0000   73

   9   rms: 0.7834E-05   max: -.5185E-04   T at   24  1
       a = 14.000      CL =  0.5769
      Cm = -0.0337     CD =  0.15574   =>   CDf =  0.00332    CDp =  0.15242
 plradd ia,ip,cpol           44           0  3.52049974E-04

 Point added to stored polar  1
 Point written to save file  lwk79100_Re200k.base.pol                        
 Dump file unspecified or not available
 Calculating wake trajectory ...
 Calculating source influence matrix ...

 Solving BL system ...

 Side 1  free  transition at x/c =  0.0584   24
 Side 2 forced transition at x/c =  1.0000   73

   1   rms: 0.1113E+00   max: 0.6298E+00   T at   24  1   RLX: 0.449
       a = 14.250      CL =  0.5649
      Cm = -0.0372     CD =  0.15927   =>   CDf =  0.00332    CDp =  0.15594

 Side 1  free  transition at x/c =  0.0569   24
 Side 2 forced transition at x/c =  1.0000   73

   2   rms: 0.2147E-01   max: 0.1948E+00   T at   24  1
       a = 14.250      CL =  0.5630
      Cm = -0.0372     CD =  0.15595   =>   CDf =  0.00333    CDp =  0.15262

 Side 1  free  transition at x/c =  0.0557   24
 Side 2 forced transition at x/c =  1.0000   73

   3   rms: 0.9470E-02   max: -.4077E-01   D at   25  1
       a = 14.250      CL =  0.5666
      Cm = -0.0372     CD =  0.15728   =>   CDf =  0.00332    CDp =  0.15396

 Side 1  free  transition at x/c =  0.0556   24
 Side 2 forced transition at x/c =  1.0000   73

   4   rms: 0.2496E-02   max: 0.1636E-01   T at   24  1
       a = 14.250      CL =  0.5682
      Cm = -0.0372     CD =  0.15854   =>   CDf =  0.00332    CDp =  0.15522

 Side 1  free  transition at x/c =  0.0554   24
 Side 2 forced transition at x/c =  1.0000   73

   5   rms: 0.1362E-03   max: -.1107E-02   D at   94  2
       a = 14.250      CL =  0.5683
      Cm = -0.0373     CD =  0.15869   =>   CDf =  0.00332    CDp =  0.15537

 Side 1  free  transition at x/c =  0.0554   24
 Side 2 forced transition at x/c =  1.0000   73

   6   rms: 0.2316E-05   max: -.8973E-05   T at   90  2
       a = 14.250      CL =  0.5683
      Cm = -0.0373     CD =  0.15869   =>   CDf =  0.00332    CDp =  0.15537
 plradd ia,ip,cpol           45           0  3.52049974E-04

 Point added to stored polar  1
 Point written to save file  lwk79100_Re200k.base.pol                        
 Dump file unspecified or not available
 Calculating wake trajectory ...
 Calculating source influence matrix ...

 Solving BL system ...

 Side 1  free  transition at x/c =  0.0554   24
 Side 2 forced transition at x/c =  1.0000   73

   1   rms: 0.2217E-01   max: 0.3591E+00   T at   24  1   RLX: 0.446
       a = 14.500      CL =  0.5694
      Cm = -0.0383     CD =  0.16109   =>   CDf =  0.00332    CDp =  0.15777

 Side 1  free  transition at x/c =  0.0543   24
 Side 2 forced transition at x/c =  1.0000   73

   2   rms: 0.9509E-02   max: 0.1482E+00   T at   24  1
       a = 14.500      CL =  0.5711
      Cm = -0.0391     CD =  0.16254   =>   CDf =  0.00332    CDp =  0.15922

 Side 1  free  transition at x/c =  0.0531   24
 Side 2 forced transition at x/c =  1.0000   73

   3   rms: 0.2137E-02   max: -.1340E-01   D at   25  1
       a = 14.500      CL =  0.5702
      Cm = -0.0390     CD =  0.16146   =>   CDf =  0.00331    CDp =  0.15815

 Side 1  free  transition at x/c =  0.0532   24
 Side 2 forced transition at x/c =  1.0000   73

   4   rms: 0.6479E-03   max: 0.2886E-02   T at   24  1
       a = 14.500      CL =  0.5706
      Cm = -0.0390     CD =  0.16161   =>   CDf =  0.00331    CDp =  0.15830

 Side 1  free  transition at x/c =  0.0532   24
 Side 2 forced transition at x/c =  1.0000   73

   5   rms: 0.5834E-04   max: -.4018E-03   D at   91  2
       a = 14.500      CL =  0.5707
      Cm = -0.0390     CD =  0.16167   =>   CDf =  0.00331    CDp =  0.15836
 plradd ia,ip,cpol           46           0  3.52049974E-04

 Point added to stored polar  1
 Point written to save file  lwk79100_Re200k.base.pol                        
 Dump file unspecified or not available
 Calculating wake trajectory ...
 Calculating source influence matrix ...

 Solving BL system ...

 Side 1  free  transition at x/c =  0.0532   24
 Side 2 forced transition at x/c =  1.0000   73

   1   rms: 0.1809E-01   max: 0.2588E+00   T at   24  1   RLX: 0.437
       a = 14.750      CL =  0.5728
      Cm = -0.0397     CD =  0.16370   =>   CDf =  0.00331    CDp =  0.16039

 Side 1  free  transition at x/c =  0.0524   24
 Side 2 forced transition at x/c =  1.0000   73

   2   rms: 0.1036E-01   max: 0.1335E+00   T at   24  1
       a = 14.750      CL =  0.5759
      Cm = -0.0403     CD =  0.16533   =>   CDf =  0.00330    CDp =  0.16203

 Side 1  free  transition at x/c =  0.0515   24
 Side 2 forced transition at x/c =  1.0000   73

   3   rms: 0.2454E-02   max: -.1550E-01   D at   24  1
       a = 14.750      CL =  0.5750
      Cm = -0.0403     CD =  0.16423   =>   CDf =  0.00330    CDp =  0.16093

 Side 1  free  transition at x/c =  0.0516   24
 Side 2 forced transition at x/c =  1.0000   73

   4   rms: 0.7569E-03   max: 0.3145E-02   C at   73  2
       a = 14.750      CL =  0.5755
      Cm = -0.0403     CD =  0.16439   =>   CDf =  0.00330    CDp =  0.16109

 Side 1  free  transition at x/c =  0.0516   24
 Side 2 forced transition at x/c =  1.0000   73

   5   rms: 0.8005E-04   max: -.5228E-03   D at   91  2
       a = 14.750      CL =  0.5755
      Cm = -0.0403     CD =  0.16447   =>   CDf =  0.00330    CDp =  0.16117
 plradd ia,ip,cpol           47           0  3.52049974E-04

 Point added to stored polar  1
 Point written to save file  lwk79100_Re200k.base.pol                        
 Dump file unspecified or not available
 Calculating wake trajectory ...
 Calculating source influence matrix ...

 Solving BL system ...

 Side 1  free  transition at x/c =  0.0516   24
 Side 2 forced transition at x/c =  1.0000   73

   1   rms: 0.2250E-01   max: 0.2728E+00   T at   24  1   RLX: 0.429
       a = 15.000      CL =  0.5785
      Cm = -0.0407     CD =  0.16620   =>   CDf =  0.00316    CDp =  0.16304

 Side 1  free  transition at x/c =  0.0508   25
 Side 2 forced transition at x/c =  1.0000   72

   2   rms: 0.1996E-01   max: 0.2094E+00   T at    2  1
       a = 15.000      CL =  0.5833
      Cm = -0.0410     CD =  0.16730   =>   CDf =  0.00328    CDp =  0.16402

 Side 1  free  transition at x/c =  0.0499   25
 Side 2 forced transition at x/c =  1.0000   72

   3   rms: 0.1250E-01   max: -.7768E-01   D at   25  1
       a = 15.000      CL =  0.5817
      Cm = -0.0408     CD =  0.16532   =>   CDf =  0.00327    CDp =  0.16205

 Side 1  free  transition at x/c =  0.0501   25
 Side 2 forced transition at x/c =  1.0000   72

   4   rms: 0.5829E-02   max: 0.2489E-01   T at   25  1
       a = 15.000      CL =  0.5846
      Cm = -0.0407     CD =  0.16660   =>   CDf =  0.00327    CDp =  0.16333

 Side 1  free  transition at x/c =  0.0500   25
 Side 2 forced transition at x/c =  1.0000   72

   5   rms: 0.1150E-02   max: 0.4830E-02   T at   25  1
       a = 15.000      CL =  0.5851
      Cm = -0.0406     CD =  0.16698   =>   CDf =  0.00327    CDp =  0.16371

 Side 1  free  transition at x/c =  0.0500   25
 Side 2 forced transition at x/c =  1.0000   72

   6   rms: 0.2322E-03   max: 0.1180E-02   T at   25  1
       a = 15.000      CL =  0.5852
      Cm = -0.0406     CD =  0.16706   =>   CDf =  0.00327    CDp =  0.16379

 Side 1  free  transition at x/c =  0.0500   25
 Side 2 forced transition at x/c =  1.0000   72

   7   rms: 0.2554E-04   max: 0.1297E-03   T at   25  1
       a = 15.000      CL =  0.5853
      Cm = -0.0406     CD =  0.16708   =>   CDf =  0.00327    CDp =  0.16381
 plradd ia,ip,cpol           48           0  3.52049974E-04

 Point added to stored polar  1
 Point written to save file  lwk79100_Re200k.base.pol                        
 Dump file unspecified or not available
 Calculating wake trajectory ...
 Calculating source influence matrix ...

 Solving BL system ...

 Side 1  free  transition at x/c =  0.0499   25
 Side 2 forced transition at x/c =  1.0000   72

   1   rms: 0.5272E-01   max: 0.4439E+00   T at   25  1   RLX: 0.425
       a = 15.250      CL =  0.5915
      Cm = -0.0403     CD =  0.16811   =>   CDf =  0.00327    CDp =  0.16484

 Side 1  free  transition at x/c =  0.0492   25
 Side 2 forced transition at x/c =  1.0000   72

   2   rms: 0.8199E-01   max: 0.4563E+00   T at   25  1
       a = 15.250      CL =  0.6147
      Cm = -0.0367     CD =  0.16672   =>   CDf =  0.00326    CDp =  0.16346

 Side 1  free  transition at x/c =  0.0482   24
 Side 2 forced transition at x/c =  1.0000   72

   3   rms: 0.3526E-01   max: 0.8269E-01   D at   33  1
       a = 15.250      CL =  0.6106
      Cm = -0.0389     CD =  0.17564   =>   CDf =  0.00324    CDp =  0.17240

 Side 1  free  transition at x/c =  0.0482   24
 Side 2 forced transition at x/c =  1.0000   72

   4   rms: 0.1284E-01   max: -.4233E-01   C at   72  2
       a = 15.250      CL =  0.6087
      Cm = -0.0387     CD =  0.17422   =>   CDf =  0.00325    CDp =  0.17097

 Side 1  free  transition at x/c =  0.0482   24
 Side 2 forced transition at x/c =  1.0000   72

   5   rms: 0.1779E-02   max: 0.9498E-02   D at   91  2
       a = 15.250      CL =  0.6078
      Cm = -0.0386     CD =  0.17261   =>   CDf =  0.00325    CDp =  0.16935

 Side 1  free  transition at x/c =  0.0482   24
 Side 2 forced transition at x/c =  1.0000   72

   6   rms: 0.1456E-03   max: 0.6161E-03   D at   25  1
       a = 15.250      CL =  0.6079
      Cm = -0.0386     CD =  0.17264   =>   CDf =  0.00326    CDp =  0.16938

 Side 1  free  transition at x/c =  0.0482   24
 Side 2 forced transition at x/c =  1.0000   72

   7   rms: 0.3057E-04   max: 0.9505E-04   D at   85  2
       a = 15.250      CL =  0.6079
      Cm = -0.0386     CD =  0.17263   =>   CDf =  0.00326    CDp =  0.16937
 plradd ia,ip,cpol           49           0  3.52049974E-04

 Point added to stored polar  1
 Point written to save file  lwk79100_Re200k.base.pol                        
 Dump file unspecified or not available
 Calculating wake trajectory ...
 Calculating source influence matrix ...

 Solving BL system ...

 Side 1  free  transition at x/c =  0.0482   24
 Side 2 forced transition at x/c =  1.0000   72

   1   rms: 0.3134E-01   max: -.1262E+00   C at   72  2   RLX: 0.416
       a = 15.500      CL =  0.6065
      Cm = -0.0400     CD =  0.17519   =>   CDf =  0.00325    CDp =  0.17194

 Side 1  free  transition at x/c =  0.0481   24
 Side 2 forced transition at x/c =  1.0000   72

   2   rms: 0.2454E-01   max: -.1051E+00   C at   72  2
       a = 15.500      CL =  0.6057
      Cm = -0.0422     CD =  0.17929   =>   CDf =  0.00325    CDp =  0.17604

 Side 1  free  transition at x/c =  0.0478   24
 Side 2 forced transition at x/c =  1.0000   72

   3   rms: 0.3157E-01   max: 0.1423E+00   D at   25  1
       a = 15.500      CL =  0.6050
      Cm = -0.0426     CD =  0.18033   =>   CDf =  0.00325    CDp =  0.17708

 Side 1  free  transition at x/c =  0.0479   24
 Side 2 forced transition at x/c =  1.0000   72

   4   rms: 0.8524E-02   max: -.3637E-01   T at   24  1
       a = 15.500      CL =  0.6023
      Cm = -0.0419     CD =  0.17549   =>   CDf =  0.00325    CDp =  0.17223

 Side 1  free  transition at x/c =  0.0479   24
 Side 2 forced transition at x/c =  1.0000   72

   5   rms: 0.3956E-02   max: 0.2002E-01   D at   25  1
       a = 15.500      CL =  0.6030
      Cm = -0.0420     CD =  0.17610   =>   CDf =  0.00325    CDp =  0.17284

 Side 1  free  transition at x/c =  0.0479   24
 Side 2 forced transition at x/c =  1.0000   72

   6   rms: 0.1345E-02   max: -.5610E-02   C at   72  2
       a = 15.500      CL =  0.6025
      Cm = -0.0419     CD =  0.17559   =>   CDf =  0.00325    CDp =  0.17234

 Side 1  free  transition at x/c =  0.0479   24
 Side 2 forced transition at x/c =  1.0000   72

   7   rms: 0.9959E-04   max: 0.5791E-03   D at   89  2
       a = 15.500      CL =  0.6025
      Cm = -0.0419     CD =  0.17551   =>   CDf =  0.00325    CDp =  0.17226
 plradd ia,ip,cpol           50           0  3.52049974E-04

 Point added to stored polar  1
 Point written to save file  lwk79100_Re200k.base.pol                        
 Dump file unspecified or not available
 Calculating wake trajectory ...
 Calculating source influence matrix ...

 Solving BL system ...

 Side 1  free  transition at x/c =  0.0479   24
 Side 2 forced transition at x/c =  1.0000   72

   1   rms: 0.4623E-01   max: 0.2005E+00   T at   24  1   RLX: 0.404
       a = 15.750      CL =  0.6000
      Cm = -0.0436     CD =  0.17785   =>   CDf =  0.00325    CDp =  0.17460

 Side 1  free  transition at x/c =  0.0476   24
 Side 2 forced transition at x/c =  1.0000   72

   2   rms: 0.3723E-01   max: 0.1516E+00   T at   24  1
       a = 15.750      CL =  0.5954
      Cm = -0.0466     CD =  0.18227   =>   CDf =  0.00325    CDp =  0.17902

 Side 1  free  transition at x/c =  0.0467   24
 Side 2 forced transition at x/c =  1.0000   72

   3   rms: 0.1711E-01   max: 0.1007E+00   D at   25  1
       a = 15.750      CL =  0.5928
      Cm = -0.0468     CD =  0.18052   =>   CDf =  0.00326    CDp =  0.17726

 Side 1  free  transition at x/c =  0.0468   24
 Side 2 forced transition at x/c =  1.0000   72

   4   rms: 0.6843E-02   max: -.4984E-01   T at   24  1
       a = 15.750      CL =  0.5911
      Cm = -0.0464     CD =  0.17786   =>   CDf =  0.00326    CDp =  0.17460

 Side 1  free  transition at x/c =  0.0470   24
 Side 2 forced transition at x/c =  1.0000   72

   5   rms: 0.1187E-02   max: -.4665E-02   D at   25  1
       a = 15.750      CL =  0.5911
      Cm = -0.0463     CD =  0.17738   =>   CDf =  0.00326    CDp =  0.17412

 Side 1  free  transition at x/c =  0.0471   24
 Side 2 forced transition at x/c =  1.0000   72

   6   rms: 0.5443E-03   max: 0.3725E-02   T at   24  1
       a = 15.750      CL =  0.5912
      Cm = -0.0464     CD =  0.17755   =>   CDf =  0.00326    CDp =  0.17429

 Side 1  free  transition at x/c =  0.0470   24
 Side 2 forced transition at x/c =  1.0000   72

   7   rms: 0.3221E-04   max: -.2223E-03   T at   24  1
       a = 15.750      CL =  0.5912
      Cm = -0.0464     CD =  0.17756   =>   CDf =  0.00326    CDp =  0.17430
 plradd ia,ip,cpol           51           0  3.52049974E-04

 Point added to stored polar  1
 Point written to save file  lwk79100_Re200k.base.pol                        
 Dump file unspecified or not available
 Calculating wake trajectory ...
 Calculating source influence matrix ...

 Solving BL system ...

 Side 1  free  transition at x/c =  0.0471   24
 Side 2 forced transition at x/c =  1.0000   72

   1   rms: 0.9859E-01   max: 0.6746E+00   T at   24  1   RLX: 0.390
       a = 16.000      CL =  0.5870
      Cm = -0.0487     CD =  0.18019   =>   CDf =  0.00326    CDp =  0.17693

 Side 1  free  transition at x/c =  0.0458   24
 Side 2 forced transition at x/c =  1.0000   72

   2   rms: 0.1951E-01   max: 0.2128E+00   T at   24  1
       a = 16.000      CL =  0.5867
      Cm = -0.0493     CD =  0.17846   =>   CDf =  0.00326    CDp =  0.17520

 Side 1  free  transition at x/c =  0.0446   24
 Side 2 forced transition at x/c =  1.0000   72

   3   rms: 0.8549E-02   max: -.4636E-01   D at   25  1
       a = 16.000      CL =  0.5885
      Cm = -0.0492     CD =  0.17899   =>   CDf =  0.00325    CDp =  0.17573

 Side 1  free  transition at x/c =  0.0446   24
 Side 2 forced transition at x/c =  1.0000   72

   4   rms: 0.2642E-02   max: 0.1365E-01   T at   24  1
       a = 16.000      CL =  0.5900
      Cm = -0.0493     CD =  0.18040   =>   CDf =  0.00325    CDp =  0.17714

 Side 1  free  transition at x/c =  0.0445   24
 Side 2 forced transition at x/c =  1.0000   72

   5   rms: 0.1994E-03   max: -.1704E-02   D at   91  2
       a = 16.000      CL =  0.5901
      Cm = -0.0493     CD =  0.18062   =>   CDf =  0.00325    CDp =  0.17737

 Side 1  free  transition at x/c =  0.0445   24
 Side 2 forced transition at x/c =  1.0000   72

   6   rms: 0.3481E-05   max: -.1191E-04   T at   24  1
       a = 16.000      CL =  0.5901
      Cm = -0.0493     CD =  0.18062   =>   CDf =  0.00325    CDp =  0.17737
 plradd ia,ip,cpol           52           0  3.52049974E-04

 Point added to stored polar  1
 Point written to save file  lwk79100_Re200k.base.pol                        
 Dump file unspecified or not available

.OPERva   c>  
 Polar accumulation disabled

.OPERv   c>  
 XFOIL   c>  
 XFOIL   c>  