
 ===================================================
  XFOIL Version 6.99
  Copyright (C) 2000   Mark Drela, Harold Youngren

  This software comes with ABSOLUTELY NO WARRANTY,
    subject to the GNU General Public License.

  Caveat computor
 ===================================================

 File  xfoil.def  not found

   QUIT    Exit program

  .OPER    Direct operating point(s)
  .MDES    Complex mapping design routine
  .QDES    Surface speed design routine
  .GDES    Geometry design routine

   SAVE f  Write airfoil to labeled coordinate file
   PSAV f  Write airfoil to plain coordinate file
   ISAV f  Write airfoil to ISES coordinate file
   MSAV f  Write airfoil to MSES coordinate file
   REVE    Reverse written-airfoil node ordering

   LOAD f  Read buffer airfoil from coordinate file
   NACA i  Set NACA 4,5-digit airfoil and buffer airfoil
   INTE    Set buffer airfoil by interpolating two airfoils
   NORM    Buffer airfoil normalization toggle
   XYCM rr Change CM reference location, currently  0.25000 0.00000

   BEND    Display structural properties of current airfoil

   PCOP    Set current-airfoil panel nodes directly from buffer airfoil points
   PANE    Set current-airfoil panel nodes ( 160 ) based on curvature
  .PPAR    Show/change paneling

  .PLOP    Plotting options

   WDEF f  Write  current-settings file
   RDEF f  Reread current-settings file
   NAME s  Specify new airfoil name
   NINC    Increment name version number

   Z       Zoom    | (available in all menus)
   U       Unzoom  | 

 XFOIL   c>  
 Labeled airfoil file.  Name:  LWK 80-080                                      

 Number of input coordinate points:  97
 Counterclockwise ordering
 Max thickness =     0.080620  at x =   0.402
 Max camber    =     0.000000  at x =   0.750

  LE  x,y  =   0.00000   0.00000  |   Chord =   1.00000
  TE  x,y  =   1.00000   0.00000  |

 Current airfoil nodes set from buffer airfoil nodes (  97 )

 XFOIL   c>  
 XFOIL   c>  
 Sharp trailing edge

 Paneling parameters used...
   Number of panel nodes       160
   Panel bunching parameter    1.000
   TE/LE panel density ratio   0.150
   Refined-area/LE panel density ratio    0.200
   Top    side refined area x/c limits  1.000 1.000
   Bottom side refined area x/c limits  1.000 1.000

 XFOIL   c>  
.OPERi   c>  
 Xtr/c     =  1.0000    top    side
 Xtr/c     =  1.0000    bottom side
 Ncrit     =    9.00   ( 0.070 % turb. level )
 Vacc      =  0.0100

 Klag  =  5.6000     Uxwt  =    1.00
 A     =  6.7000     B     =  0.7500       KCt = 0.01485
 CtiniK=  1.8000     CtiniX=  3.3000

..VPAR   c>  
..VPAR   c>  
.OPERi   c>  
 M  =    0.0000
 Re =    400000

.OPERv   c>  
.OPERv   c>  
.OPERv   c>  
 Polar  1 newly created for accumulation
 Airfoil archived with polar: LWK 80-080                                      

Enter  polar save filename  OR  <return> for no file   s>  
 New polar save file available

Enter  polar dump filename  OR  <return> for no file   s>  
 Polar dump file will NOT be written

 Polar accumulation enabled

.OPERva   c>   Calculating unit vorticity distributions ...
 Calculating wake trajectory ...
 Calculating source influence matrix ...

 Solving BL system ...

 Initializing BL ...
    side            1  ...
 MRCHUE: Inverse mode at  57     Hk =   3.842
 MRCHUE: Inverse mode at  58     Hk =   4.306
 MRCHUE: Inverse mode at  59     Hk =   4.761
 MRCHUE: Inverse mode at  60     Hk =   5.210
 MRCHUE: Inverse mode at  61     Hk =   5.653
 MRCHUE: Inverse mode at  62     Hk =   6.090
 MRCHUE: Inverse mode at  63     Hk =   6.521
 MRCHUE: Inverse mode at  64     Hk =   6.948
 MRCHUE: Inverse mode at  65     Hk =   7.372
 MRCHUE: Inverse mode at  66     Hk =   7.792
 MRCHUE: Inverse mode at  67     Hk =   8.209
 MRCHUE: Inverse mode at  68     Hk =   8.624
 MRCHUE: Inverse mode at  69     Hk =   9.037
 MRCHUE: Inverse mode at  70     Hk =   9.447
 MRCHUE: Inverse mode at  71     Hk =   8.500
 MRCHUE: Inverse mode at  72     Hk =   6.896
 MRCHUE: Inverse mode at  73     Hk =   5.795
 MRCHUE: Inverse mode at  74     Hk =   5.008
 MRCHUE: Inverse mode at  75     Hk =   4.517
 MRCHUE: Inverse mode at  76     Hk =   4.209
 MRCHUE: Inverse mode at  77     Hk =   4.054
    side            2  ...
 MRCHUE: Inverse mode at   9     Hk =   4.251
 MRCHUE: Inverse mode at  10     Hk =   5.856
 MRCHUE: Inverse mode at  11     Hk =   7.702
 MRCHUE: Inverse mode at  12     Hk =   9.907
 MRCHUE: Inverse mode at  13     Hk =   2.500
 MRCHUE: Convergence failed at  85  side 2    Res =  0.2935E+01

 MRCHDU: Convergence failed at  85  side 2    Res =  0.2225E+01
 Side 1  free  transition at x/c =  0.9336   71
 Side 2  free  transition at x/c =  0.0254   13

   1   rms: 0.4843E+00   max: 0.2613E+01   D at   87  2   RLX: 0.346
       a = -4.000      CL = -0.4536
      Cm = -0.0010     CD =  0.00399   =>   CDf =  0.00696    CDp = -0.00297

 MRCHDU: Convergence failed at  14  side 2    Res =  0.3771E+01
 MRCHDU: Convergence failed at  15  side 2    Res =  0.4450E+01
 MRCHDU: Convergence failed at  16  side 2    Res =  0.3288E+01
 MRCHDU: Convergence failed at  17  side 2    Res =  0.3620E+01
 MRCHDU: Convergence failed at  18  side 2    Res =  0.4336E+01
 MRCHDU: Convergence failed at  19  side 2    Res =  0.5307E+01
 MRCHDU: Convergence failed at  20  side 2    Res =  0.6851E+01
 MRCHDU: Convergence failed at  21  side 2    Res =  0.8273E+01
 MRCHDU: Convergence failed at  22  side 2    Res =  0.1088E+02
 MRCHDU: Convergence failed at  23  side 2    Res =  0.1403E+02
 MRCHDU: Convergence failed at  24  side 2    Res =  0.1889E+02
 MRCHDU: Convergence failed at  25  side 2    Res =  0.2913E+02
 MRCHDU: Convergence failed at  26  side 2    Res =  0.5108E+02
 MRCHDU: Convergence failed at  27  side 2    Res =  0.1098E+03
 MRCHDU: Convergence failed at  28  side 2    Res =  0.2732E+03
 MRCHDU: Convergence failed at  29  side 2    Res =  0.1003E+03
 MRCHDU: Convergence failed at  30  side 2    Res =  0.4791E+02
 MRCHDU: Convergence failed at  31  side 2    Res =  0.3600E+02
 MRCHDU: Convergence failed at  32  side 2    Res =  0.3039E+02
 MRCHDU: Convergence failed at  33  side 2    Res =  0.2673E+02
 MRCHDU: Convergence failed at  34  side 2    Res =  0.2339E+02
 MRCHDU: Convergence failed at  35  side 2    Res =  0.2134E+02
 MRCHDU: Convergence failed at  36  side 2    Res =  0.1988E+02
 MRCHDU: Convergence failed at  37  side 2    Res =  0.1903E+02
 MRCHDU: Convergence failed at  38  side 2    Res =  0.1801E+02
 MRCHDU: Convergence failed at  39  side 2    Res =  0.1736E+02
 MRCHDU: Convergence failed at  40  side 2    Res =  0.1659E+02
 MRCHDU: Convergence failed at  41  side 2    Res =  0.1615E+02
 MRCHDU: Convergence failed at  42  side 2    Res =  0.1560E+02
 MRCHDU: Convergence failed at  43  side 2    Res =  0.1537E+02
 MRCHDU: Convergence failed at  44  side 2    Res =  0.1485E+02
 MRCHDU: Convergence failed at  45  side 2    Res =  0.1455E+02
 MRCHDU: Convergence failed at  46  side 2    Res =  0.1427E+02
 MRCHDU: Convergence failed at  47  side 2    Res =  0.1403E+02
 MRCHDU: Convergence failed at  48  side 2    Res =  0.1377E+02
 MRCHDU: Convergence failed at  49  side 2    Res =  0.1359E+02
 MRCHDU: Convergence failed at  50  side 2    Res =  0.9246E+01
 MRCHDU: Convergence failed at  51  side 2    Res =  0.9381E+01
 MRCHDU: Convergence failed at  52  side 2    Res =  0.9518E+01
 MRCHDU: Convergence failed at  53  side 2    Res =  0.9657E+01
 MRCHDU: Convergence failed at  54  side 2    Res =  0.9804E+01
 MRCHDU: Convergence failed at  55  side 2    Res =  0.1011E+02
 MRCHDU: Convergence failed at  56  side 2    Res =  0.1035E+02
 MRCHDU: Convergence failed at  57  side 2    Res =  0.1081E+02
 MRCHDU: Convergence failed at  58  side 2    Res =  0.1129E+02
 MRCHDU: Convergence failed at  59  side 2    Res =  0.1196E+02
 MRCHDU: Convergence failed at  60  side 2    Res =  0.1266E+02
 MRCHDU: Convergence failed at  61  side 2    Res =  0.1725E+02
 MRCHDU: Convergence failed at  62  side 2    Res =  0.1822E+02
 MRCHDU: Convergence failed at  63  side 2    Res =  0.1942E+02
 MRCHDU: Convergence failed at  64  side 2    Res =  0.1779E+02
 MRCHDU: Convergence failed at  65  side 2    Res =  0.1961E+02
 MRCHDU: Convergence failed at  66  side 2    Res =  0.2233E+02
 MRCHDU: Convergence failed at  67  side 2    Res =  0.2541E+02
 MRCHDU: Convergence failed at  68  side 2    Res =  0.3266E+02
 MRCHDU: Convergence failed at  69  side 2    Res =  0.3778E+02
 MRCHDU: Convergence failed at  70  side 2    Res =  0.2542E+02
 MRCHDU: Convergence failed at  71  side 2    Res =  0.6869E+02
 MRCHDU: Convergence failed at  72  side 2    Res =  0.9578E+02
 MRCHDU: Convergence failed at  73  side 2    Res =  0.1512E+03
 MRCHDU: Convergence failed at  74  side 2    Res =  0.2912E+03
 MRCHDU: Convergence failed at  75  side 2    Res =  0.1037E+04
 MRCHDU: Convergence failed at  76  side 2    Res =  0.1183E+04
 MRCHDU: Convergence failed at  77  side 2    Res =  0.2812E+03
 MRCHDU: Convergence failed at  78  side 2    Res =  0.1941E+03
 MRCHDU: Convergence failed at  79  side 2    Res =  0.1974E+03
 MRCHDU: Convergence failed at  80  side 2    Res =  0.1619E+03
 MRCHDU: Convergence failed at  81  side 2    Res =  0.2272E+03
 MRCHDU: Convergence failed at  82  side 2    Res =  0.1295E+03
 MRCHDU: Convergence failed at  83  side 2    Res =  0.1009E+03
 MRCHDU: Convergence failed at  84  side 2    Res =  0.1485E+02
 MRCHDU: Convergence failed at  85  side 2    Res =  0.1839E+02
 Side 1  free  transition at x/c =  0.9537   72
 Side 2  free  transition at x/c =  0.0400   14

   2   rms: 0.1517E+01   max: -.5357E+01   T at   14  2   RLX: 0.093
       a = -4.000      CL = -1.4111
      Cm =  0.3130     CD =  0.00206   =>   CDf =  0.00196    CDp =  0.00011

 MRCHDU: Convergence failed at  75  side 1    Res =  0.2438E+03
 MRCHDU: Convergence failed at  76  side 1    Res =  0.3457E+01
 MRCHDU: Convergence failed at  77  side 1    Res =  0.6263E+01
 MRCHDU: Convergence failed at  78  side 1    Res =  0.5493E+01
 Side 1  free  transition at x/c =  0.9726   75
 Side 2  free  transition at x/c =  0.6783   60
 idif Ue xi dudx           1  0.38546291      3.22389603E-03   119.56431    
 Uenew xinew           2  3.40080783E-02  2.84433365E-04

   3   rms: 0.9153E+00   max: 0.4480E+01   D at   86  2   RLX: 0.229
       a = -4.000      CL = -1.1750
      Cm =  0.2280     CD =  0.00212   =>   CDf =  0.00763    CDp = -0.00551

 Side 1  free  transition at x/c =  0.9685   74
 Side 2  free  transition at x/c =  0.2823   32

   4   rms: 0.1091E+01   max: 0.2015E+02   C at   32  2   RLX: 0.074
       a = -4.000      CL = -1.1162
      Cm =  0.2098     CD =  0.00335   =>   CDf =  0.00898    CDp = -0.00564

 Side 1  free  transition at x/c =  0.9689   74
 Side 2  free  transition at x/c =  0.2502   30

   5   rms: 0.1046E+01   max: 0.1969E+02   C at   30  2   RLX: 0.076
       a = -4.000      CL = -1.0625
      Cm =  0.1925     CD =  0.00363   =>   CDf =  0.00890    CDp = -0.00527

 Side 1  free  transition at x/c =  0.9693   74
 Side 2  free  transition at x/c =  0.2030   26

   6   rms: 0.1193E+01   max: 0.2389E+02   C at   26  2   RLX: 0.063
       a = -4.000      CL = -1.0215
      Cm =  0.1795     CD =  0.00389   =>   CDf =  0.00892    CDp = -0.00503

 Side 1  free  transition at x/c =  0.9697   74
 Side 2  free  transition at x/c =  0.1670   24

   7   rms: 0.8305E+00   max: 0.1531E+02   C at   24  2   RLX: 0.098
       a = -4.000      CL = -0.9625
      Cm =  0.1608     CD =  0.00428   =>   CDf =  0.00893    CDp = -0.00465

 Side 1  free  transition at x/c =  0.9702   74
 Side 2  free  transition at x/c =  0.1283   21

   8   rms: 0.8816E+00   max: 0.1774E+02   C at   21  2   RLX: 0.085
       a = -4.000      CL = -0.9169
      Cm =  0.1463     CD =  0.00462   =>   CDf =  0.00885    CDp = -0.00423

 Side 1  free  transition at x/c =  0.9707   74
 Side 2  free  transition at x/c =  0.1073   19

   9   rms: 0.5324E+00   max: 0.9132E+01   C at   19  2   RLX: 0.164
       a = -4.000      CL = -0.8377
      Cm =  0.1210     CD =  0.00519   =>   CDf =  0.00875    CDp = -0.00356

 Side 1  free  transition at x/c =  0.9715   74
 Side 2  free  transition at x/c =  0.0904   18

  10   rms: 0.3475E+00   max: 0.3583E+01   C at   18  2   RLX: 0.419
       a = -4.000      CL = -0.6735
      Cm =  0.0693     CD =  0.00663   =>   CDf =  0.00846    CDp = -0.00183

 Side 1  free  transition at x/c =  0.9733   74
 Side 2  free  transition at x/c =  0.0673   16

  11   rms: 0.1905E+00   max: 0.5206E+00   D at   94  2
       a = -4.000      CL = -0.4512
      Cm =  0.0013     CD =  0.00964   =>   CDf =  0.00778    CDp =  0.00186

 Side 1  free  transition at x/c =  0.9766   74
 Side 2  free  transition at x/c =  0.0510   15

  12   rms: 0.2477E-01   max: -.2620E+00   D at   16  2
       a = -4.000      CL = -0.4435
      Cm = -0.0002     CD =  0.01071   =>   CDf =  0.00676    CDp =  0.00395

 Side 1  free  transition at x/c =  0.9767   74
 Side 2  free  transition at x/c =  0.0519   15

  13   rms: 0.2687E-02   max: 0.2852E-01   C at   15  2
       a = -4.000      CL = -0.4430
      Cm = -0.0003     CD =  0.01075   =>   CDf =  0.00679    CDp =  0.00396

 Side 1  free  transition at x/c =  0.9768   74
 Side 2  free  transition at x/c =  0.0515   15

  14   rms: 0.2734E-04   max: -.4657E-03   D at   16  2
       a = -4.000      CL = -0.4430
      Cm = -0.0003     CD =  0.01075   =>   CDf =  0.00679    CDp =  0.00396
 plradd ia,ip,cpol            1           0  1.95116445E-03

 Point added to stored polar  1
 Point written to save file  lwk80080_Re400k.base.pol                        
 Dump file unspecified or not available
 Calculating wake trajectory ...
 Calculating source influence matrix ...

 Solving BL system ...

 Side 1  free  transition at x/c =  0.9768   74
 Side 2  free  transition at x/c =  0.0515   15

   1   rms: 0.1607E+00   max: 0.1459E+01   D at   15  2   RLX: 0.391
       a = -3.500      CL = -0.4181
      Cm = -0.0013     CD =  0.01037   =>   CDf =  0.00696    CDp =  0.00341

 Side 1  free  transition at x/c =  0.9722   75
 Side 2  free  transition at x/c =  0.0665   15

   2   rms: 0.1201E+00   max: -.1033E+01   T at    2  1   RLX: 0.484
       a = -3.500      CL = -0.3973
      Cm = -0.0024     CD =  0.01012   =>   CDf =  0.00679    CDp =  0.00333

 Side 1  free  transition at x/c =  0.9703   75
 Side 2  free  transition at x/c =  0.0827   16

   3   rms: 0.6238E-01   max: -.7508E+00   T at   16  2   RLX: 0.666
       a = -3.500      CL = -0.3809
      Cm = -0.0034     CD =  0.01010   =>   CDf =  0.00676    CDp =  0.00334

 Side 1  free  transition at x/c =  0.9695   75
 Side 2  free  transition at x/c =  0.1082   18

   4   rms: 0.1196E+00   max: -.2642E+01   C at   18  2   RLX: 0.189
       a = -3.500      CL = -0.3808
      Cm = -0.0035     CD =  0.00971   =>   CDf =  0.00662    CDp =  0.00309

 Side 1  free  transition at x/c =  0.9693   75
 Side 2  free  transition at x/c =  0.1101   18

   5   rms: 0.3219E-01   max: -.4161E+00   T at   18  2
       a = -3.500      CL = -0.3744
      Cm = -0.0038     CD =  0.00968   =>   CDf =  0.00665    CDp =  0.00303

 Side 1  free  transition at x/c =  0.9689   75
 Side 2  free  transition at x/c =  0.1613   22

   6   rms: 0.1223E+00   max: -.2526E+01   C at   22  2   RLX: 0.198
       a = -3.500      CL = -0.3809
      Cm = -0.0043     CD =  0.00936   =>   CDf =  0.00644    CDp =  0.00292

 Side 1  free  transition at x/c =  0.9688   75
 Side 2  free  transition at x/c =  0.1645   22

   7   rms: 0.4201E-01   max: -.6318E+00   C at   22  2   RLX: 0.791
       a = -3.500      CL = -0.3775
      Cm = -0.0037     CD =  0.00930   =>   CDf =  0.00643    CDp =  0.00287

 Side 1  free  transition at x/c =  0.9687   75
 Side 2  free  transition at x/c =  0.2029   25

   8   rms: 0.2446E-01   max: -.3646E+00   C at   25  2
       a = -3.500      CL = -0.3778
      Cm = -0.0035     CD =  0.00912   =>   CDf =  0.00619    CDp =  0.00293

 Side 1  free  transition at x/c =  0.9685   75
 Side 2  free  transition at x/c =  0.1693   23

   9   rms: 0.6141E-02   max: -.1028E+00   C at   23  2
       a = -3.500      CL = -0.3766
      Cm = -0.0036     CD =  0.00931   =>   CDf =  0.00630    CDp =  0.00301

 Side 1  free  transition at x/c =  0.9687   75
 Side 2  free  transition at x/c =  0.1707   23

  10   rms: 0.4058E-03   max: 0.8401E-02   C at   23  2
       a = -3.500      CL = -0.3766
      Cm = -0.0036     CD =  0.00931   =>   CDf =  0.00629    CDp =  0.00302

 Side 1  free  transition at x/c =  0.9687   75
 Side 2  free  transition at x/c =  0.1705   23

  11   rms: 0.1906E-05   max: 0.8206E-05   D at   23  2
       a = -3.500      CL = -0.3766
      Cm = -0.0036     CD =  0.00931   =>   CDf =  0.00629    CDp =  0.00302
 plradd ia,ip,cpol            2           0  1.95116445E-03

 Point added to stored polar  1
 Point written to save file  lwk80080_Re400k.base.pol                        
 Dump file unspecified or not available
 Calculating wake trajectory ...
 Calculating source influence matrix ...

 Solving BL system ...

 Side 1  free  transition at x/c =  0.9687   75
 Side 2  free  transition at x/c =  0.1705   23

   1   rms: 0.6136E+00   max: -.1261E+02   C at   23  2   RLX: 0.040
       a = -3.000      CL = -0.3741
      Cm = -0.0038     CD =  0.00921   =>   CDf =  0.00629    CDp =  0.00292

 Side 1  free  transition at x/c =  0.9684   75
 Side 2  free  transition at x/c =  0.1809   24

   2   rms: 0.5409E+00   max: -.1033E+02   C at   24  2   RLX: 0.048
       a = -3.000      CL = -0.3707
      Cm = -0.0040     CD =  0.00912   =>   CDf =  0.00626    CDp =  0.00286

 Side 1  free  transition at x/c =  0.9681   74
 Side 2  free  transition at x/c =  0.1928   24

   3   rms: 0.4641E+00   max: -.9641E+01   C at   24  2   RLX: 0.052
       a = -3.000      CL = -0.3679
      Cm = -0.0039     CD =  0.00907   =>   CDf =  0.00620    CDp =  0.00287

 Side 1  free  transition at x/c =  0.9673   74
 Side 2  free  transition at x/c =  0.2047   25

   4   rms: 0.5070E+00   max: -.1048E+02   C at   25  2   RLX: 0.048
       a = -3.000      CL = -0.3658
      Cm = -0.0040     CD =  0.00899   =>   CDf =  0.00615    CDp =  0.00284

 Side 1  free  transition at x/c =  0.9666   74
 Side 2  free  transition at x/c =  0.2151   26

   5   rms: 0.5142E+00   max: -.1057E+02   C at   26  2   RLX: 0.047
       a = -3.000      CL = -0.3637
      Cm = -0.0040     CD =  0.00891   =>   CDf =  0.00610    CDp =  0.00281

 Side 1  free  transition at x/c =  0.9660   74
 Side 2  free  transition at x/c =  0.2251   27

   6   rms: 0.4541E+00   max: -.9119E+01   C at   27  2   RLX: 0.055
       a = -3.000      CL = -0.3613
      Cm = -0.0040     CD =  0.00883   =>   CDf =  0.00606    CDp =  0.00277

 Side 1  free  transition at x/c =  0.9653   74
 Side 2  free  transition at x/c =  0.2367   28

   7   rms: 0.4550E+00   max: -.8985E+01   C at   28  2   RLX: 0.056
       a = -3.000      CL = -0.3590
      Cm = -0.0040     CD =  0.00875   =>   CDf =  0.00602    CDp =  0.00273

 Side 1  free  transition at x/c =  0.9647   74
 Side 2  free  transition at x/c =  0.2489   28

   8   rms: 0.5618E+00   max: -.1118E+02   C at   28  2   RLX: 0.045
       a = -3.000      CL = -0.3572
      Cm = -0.0041     CD =  0.00870   =>   CDf =  0.00596    CDp =  0.00274

 Side 1  free  transition at x/c =  0.9642   74
 Side 2  free  transition at x/c =  0.2590   29

   9   rms: 0.5445E+00   max: -.1090E+02   C at   29  2   RLX: 0.046
       a = -3.000      CL = -0.3555
      Cm = -0.0041     CD =  0.00863   =>   CDf =  0.00592    CDp =  0.00271

 Side 1  free  transition at x/c =  0.9638   74
 Side 2  free  transition at x/c =  0.2699   30

  10   rms: 0.5158E+00   max: -.1031E+02   C at   30  2   RLX: 0.048
       a = -3.000      CL = -0.3539
      Cm = -0.0041     CD =  0.00855   =>   CDf =  0.00587    CDp =  0.00268

 Side 1  free  transition at x/c =  0.9633   74
 Side 2  free  transition at x/c =  0.2823   31

  11   rms: 0.4890E+00   max: -.9702E+01   C at   31  2   RLX: 0.052
       a = -3.000      CL = -0.3523
      Cm = -0.0041     CD =  0.00847   =>   CDf =  0.00582    CDp =  0.00266

 Side 1  free  transition at x/c =  0.9629   74
 Side 2  free  transition at x/c =  0.2967   32

  12   rms: 0.5066E+00   max: -.9965E+01   C at   32  2   RLX: 0.050
       a = -3.000      CL = -0.3510
      Cm = -0.0042     CD =  0.00839   =>   CDf =  0.00576    CDp =  0.00263

 Side 1  free  transition at x/c =  0.9625   74
 Side 2  free  transition at x/c =  0.3111   33

  13   rms: 0.4677E+00   max: -.9128E+01   C at   33  2   RLX: 0.055
       a = -3.000      CL = -0.3495
      Cm = -0.0042     CD =  0.00831   =>   CDf =  0.00570    CDp =  0.00261

 Side 1  free  transition at x/c =  0.9621   74
 Side 2  free  transition at x/c =  0.3274   34

  14   rms: 0.4306E+00   max: -.8298E+01   C at   34  2   RLX: 0.060
       a = -3.000      CL = -0.3481
      Cm = -0.0042     CD =  0.00822   =>   CDf =  0.00564    CDp =  0.00258

 Side 1  free  transition at x/c =  0.9617   74
 Side 2  free  transition at x/c =  0.3451   35

  15   rms: 0.3559E+00   max: -.6753E+01   C at   35  2   RLX: 0.074
       a = -3.000      CL = -0.3463
      Cm = -0.0043     CD =  0.00813   =>   CDf =  0.00557    CDp =  0.00256

 Side 1  free  transition at x/c =  0.9612   74
 Side 2  free  transition at x/c =  0.3696   37

  16   rms: 0.3631E+00   max: -.6848E+01   C at   37  2   RLX: 0.073
       a = -3.000      CL = -0.3453
      Cm = -0.0042     CD =  0.00799   =>   CDf =  0.00547    CDp =  0.00252

 Side 1  free  transition at x/c =  0.9608   74
 Side 2  free  transition at x/c =  0.3898   39

  17   rms: 0.3422E+00   max: -.6487E+01   C at   39  2   RLX: 0.077
       a = -3.000      CL = -0.3442
      Cm = -0.0042     CD =  0.00786   =>   CDf =  0.00539    CDp =  0.00247

 Side 1  free  transition at x/c =  0.9604   74
 Side 2  free  transition at x/c =  0.4042   40

  18   rms: 0.3005E+00   max: -.5662E+01   C at   40  2   RLX: 0.088
       a = -3.000      CL = -0.3425
      Cm = -0.0042     CD =  0.00778   =>   CDf =  0.00534    CDp =  0.00244

 Side 1  free  transition at x/c =  0.9599   74
 Side 2  free  transition at x/c =  0.4188   41

  19   rms: 0.2840E+00   max: -.5324E+01   C at   41  2   RLX: 0.094
       a = -3.000      CL = -0.3410
      Cm = -0.0042     CD =  0.00770   =>   CDf =  0.00528    CDp =  0.00242

 Side 1  free  transition at x/c =  0.9595   74
 Side 2  free  transition at x/c =  0.4347   42

  20   rms: 0.2766E+00   max: -.5137E+01   C at   42  2   RLX: 0.097
       a = -3.000      CL = -0.3397
      Cm = -0.0042     CD =  0.00761   =>   CDf =  0.00521    CDp =  0.00240

 Side 1  free  transition at x/c =  0.9591   74
 Side 2  free  transition at x/c =  0.4512   43

  21   rms: 0.2395E+00   max: -.4396E+01   C at   43  2   RLX: 0.114
       a = -3.000      CL = -0.3383
      Cm = -0.0042     CD =  0.00752   =>   CDf =  0.00514    CDp =  0.00238

 Side 1  free  transition at x/c =  0.9587   74
 Side 2  free  transition at x/c =  0.4708   44

  22   rms: 0.2136E+00   max: -.3815E+01   C at   44  2   RLX: 0.131
       a = -3.000      CL = -0.3369
      Cm = -0.0042     CD =  0.00742   =>   CDf =  0.00506    CDp =  0.00236

 Side 1  free  transition at x/c =  0.9583   74
 Side 2  free  transition at x/c =  0.4933   46

  23   rms: 0.1864E+00   max: -.3362E+01   C at   46  2   RLX: 0.149
       a = -3.000      CL = -0.3359
      Cm = -0.0041     CD =  0.00730   =>   CDf =  0.00497    CDp =  0.00233

 Side 1  free  transition at x/c =  0.9579   74
 Side 2  free  transition at x/c =  0.5123   47

  24   rms: 0.1276E+00   max: -.2255E+01   C at   47  2   RLX: 0.222
       a = -3.000      CL = -0.3341
      Cm = -0.0041     CD =  0.00721   =>   CDf =  0.00490    CDp =  0.00231

 Side 1  free  transition at x/c =  0.9575   74
 Side 2  free  transition at x/c =  0.5413   50

  25   rms: 0.1070E+00   max: -.1929E+01   C at   50  2   RLX: 0.259
       a = -3.000      CL = -0.3334
      Cm = -0.0038     CD =  0.00705   =>   CDf =  0.00477    CDp =  0.00227

 Side 1  free  transition at x/c =  0.9570   74
 Side 2  free  transition at x/c =  0.5562   51

  26   rms: 0.7526E-01   max: -.1352E+01   C at   51  2   RLX: 0.370
       a = -3.000      CL = -0.3317
      Cm = -0.0038     CD =  0.00698   =>   CDf =  0.00471    CDp =  0.00227

 Side 1  free  transition at x/c =  0.9566   74
 Side 2  free  transition at x/c =  0.5737   52

  27   rms: 0.4653E-01   max: -.8281E+00   C at   52  2   RLX: 0.604
       a = -3.000      CL = -0.3301
      Cm = -0.0037     CD =  0.00690   =>   CDf =  0.00463    CDp =  0.00227

 Side 1  free  transition at x/c =  0.9561   74
 Side 2  free  transition at x/c =  0.5940   53

  28   rms: 0.1477E-01   max: -.2578E+00   C at   53  2
       a = -3.000      CL = -0.3289
      Cm = -0.0037     CD =  0.00687   =>   CDf =  0.00455    CDp =  0.00232

 Side 1  free  transition at x/c =  0.9559   74
 Side 2  free  transition at x/c =  0.6092   54

  29   rms: 0.2365E-02   max: 0.3749E-01   C at   54  2
       a = -3.000      CL = -0.3291
      Cm = -0.0036     CD =  0.00686   =>   CDf =  0.00449    CDp =  0.00237

 Side 1  free  transition at x/c =  0.9559   74
 Side 2  free  transition at x/c =  0.6070   54

  30   rms: 0.2680E-03   max: -.4589E-02   C at   54  2
       a = -3.000      CL = -0.3291
      Cm = -0.0036     CD =  0.00686   =>   CDf =  0.00450    CDp =  0.00236

 Side 1  free  transition at x/c =  0.9559   74
 Side 2  free  transition at x/c =  0.6072   54

  31   rms: 0.1666E-05   max: 0.2229E-04   C at   54  2
       a = -3.000      CL = -0.3291
      Cm = -0.0036     CD =  0.00686   =>   CDf =  0.00450    CDp =  0.00236
 plradd ia,ip,cpol            3           0  1.95116445E-03

 Point added to stored polar  1
 Point written to save file  lwk80080_Re400k.base.pol                        
 Dump file unspecified or not available
 Calculating wake trajectory ...
 Calculating source influence matrix ...

 Solving BL system ...

 Side 1  free  transition at x/c =  0.9559   74
 Side 2  free  transition at x/c =  0.6072   54

   1   rms: 0.4692E+00   max: -.8119E+01   C at   54  2   RLX: 0.062
       a = -2.500      CL = -0.3257
      Cm = -0.0036     CD =  0.00678   =>   CDf =  0.00450    CDp =  0.00229

 Side 1  free  transition at x/c =  0.9554   74
 Side 2  free  transition at x/c =  0.6327   56

   2   rms: 0.2516E+00   max: -.4041E+01   C at   56  2   RLX: 0.124
       a = -2.500      CL = -0.3187
      Cm = -0.0036     CD =  0.00670   =>   CDf =  0.00440    CDp =  0.00231

 Side 1  free  transition at x/c =  0.9545   73
 Side 2  free  transition at x/c =  0.6763   59

   3   rms: 0.9145E-01   max: 0.4625E+00   C at   61  2
       a = -2.500      CL = -0.2806
      Cm = -0.0019     CD =  0.00677   =>   CDf =  0.00441    CDp =  0.00236

 MRCHDU: Convergence failed at  63  side 2    Res =  0.1017E+02
 MRCHDU: Convergence failed at  64  side 2    Res =  0.1177E+01
 MRCHDU: Convergence failed at  65  side 2    Res =  0.1491E+01
 MRCHDU: Convergence failed at  66  side 2    Res =  0.1997E+01
 MRCHDU: Convergence failed at  67  side 2    Res =  0.2472E+01
 MRCHDU: Convergence failed at  68  side 2    Res =  0.2689E+01
 MRCHDU: Convergence failed at  69  side 2    Res =  0.4210E+01
 MRCHDU: Convergence failed at  70  side 2    Res =  0.4347E+01
 MRCHDU: Convergence failed at  71  side 2    Res =  0.4345E+01
 MRCHDU: Convergence failed at  72  side 2    Res =  0.4274E+01
 MRCHDU: Convergence failed at  73  side 2    Res =  0.4178E+01
 MRCHDU: Convergence failed at  74  side 2    Res =  0.4067E+01
 MRCHDU: Convergence failed at  75  side 2    Res =  0.3948E+01
 MRCHDU: Convergence failed at  76  side 2    Res =  0.3847E+01
 MRCHDU: Convergence failed at  77  side 2    Res =  0.3766E+01
 MRCHDU: Convergence failed at  78  side 2    Res =  0.3678E+01
 MRCHDU: Convergence failed at  79  side 2    Res =  0.3623E+01
 MRCHDU: Convergence failed at  80  side 2    Res =  0.3540E+01
 MRCHDU: Convergence failed at  81  side 2    Res =  0.3564E+01
 MRCHDU: Convergence failed at  82  side 2    Res =  0.3724E+01
 MRCHDU: Convergence failed at  83  side 2    Res =  0.7485E+01
 Side 1  free  transition at x/c =  0.9387   73
 Side 2  free  transition at x/c =  0.8098   68

   4   rms: 0.2178E+00   max: 0.9973E+00   D at   83  2   RLX: 0.508
       a = -2.500      CL = -0.2624
      Cm =  0.0072     CD =  0.00471   =>   CDf =  0.00368    CDp =  0.00103

 Side 1  free  transition at x/c =  0.9568   75
 Side 2  free  transition at x/c =  0.8052   68

   5   rms: 0.1175E+00   max: 0.7512E+00   D at   83  2
       a = -2.500      CL = -0.2771
      Cm = -0.0021     CD =  0.00633   =>   CDf =  0.00422    CDp =  0.00211

 Side 1  free  transition at x/c =  0.9464   74
 Side 2  free  transition at x/c =  0.7492   64

   6   rms: 0.4363E-01   max: 0.4573E+00   D at   67  2
       a = -2.500      CL = -0.2759
      Cm = -0.0026     CD =  0.00658   =>   CDf =  0.00423    CDp =  0.00235

 Side 1  free  transition at x/c =  0.9429   74
 Side 2  free  transition at x/c =  0.7509   64

   7   rms: 0.8878E-02   max: -.1122E+00   D at   67  2
       a = -2.500      CL = -0.2727
      Cm = -0.0034     CD =  0.00659   =>   CDf =  0.00416    CDp =  0.00243

 Side 1  free  transition at x/c =  0.9441   74
 Side 2  free  transition at x/c =  0.7498   64

   8   rms: 0.7632E-03   max: -.1552E-01   D at   67  2
       a = -2.500      CL = -0.2728
      Cm = -0.0033     CD =  0.00660   =>   CDf =  0.00418    CDp =  0.00242

 Side 1  free  transition at x/c =  0.9441   74
 Side 2  free  transition at x/c =  0.7496   64

   9   rms: 0.8719E-05   max: -.1892E-03   D at   67  2
       a = -2.500      CL = -0.2728
      Cm = -0.0033     CD =  0.00660   =>   CDf =  0.00418    CDp =  0.00241
 plradd ia,ip,cpol            4           0  1.95116445E-03

 Point added to stored polar  1
 Point written to save file  lwk80080_Re400k.base.pol                        
 Dump file unspecified or not available
 Calculating wake trajectory ...
 Calculating source influence matrix ...

 Solving BL system ...

 Side 1  free  transition at x/c =  0.9441   74
 Side 2  free  transition at x/c =  0.7496   64

   1   rms: 0.1323E+00   max: 0.7491E+00   D at   65  2   RLX: 0.724
       a = -2.000      CL = -0.2269
      Cm = -0.0041     CD =  0.00656   =>   CDf =  0.00418    CDp =  0.00238

 Side 1  free  transition at x/c =  0.9384   73
 Side 2  free  transition at x/c =  0.7741   65

   2   rms: 0.4652E-01   max: -.4521E+00   T at   65  2
       a = -2.000      CL = -0.2252
      Cm = -0.0014     CD =  0.00699   =>   CDf =  0.00436    CDp =  0.00263

 MRCHDU: Convergence failed at  68  side 2    Res =  0.3976E+01
 MRCHDU: Convergence failed at  69  side 2    Res =  0.2425E+01
 MRCHDU: Convergence failed at  70  side 2    Res =  0.4071E+01
 MRCHDU: Convergence failed at  71  side 2    Res =  0.6600E+01
 MRCHDU: Convergence failed at  72  side 2    Res =  0.1079E+02
 MRCHDU: Convergence failed at  73  side 2    Res =  0.1491E+02
 MRCHDU: Convergence failed at  74  side 2    Res =  0.1780E+02
 MRCHDU: Convergence failed at  75  side 2    Res =  0.1837E+02
 MRCHDU: Convergence failed at  76  side 2    Res =  0.1744E+02
 MRCHDU: Convergence failed at  77  side 2    Res =  0.1601E+02
 MRCHDU: Convergence failed at  78  side 2    Res =  0.1438E+02
 MRCHDU: Convergence failed at  79  side 2    Res =  0.1280E+02
 MRCHDU: Convergence failed at  80  side 2    Res =  0.1150E+02
 MRCHDU: Convergence failed at  81  side 2    Res =  0.9940E+01
 MRCHDU: Convergence failed at  82  side 2    Res =  0.9805E+01
 MRCHDU: Convergence failed at  83  side 2    Res =  0.4965E+01
 Side 1  free  transition at x/c =  0.9286   73
 Side 2  free  transition at x/c =  0.8088   68

   3   rms: 0.2146E+00   max: 0.8227E+00   T at   75  2   RLX: 0.789
       a = -2.000      CL = -0.1419
      Cm = -0.0163     CD =  0.00514   =>   CDf =  0.00384    CDp =  0.00129

 Side 1  free  transition at x/c =  0.9449   75
 Side 2  free  transition at x/c =  0.8023   66
 idif Ue xi dudx           1  0.48285785      1.92379951E-03   250.99178    
 Uenew xinew           2  6.48079142E-02  2.58207321E-04

   4   rms: 0.1825E+00   max: 0.2607E+01   D at    2  1   RLX: 0.350
       a = -2.000      CL = -0.1701
      Cm = -0.0110     CD =  0.00666   =>   CDf =  0.00428    CDp =  0.00238

 Side 1  free  transition at x/c =  0.9410   74
 Side 2  free  transition at x/c =  0.8011   67

   5   rms: 0.5771E-01   max: 0.3634E+00   D at    2  2
       a = -2.000      CL = -0.2133
      Cm = -0.0036     CD =  0.00677   =>   CDf =  0.00429    CDp =  0.00248

 Side 1  free  transition at x/c =  0.9358   73
 Side 2  free  transition at x/c =  0.7965   67

   6   rms: 0.1205E-01   max: 0.1060E+00   D at   74  1
       a = -2.000      CL = -0.2156
      Cm = -0.0032     CD =  0.00668   =>   CDf =  0.00420    CDp =  0.00248

 Side 1  free  transition at x/c =  0.9324   73
 Side 2  free  transition at x/c =  0.7966   67

   7   rms: 0.1866E-02   max: -.1638E-01   C at   73  1
       a = -2.000      CL = -0.2150
      Cm = -0.0034     CD =  0.00668   =>   CDf =  0.00419    CDp =  0.00249

 Side 1  free  transition at x/c =  0.9329   73
 Side 2  free  transition at x/c =  0.7967   67

   8   rms: 0.4479E-04   max: -.4582E-03   D at   79  1
       a = -2.000      CL = -0.2150
      Cm = -0.0034     CD =  0.00668   =>   CDf =  0.00419    CDp =  0.00249
 plradd ia,ip,cpol            5           0  4.19706153E-03

 Point added to stored polar  1
 Point written to save file  lwk80080_Re400k.base.pol                        
 Dump file unspecified or not available
 Calculating wake trajectory ...
 Calculating source influence matrix ...

 Solving BL system ...

 Side 1  free  transition at x/c =  0.9329   73
 Side 2  free  transition at x/c =  0.7967   67

   1   rms: 0.9896E-01   max: -.4734E+00   T at   67  2
       a = -1.500      CL = -0.1585
      Cm = -0.0031     CD =  0.00680   =>   CDf =  0.00430    CDp =  0.00250

 Side 1  free  transition at x/c =  0.9230   73
 Side 2  free  transition at x/c =  0.8161   67

   2   rms: 0.2484E-01   max: -.1889E+00   D at    2  1
       a = -1.500      CL = -0.1623
      Cm = -0.0025     CD =  0.00681   =>   CDf =  0.00435    CDp =  0.00246

 Side 1  free  transition at x/c =  0.9213   73
 Side 2  free  transition at x/c =  0.8280   68

   3   rms: 0.2941E-01   max: 0.3892E+00   C at   68  2
       a = -1.500      CL = -0.1610
      Cm = -0.0027     CD =  0.00671   =>   CDf =  0.00419    CDp =  0.00252

 Side 1  free  transition at x/c =  0.9218   73
 Side 2  free  transition at x/c =  0.8250   68

   4   rms: 0.7445E-02   max: -.6849E-01   D at   71  2
       a = -1.500      CL = -0.1585
      Cm = -0.0032     CD =  0.00676   =>   CDf =  0.00424    CDp =  0.00253

 Side 1  free  transition at x/c =  0.9223   73
 Side 2  free  transition at x/c =  0.8228   68

   5   rms: 0.4150E-03   max: -.5911E-02   D at   71  2
       a = -1.500      CL = -0.1584
      Cm = -0.0032     CD =  0.00677   =>   CDf =  0.00426    CDp =  0.00251

 Side 1  free  transition at x/c =  0.9223   73
 Side 2  free  transition at x/c =  0.8227   68

   6   rms: 0.2014E-05   max: -.2525E-04   D at   71  2
       a = -1.500      CL = -0.1584
      Cm = -0.0032     CD =  0.00677   =>   CDf =  0.00426    CDp =  0.00251
 plradd ia,ip,cpol            6           0  1.31321102E-02

 Point added to stored polar  1
 Point written to save file  lwk80080_Re400k.base.pol                        
 Dump file unspecified or not available
 Calculating wake trajectory ...
 Calculating source influence matrix ...

 Solving BL system ...

 Side 1  free  transition at x/c =  0.9223   73
 Side 2  free  transition at x/c =  0.8227   68

   1   rms: 0.9209E-01   max: -.4465E+00   T at   68  2
       a = -1.000      CL = -0.1066
      Cm = -0.0019     CD =  0.00687   =>   CDf =  0.00426    CDp =  0.00261

 Side 1  free  transition at x/c =  0.9106   72
 Side 2  free  transition at x/c =  0.8527   70

   2   rms: 0.2417E-01   max: 0.3563E+00   D at   70  2
       a = -1.000      CL = -0.1051
      Cm = -0.0021     CD =  0.00686   =>   CDf =  0.00423    CDp =  0.00263

 Side 1  free  transition at x/c =  0.9121   72
 Side 2  free  transition at x/c =  0.8529   70

   3   rms: 0.3112E-02   max: 0.3749E-01   D at   71  2
       a = -1.000      CL = -0.1048
      Cm = -0.0022     CD =  0.00690   =>   CDf =  0.00424    CDp =  0.00266

 Side 1  free  transition at x/c =  0.9120   72
 Side 2  free  transition at x/c =  0.8522   70

   4   rms: 0.5953E-04   max: 0.4920E-03   D at   71  2
       a = -1.000      CL = -0.1047
      Cm = -0.0022     CD =  0.00690   =>   CDf =  0.00425    CDp =  0.00265
 plradd ia,ip,cpol            7           0  2.16041505E-02

 Point added to stored polar  1
 Point written to save file  lwk80080_Re400k.base.pol                        
 Dump file unspecified or not available
 Calculating wake trajectory ...
 Calculating source influence matrix ...

 Solving BL system ...

 Side 1  free  transition at x/c =  0.9120   72
 Side 2  free  transition at x/c =  0.8521   70

   1   rms: 0.8779E-01   max: -.4936E+00   T at   70  2
       a = -0.500      CL = -0.0610
      Cm =  0.0009     CD =  0.00701   =>   CDf =  0.00425    CDp =  0.00276

 Side 1  free  transition at x/c =  0.8979   71
 Side 2  free  transition at x/c =  0.8700   71

   2   rms: 0.2331E-01   max: -.1979E+00   D at   73  1
       a = -0.500      CL = -0.0531
      Cm = -0.0009     CD =  0.00699   =>   CDf =  0.00433    CDp =  0.00266

 Side 1  free  transition at x/c =  0.9019   73
 Side 2  free  transition at x/c =  0.8749   71

   3   rms: 0.7960E-02   max: 0.9489E-01   D at   71  2
       a = -0.500      CL = -0.0531
      Cm = -0.0009     CD =  0.00697   =>   CDf =  0.00426    CDp =  0.00271

 Side 1  free  transition at x/c =  0.9011   73
 Side 2  free  transition at x/c =  0.8737   71

   4   rms: 0.9197E-03   max: 0.6107E-02   D at   73  1
       a = -0.500      CL = -0.0530
      Cm = -0.0009     CD =  0.00697   =>   CDf =  0.00425    CDp =  0.00272

 Side 1  free  transition at x/c =  0.9011   73
 Side 2  free  transition at x/c =  0.8736   71

   5   rms: 0.8437E-05   max: -.6021E-04   D at   71  2
       a = -0.500      CL = -0.0530
      Cm = -0.0009     CD =  0.00697   =>   CDf =  0.00425    CDp =  0.00272
 plradd ia,ip,cpol            8           0  4.47326675E-02

 Point added to stored polar  1
 Point written to save file  lwk80080_Re400k.base.pol                        
 Dump file unspecified or not available
 Calculating wake trajectory ...
 Calculating source influence matrix ...

 Solving BL system ...

 Side 1  free  transition at x/c =  0.9011   73
 Side 2  free  transition at x/c =  0.8736   71

   1   rms: 0.9381E-01   max: -.4407E+00   T at   71  2
       a =  0.000      CL =  0.0090
      Cm = -0.0018     CD =  0.00697   =>   CDf =  0.00425    CDp =  0.00272

 Side 1  free  transition at x/c =  0.8913   72
 Side 2  free  transition at x/c =  0.8824   71

   2   rms: 0.5670E-01   max: -.4396E+00   D at   73  2
       a =  0.000      CL = -0.0082
      Cm =  0.0016     CD =  0.00720   =>   CDf =  0.00425    CDp =  0.00295

 MRCHDU: Convergence failed at  73  side 2    Res =  0.1026E+02
 MRCHDU: Convergence failed at  74  side 2    Res =  0.2867E+01
 MRCHDU: Convergence failed at  75  side 2    Res =  0.1567E+01
 MRCHDU: Convergence failed at  76  side 2    Res =  0.2190E+01
 MRCHDU: Convergence failed at  77  side 2    Res =  0.2800E+01
 MRCHDU: Convergence failed at  78  side 2    Res =  0.3460E+01
 MRCHDU: Convergence failed at  79  side 2    Res =  0.4058E+01
 MRCHDU: Convergence failed at  80  side 2    Res =  0.4891E+01
 MRCHDU: Convergence failed at  81  side 2    Res =  0.4293E+01
 Side 1  free  transition at x/c =  0.8873   72
 Side 2  free  transition at x/c =  0.8976   72

   3   rms: 0.1862E+00   max: 0.1391E+01   C at   72  2
       a =  0.000      CL =  0.1075
      Cm = -0.0256     CD =  0.00588   =>   CDf =  0.00406    CDp =  0.00182

 Side 1  free  transition at x/c =  0.8965   72
 Side 2  free  transition at x/c =  0.8847   71

   4   rms: 0.1080E+00   max: -.6304E+00   D at   76  2   RLX: 0.793
       a =  0.000      CL =  0.0224
      Cm = -0.0055     CD =  0.00699   =>   CDf =  0.00421    CDp =  0.00279

 Side 1  free  transition at x/c =  0.8887   72
 Side 2  free  transition at x/c =  0.8939   72

   5   rms: 0.3247E-01   max: -.3226E+00   D at   76  2
       a =  0.000      CL = -0.0005
      Cm = -0.0000     CD =  0.00694   =>   CDf =  0.00419    CDp =  0.00275

 Side 1  free  transition at x/c =  0.8890   72
 Side 2  free  transition at x/c =  0.8909   72

   6   rms: 0.7471E-02   max: -.1001E+00   D at   76  2
       a =  0.000      CL = -0.0001
      Cm =  0.0000     CD =  0.00699   =>   CDf =  0.00422    CDp =  0.00277

 Side 1  free  transition at x/c =  0.8890   72
 Side 2  free  transition at x/c =  0.8891   72

   7   rms: 0.6173E-03   max: -.8546E-02   D at   76  2
       a =  0.000      CL = -0.0000
      Cm =  0.0000     CD =  0.00699   =>   CDf =  0.00424    CDp =  0.00275

 Side 1  free  transition at x/c =  0.8890   72
 Side 2  free  transition at x/c =  0.8891   72

   8   rms: 0.2748E-05   max: -.3718E-04   D at   76  2
       a =  0.000      CL = -0.0000
      Cm =  0.0000     CD =  0.00699   =>   CDf =  0.00424    CDp =  0.00275
 plradd ia,ip,cpol            9           0  5.76092266E-02

 Point added to stored polar  1
 Point written to save file  lwk80080_Re400k.base.pol                        
 Dump file unspecified or not available
 Calculating wake trajectory ...
 Calculating source influence matrix ...

 Solving BL system ...

 Side 1  free  transition at x/c =  0.8890   72
 Side 2  free  transition at x/c =  0.8891   72

   1   rms: 0.8792E-01   max: -.3074E+00   T at   72  2
       a =  0.500      CL =  0.0595
      Cm = -0.0004     CD =  0.00698   =>   CDf =  0.00425    CDp =  0.00273

 Side 1  free  transition at x/c =  0.8724   72
 Side 2  free  transition at x/c =  0.8964   71
 idif Ue xi dudx           1  0.34795234      1.67798996E-03   207.36258    
 Uenew xinew           2  2.57083285E-03  1.23977661E-05

   2   rms: 0.1754E+00   max: -.2996E+01   D at    2  1   RLX: 0.167
       a =  0.500      CL =  0.0585
      Cm = -0.0007     CD =  0.00756   =>   CDf =  0.00430    CDp =  0.00326

 Side 1  free  transition at x/c =  0.8726   71
 Side 2  free  transition at x/c =  0.8975   72

   3   rms: 0.5113E-01   max: -.6425E+00   T at    2  2   RLX: 0.778
       a =  0.500      CL =  0.0508
      Cm =  0.0012     CD =  0.00714   =>   CDf =  0.00426    CDp =  0.00288

 Side 1  free  transition at x/c =  0.8734   71
 Side 2  free  transition at x/c =  0.9023   73

   4   rms: 0.7276E-02   max: 0.7007E-01   D at   73  2
       a =  0.500      CL =  0.0528
      Cm =  0.0009     CD =  0.00697   =>   CDf =  0.00425    CDp =  0.00272

 Side 1  free  transition at x/c =  0.8736   71
 Side 2  free  transition at x/c =  0.9012   73

   5   rms: 0.6006E-03   max: 0.6289E-02   D at   73  2
       a =  0.500      CL =  0.0529
      Cm =  0.0009     CD =  0.00697   =>   CDf =  0.00425    CDp =  0.00272

 Side 1  free  transition at x/c =  0.8736   71
 Side 2  free  transition at x/c =  0.9011   73

   6   rms: 0.5910E-05   max: -.4288E-04   D at   81  2
       a =  0.500      CL =  0.0529
      Cm =  0.0009     CD =  0.00697   =>   CDf =  0.00425    CDp =  0.00272
 plradd ia,ip,cpol           10           0  4.47322279E-02

 Point added to stored polar  1
 Point written to save file  lwk80080_Re400k.base.pol                        
 Dump file unspecified or not available
 Calculating wake trajectory ...
 Calculating source influence matrix ...

 Solving BL system ...

 Side 1  free  transition at x/c =  0.8736   71
 Side 2  free  transition at x/c =  0.9011   73

   1   rms: 0.9605E-01   max: -.2514E+00   T at   73  2
       a =  1.000      CL =  0.1151
      Cm =  0.0000     CD =  0.00693   =>   CDf =  0.00425    CDp =  0.00268

 Side 1  free  transition at x/c =  0.8490   70
 Side 2  free  transition at x/c =  0.9084   72

   2   rms: 0.4061E-01   max: -.3946E+00   D at   71  1
       a =  1.000      CL =  0.1045
      Cm =  0.0023     CD =  0.00689   =>   CDf =  0.00423    CDp =  0.00266

 Side 1  free  transition at x/c =  0.8507   70
 Side 2  free  transition at x/c =  0.9124   72

   3   rms: 0.3599E-02   max: -.5591E-01   D at   73  1
       a =  1.000      CL =  0.1042
      Cm =  0.0024     CD =  0.00688   =>   CDf =  0.00425    CDp =  0.00263

 Side 1  free  transition at x/c =  0.8500   70
 Side 2  free  transition at x/c =  0.9120   72

   4   rms: 0.1392E-03   max: -.2813E-02   D at   73  1
       a =  1.000      CL =  0.1042
      Cm =  0.0024     CD =  0.00688   =>   CDf =  0.00426    CDp =  0.00263

 Side 1  free  transition at x/c =  0.8500   70
 Side 2  free  transition at x/c =  0.9120   72

   5   rms: 0.9775E-06   max: 0.6530E-05   D at   70  1
       a =  1.000      CL =  0.1042
      Cm =  0.0024     CD =  0.00688   =>   CDf =  0.00426    CDp =  0.00263
 plradd ia,ip,cpol           11           0  2.16038469E-02

 Point added to stored polar  1
 Point written to save file  lwk80080_Re400k.base.pol                        
 Dump file unspecified or not available
 Calculating wake trajectory ...
 Calculating source influence matrix ...

 Solving BL system ...

 Side 1  free  transition at x/c =  0.8500   70
 Side 2  free  transition at x/c =  0.9120   72

   1   rms: 0.8451E-01   max: -.2544E+00   T at   72  2
       a =  1.500      CL =  0.1516
      Cm =  0.0045     CD =  0.00682   =>   CDf =  0.00426    CDp =  0.00256

 Side 1  free  transition at x/c =  0.8175   68
 Side 2  free  transition at x/c =  0.9265   73

   2   rms: 0.5261E-01   max: -.5041E+00   D at   69  1   RLX: 0.992
       a =  1.500      CL =  0.1642
      Cm =  0.0020     CD =  0.00679   =>   CDf =  0.00426    CDp =  0.00252

 Side 1  free  transition at x/c =  0.8243   68
 Side 2  free  transition at x/c =  0.9206   73

   3   rms: 0.9976E-02   max: 0.8448E-01   D at   69  1
       a =  1.500      CL =  0.1584
      Cm =  0.0032     CD =  0.00676   =>   CDf =  0.00424    CDp =  0.00252

 Side 1  free  transition at x/c =  0.8228   68
 Side 2  free  transition at x/c =  0.9222   73

   4   rms: 0.5557E-03   max: -.6000E-02   D at   71  1
       a =  1.500      CL =  0.1584
      Cm =  0.0032     CD =  0.00677   =>   CDf =  0.00425    CDp =  0.00251

 Side 1  free  transition at x/c =  0.8227   68
 Side 2  free  transition at x/c =  0.9222   73

   5   rms: 0.3629E-05   max: -.4061E-04   D at   71  1
       a =  1.500      CL =  0.1584
      Cm =  0.0032     CD =  0.00677   =>   CDf =  0.00425    CDp =  0.00251
 plradd ia,ip,cpol           12           0  1.31318634E-02

 Point added to stored polar  1
 Point written to save file  lwk80080_Re400k.base.pol                        
 Dump file unspecified or not available
 Calculating wake trajectory ...
 Calculating source influence matrix ...

 Solving BL system ...

 Side 1  free  transition at x/c =  0.8227   68
 Side 2  free  transition at x/c =  0.9223   73

   1   rms: 0.9644E-01   max: -.2195E+00   T at   73  2
       a =  2.000      CL =  0.2098
      Cm =  0.0046     CD =  0.00663   =>   CDf =  0.00420    CDp =  0.00243

 Side 1  free  transition at x/c =  0.7981   67
 Side 2  free  transition at x/c =  0.9346   73

   2   rms: 0.2395E-01   max: -.2631E+00   D at   68  1
       a =  2.000      CL =  0.2142
      Cm =  0.0036     CD =  0.00664   =>   CDf =  0.00418    CDp =  0.00247

 Side 1  free  transition at x/c =  0.7957   67
 Side 2  free  transition at x/c =  0.9333   73

   3   rms: 0.2415E-02   max: -.2562E-01   D at   70  1
       a =  2.000      CL =  0.2147
      Cm =  0.0034     CD =  0.00667   =>   CDf =  0.00419    CDp =  0.00248

 Side 1  free  transition at x/c =  0.7952   67
 Side 2  free  transition at x/c =  0.9330   73

   4   rms: 0.4169E-04   max: -.3907E-03   D at   70  1
       a =  2.000      CL =  0.2147
      Cm =  0.0034     CD =  0.00667   =>   CDf =  0.00419    CDp =  0.00248
 plradd ia,ip,cpol           13           0  4.19696420E-03

 Point added to stored polar  1
 Point written to save file  lwk80080_Re400k.base.pol                        
 Dump file unspecified or not available
 Calculating wake trajectory ...
 Calculating source influence matrix ...

 Solving BL system ...

 Side 1  free  transition at x/c =  0.7952   67
 Side 2  free  transition at x/c =  0.9330   73

   1   rms: 0.9816E-01   max: -.2077E+00   T at   73  2
       a =  2.500      CL =  0.2725
      Cm =  0.0034     CD =  0.00656   =>   CDf =  0.00419    CDp =  0.00237

 Side 1  free  transition at x/c =  0.7435   63
 Side 2  free  transition at x/c =  0.9430   74

   2   rms: 0.3741E-01   max: 0.5152E+00   D at   66  1
       a =  2.500      CL =  0.2684
      Cm =  0.0042     CD =  0.00671   =>   CDf =  0.00430    CDp =  0.00242

 Side 1  free  transition at x/c =  0.7537   64
 Side 2  free  transition at x/c =  0.9453   74

   3   rms: 0.9738E-02   max: 0.9394E-01   C at   64  1
       a =  2.500      CL =  0.2730
      Cm =  0.0033     CD =  0.00660   =>   CDf =  0.00415    CDp =  0.00244

 Side 1  free  transition at x/c =  0.7514   64
 Side 2  free  transition at x/c =  0.9440   74

   4   rms: 0.3982E-03   max: -.4306E-02   D at   66  1
       a =  2.500      CL =  0.2729
      Cm =  0.0033     CD =  0.00660   =>   CDf =  0.00417    CDp =  0.00243

 Side 1  free  transition at x/c =  0.7513   64
 Side 2  free  transition at x/c =  0.9441   74

   5   rms: 0.2940E-05   max: -.2741E-04   D at   78  2
       a =  2.500      CL =  0.2729
      Cm =  0.0033     CD =  0.00660   =>   CDf =  0.00417    CDp =  0.00243
 plradd ia,ip,cpol           14           0  1.95108261E-03

 Point added to stored polar  1
 Point written to save file  lwk80080_Re400k.base.pol                        
 Dump file unspecified or not available
 Calculating wake trajectory ...
 Calculating source influence matrix ...

 Solving BL system ...

 Side 1  free  transition at x/c =  0.7513   64
 Side 2  free  transition at x/c =  0.9441   74

   1   rms: 0.1225E+00   max: -.1792E+00   T at   74  2   RLX: 0.790
       a =  3.000      CL =  0.3234
      Cm =  0.0023     CD =  0.00660   =>   CDf =  0.00406    CDp =  0.00254

 Side 1  free  transition at x/c =  0.6481   57
 Side 2  free  transition at x/c =  0.9509   73

   2   rms: 0.3458E-01   max: 0.2141E+00   D at   64  1
       a =  3.000      CL =  0.3278
      Cm =  0.0039     CD =  0.00671   =>   CDf =  0.00439    CDp =  0.00232

 Side 1  free  transition at x/c =  0.6124   55
 Side 2  free  transition at x/c =  0.9570   74

   3   rms: 0.7064E-02   max: -.7236E-01   C at   55  1
       a =  3.000      CL =  0.3294
      Cm =  0.0035     CD =  0.00684   =>   CDf =  0.00448    CDp =  0.00235

 Side 1  free  transition at x/c =  0.6130   55
 Side 2  free  transition at x/c =  0.9561   74

   4   rms: 0.1006E-02   max: 0.6690E-02   C at   74  2
       a =  3.000      CL =  0.3295
      Cm =  0.0035     CD =  0.00684   =>   CDf =  0.00447    CDp =  0.00237

 Side 1  free  transition at x/c =  0.6128   55
 Side 2  free  transition at x/c =  0.9559   74

   5   rms: 0.1337E-04   max: 0.1880E-03   C at   55  1
       a =  3.000      CL =  0.3295
      Cm =  0.0035     CD =  0.00684   =>   CDf =  0.00447    CDp =  0.00237
 plradd ia,ip,cpol           15           0  1.95108261E-03

 Point added to stored polar  1
 Point written to save file  lwk80080_Re400k.base.pol                        
 Dump file unspecified or not available
 Calculating wake trajectory ...
 Calculating source influence matrix ...

 Solving BL system ...

 Side 1  free  transition at x/c =  0.6128   55
 Side 2  free  transition at x/c =  0.9559   74

   1   rms: 0.4804E+00   max: 0.8393E+01   C at   55  1   RLX: 0.179
       a =  3.500      CL =  0.3384
      Cm =  0.0037     CD =  0.00711   =>   CDf =  0.00447    CDp =  0.00264

 Side 1  free  transition at x/c =  0.5163   48
 Side 2  free  transition at x/c =  0.9575   74

   2   rms: 0.4905E+00   max: 0.8854E+01   C at   48  1   RLX: 0.169
       a =  3.500      CL =  0.3439
      Cm =  0.0041     CD =  0.00763   =>   CDf =  0.00488    CDp =  0.00276

 Side 1  free  transition at x/c =  0.4446   43
 Side 2  free  transition at x/c =  0.9590   74

   3   rms: 0.4046E+00   max: 0.7420E+01   C at   43  1   RLX: 0.202
       a =  3.500      CL =  0.3495
      Cm =  0.0043     CD =  0.00804   =>   CDf =  0.00517    CDp =  0.00287

 Side 1  free  transition at x/c =  0.3790   38
 Side 2  free  transition at x/c =  0.9607   74

   4   rms: 0.3119E+00   max: 0.5884E+01   C at   38  1   RLX: 0.255
       a =  3.500      CL =  0.3561
      Cm =  0.0042     CD =  0.00837   =>   CDf =  0.00543    CDp =  0.00294

 Side 1  free  transition at x/c =  0.3153   33
 Side 2  free  transition at x/c =  0.9624   74

   5   rms: 0.2132E+00   max: 0.4101E+01   C at   33  1   RLX: 0.366
       a =  3.500      CL =  0.3637
      Cm =  0.0040     CD =  0.00870   =>   CDf =  0.00568    CDp =  0.00301

 Side 1  free  transition at x/c =  0.2519   29
 Side 2  free  transition at x/c =  0.9644   74

   6   rms: 0.1241E+00   max: 0.2399E+01   C at   29  1   RLX: 0.625
       a =  3.500      CL =  0.3713
      Cm =  0.0038     CD =  0.00915   =>   CDf =  0.00595    CDp =  0.00320

 Side 1  free  transition at x/c =  0.1941   25
 Side 2  free  transition at x/c =  0.9670   74

   7   rms: 0.3785E-01   max: 0.6504E+00   C at   25  1
       a =  3.500      CL =  0.3753
      Cm =  0.0039     CD =  0.00936   =>   CDf =  0.00620    CDp =  0.00316

 Side 1  free  transition at x/c =  0.1663   23
 Side 2  free  transition at x/c =  0.9689   75

   8   rms: 0.9210E-02   max: 0.9498E-01   D at   24  1
       a =  3.500      CL =  0.3762
      Cm =  0.0037     CD =  0.00936   =>   CDf =  0.00633    CDp =  0.00303

 Side 1  free  transition at x/c =  0.1650   22
 Side 2  free  transition at x/c =  0.9688   75

   9   rms: 0.1382E-02   max: 0.2452E-01   C at   22  1
       a =  3.500      CL =  0.3763
      Cm =  0.0037     CD =  0.00936   =>   CDf =  0.00632    CDp =  0.00303

 Side 1  free  transition at x/c =  0.1644   22
 Side 2  free  transition at x/c =  0.9687   75

  10   rms: 0.7786E-05   max: 0.1412E-03   C at   22  1
       a =  3.500      CL =  0.3763
      Cm =  0.0037     CD =  0.00936   =>   CDf =  0.00633    CDp =  0.00303
 plradd ia,ip,cpol           16           0  6.58685749E-04

 Point added to stored polar  1
 Point written to save file  lwk80080_Re400k.base.pol                        
 Dump file unspecified or not available
 Calculating wake trajectory ...
 Calculating source influence matrix ...

 Solving BL system ...

 Side 1  free  transition at x/c =  0.1644   22
 Side 2  free  transition at x/c =  0.9687   75

   1   rms: 0.5206E+00   max: 0.1096E+02   C at   22  1   RLX: 0.137
       a =  4.000      CL =  0.3856
      Cm =  0.0031     CD =  0.00962   =>   CDf =  0.00633    CDp =  0.00329

 Side 1  free  transition at x/c =  0.1248   19
 Side 2  free  transition at x/c =  0.9695   75

   2   rms: 0.1949E+00   max: 0.3271E+01   C at   19  1   RLX: 0.435
       a =  4.000      CL =  0.4122
      Cm =  0.0015     CD =  0.01008   =>   CDf =  0.00652    CDp =  0.00356

 Side 1  free  transition at x/c =  0.0815   16
 Side 2  free  transition at x/c =  0.9716   75

   3   rms: 0.8211E-01   max: -.7813E+00   C at   16  1   RLX: 0.640
       a =  4.000      CL =  0.4339
      Cm =  0.0005     CD =  0.01041   =>   CDf =  0.00674    CDp =  0.00368

 Side 1  free  transition at x/c =  0.0642   15
 Side 2  free  transition at x/c =  0.9741   75

   4   rms: 0.5272E-01   max: -.6696E+00   D at   15  1   RLX: 0.747
       a =  4.000      CL =  0.4422
      Cm =  0.0001     CD =  0.01054   =>   CDf =  0.00673    CDp =  0.00381

 Side 1  free  transition at x/c =  0.0571   14
 Side 2  free  transition at x/c =  0.9757   75

   5   rms: 0.2049E-01   max: -.2073E+00   D at   15  1
       a =  4.000      CL =  0.4436
      Cm =  0.0002     CD =  0.01070   =>   CDf =  0.00663    CDp =  0.00406

 Side 1  free  transition at x/c =  0.0534   15
 Side 2  free  transition at x/c =  0.9767   74
 idif Ue xi dudx           1  0.24061318      4.03916836E-03   59.569981    
 Uenew xinew           2  1.42025901E-05  2.38418579E-07

   6   rms: 0.3757E-01   max: -.6527E+00   T at    2  1   RLX: 0.766
       a =  4.000      CL =  0.4432
      Cm =  0.0003     CD =  0.01077   =>   CDf =  0.00695    CDp =  0.00382

 Side 1  free  transition at x/c =  0.0532   14
 Side 2  free  transition at x/c =  0.9768   75

   7   rms: 0.2074E-01   max: 0.3713E+00   T at    2  2
       a =  4.000      CL =  0.4430
      Cm =  0.0003     CD =  0.01077   =>   CDf =  0.00665    CDp =  0.00412

 Side 1  free  transition at x/c =  0.0531   15
 Side 2  free  transition at x/c =  0.9768   74

   8   rms: 0.1407E-01   max: -.2525E+00   D at    2  1
       a =  4.000      CL =  0.4430
      Cm =  0.0003     CD =  0.01077   =>   CDf =  0.00678    CDp =  0.00399

 Side 1  free  transition at x/c =  0.0531   15
 Side 2  free  transition at x/c =  0.9768   74

   9   rms: 0.4173E-01   max: -.7528E+00   D at    2  1   RLX: 0.664
       a =  4.000      CL =  0.4430
      Cm =  0.0003     CD =  0.01077   =>   CDf =  0.00678    CDp =  0.00399

 Side 1  free  transition at x/c =  0.0531   15
 Side 2  free  transition at x/c =  0.9768   74

  10   rms: 0.6780E-02   max: -.9379E-01   D at    3  1
       a =  4.000      CL =  0.4431
      Cm =  0.0003     CD =  0.01077   =>   CDf =  0.00678    CDp =  0.00399

 Side 1  free  transition at x/c =  0.0531   15
 Side 2  free  transition at x/c =  0.9768   74

  11   rms: 0.7417E-03   max: -.6618E-02   D at    7  1
       a =  4.000      CL =  0.4430
      Cm =  0.0003     CD =  0.01077   =>   CDf =  0.00678    CDp =  0.00399

 Side 1  free  transition at x/c =  0.0531   15
 Side 2  free  transition at x/c =  0.9768   74

  12   rms: 0.7509E-05   max: -.8757E-04   T at   15  1
       a =  4.000      CL =  0.4430
      Cm =  0.0003     CD =  0.01077   =>   CDf =  0.00678    CDp =  0.00399
 plradd ia,ip,cpol           17           0  6.58685749E-04

 Point added to stored polar  1
 Point written to save file  lwk80080_Re400k.base.pol                        
 Dump file unspecified or not available
 Calculating wake trajectory ...
 Calculating source influence matrix ...

 Solving BL system ...

 Side 1  free  transition at x/c =  0.0531   15
 Side 2  free  transition at x/c =  0.9768   74

   1   rms: 0.1485E+00   max: -.1307E+01   D at    3  1   RLX: 0.382
       a =  4.500      CL =  0.4682
      Cm = -0.0007     CD =  0.01108   =>   CDf =  0.00678    CDp =  0.00430

 MRCHDU: Convergence failed at  15  side 1    Res =  0.1285E+01
 MRCHDU: Convergence failed at  16  side 1    Res =  0.2311E+02
 MRCHDU: Convergence failed at  17  side 1    Res =  0.2921E+02
 MRCHDU: Convergence failed at  18  side 1    Res =  0.9338E+01
 MRCHDU: Convergence failed at  19  side 1    Res =  0.6683E+01
 MRCHDU: Convergence failed at  20  side 1    Res =  0.6451E+01
 MRCHDU: Convergence failed at  21  side 1    Res =  0.7318E+01
 MRCHDU: Convergence failed at  22  side 1    Res =  0.7847E+01
 MRCHDU: Convergence failed at  23  side 1    Res =  0.9183E+01
 MRCHDU: Convergence failed at  24  side 1    Res =  0.1377E+02
 MRCHDU: Convergence failed at  25  side 1    Res =  0.1816E+02
 MRCHDU: Convergence failed at  26  side 1    Res =  0.2247E+02
 MRCHDU: Convergence failed at  27  side 1    Res =  0.3316E+02
 MRCHDU: Convergence failed at  28  side 1    Res =  0.5698E+02
 MRCHDU: Convergence failed at  29  side 1    Res =  0.1916E+03
 MRCHDU: Convergence failed at  30  side 1    Res =  0.2049E+02
 MRCHDU: Convergence failed at  31  side 1    Res =  0.1771E+02
 MRCHDU: Convergence failed at  32  side 1    Res =  0.1554E+02
 MRCHDU: Convergence failed at  33  side 1    Res =  0.1371E+02
 MRCHDU: Convergence failed at  34  side 1    Res =  0.1274E+02
 MRCHDU: Convergence failed at  35  side 1    Res =  0.1175E+02
 MRCHDU: Convergence failed at  36  side 1    Res =  0.1118E+02
 MRCHDU: Convergence failed at  37  side 1    Res =  0.1052E+02
 MRCHDU: Convergence failed at  38  side 1    Res =  0.8576E+01
 MRCHDU: Convergence failed at  39  side 1    Res =  0.6139E+01
 MRCHDU: Convergence failed at  40  side 1    Res =  0.6005E+01
 MRCHDU: Convergence failed at  41  side 1    Res =  0.5877E+01
 MRCHDU: Convergence failed at  42  side 1    Res =  0.4393E+02
 MRCHDU: Convergence failed at  43  side 1    Res =  0.4954E+02
 MRCHDU: Convergence failed at  44  side 1    Res =  0.6220E+02
 MRCHDU: Convergence failed at  45  side 1    Res =  0.7363E+02
 MRCHDU: Convergence failed at  46  side 1    Res =  0.8575E+02
 MRCHDU: Convergence failed at  47  side 1    Res =  0.1100E+03
 MRCHDU: Convergence failed at  48  side 1    Res =  0.1273E+03
 MRCHDU: Convergence failed at  49  side 1    Res =  0.2270E+03
 MRCHDU: Convergence failed at  50  side 1    Res =  0.1019E+04
 MRCHDU: Convergence failed at  51  side 1    Res =  0.2017E+03
 MRCHDU: Convergence failed at  52  side 1    Res =  0.1159E+03
 MRCHDU: Convergence failed at  53  side 1    Res =  0.8259E+02
 MRCHDU: Convergence failed at  54  side 1    Res =  0.5920E+02
 MRCHDU: Convergence failed at  55  side 1    Res =  0.4903E+02
 MRCHDU: Convergence failed at  56  side 1    Res =  0.4133E+02
 MRCHDU: Convergence failed at  57  side 1    Res =  0.3514E+02
 MRCHDU: Convergence failed at  58  side 1    Res =  0.1024E+02
 MRCHDU: Convergence failed at  59  side 1    Res =  0.1037E+02
 MRCHDU: Convergence failed at  60  side 1    Res =  0.1101E+02
 MRCHDU: Convergence failed at  61  side 1    Res =  0.1400E+02
 MRCHDU: Convergence failed at  62  side 1    Res =  0.1494E+02
 MRCHDU: Convergence failed at  63  side 1    Res =  0.1994E+02
 MRCHDU: Convergence failed at  64  side 1    Res =  0.2061E+02
 MRCHDU: Convergence failed at  65  side 1    Res =  0.2095E+02
 MRCHDU: Convergence failed at  66  side 1    Res =  0.2144E+02
 MRCHDU: Convergence failed at  67  side 1    Res =  0.2208E+02
 MRCHDU: Convergence failed at  68  side 1    Res =  0.2325E+02
 MRCHDU: Convergence failed at  69  side 1    Res =  0.2398E+02
 MRCHDU: Convergence failed at  70  side 1    Res =  0.2690E+02
 MRCHDU: Convergence failed at  71  side 1    Res =  0.1933E+02
 MRCHDU: Convergence failed at  72  side 1    Res =  0.1777E+02
 MRCHDU: Convergence failed at  73  side 1    Res =  0.1518E+02
 MRCHDU: Convergence failed at  74  side 1    Res =  0.4238E+02
 MRCHDU: Convergence failed at  75  side 1    Res =  0.2956E+02
 MRCHDU: Convergence failed at  76  side 1    Res =  0.2426E+02
 MRCHDU: Convergence failed at  77  side 1    Res =  0.5078E+02
 MRCHDU: Convergence failed at  78  side 1    Res =  0.3875E+02
 MRCHDU: Convergence failed at  79  side 1    Res =  0.5491E+02
 MRCHDU: Convergence failed at  80  side 1    Res =  0.4477E+02
 MRCHDU: Convergence failed at  81  side 1    Res =  0.4858E+02
 MRCHDU: Convergence failed at  82  side 1    Res =  0.1681E+02
 MRCHDU: Convergence failed at  83  side 1    Res =  0.2044E+02
 MRCHDU: Convergence failed at  84  side 1    Res =  0.2065E+02
 MRCHDU: Convergence failed at  85  side 1    Res =  0.3451E+02
 Side 1  free  transition at x/c =  0.0426   14
 Side 2  free  transition at x/c =  0.9807   74

   2   rms: 0.7667E+00   max: 0.3430E+01   D at   79  2   RLX: 0.297
       a =  4.500      CL =  1.0650
      Cm = -0.2088     CD =  0.00531   =>   CDf =  0.00182    CDp =  0.00349

 MRCHDU: Convergence failed at  80  side 2    Res =  0.2405E+02
 MRCHDU: Convergence failed at  81  side 2    Res =  0.1072E+01
 MRCHDU: Convergence failed at  82  side 2    Res =  0.2628E+01
 Side 1  free  transition at x/c =  0.0431   14
 Side 2 forced transition at x/c =  1.0000   77

   3   rms: 0.3773E+00   max: -.1166E+01   D at   52  1   RLX: 0.429
       a =  4.500      CL =  0.6357
      Cm = -0.0573     CD =  0.02028   =>   CDf =  0.00521    CDp =  0.01507

 Side 1  free  transition at x/c =  0.0447   14
 Side 2 forced transition at x/c =  1.0000   77

   4   rms: 0.4411E+00   max: -.2492E+01   D at   29  1   RLX: 0.201
       a =  4.500      CL =  0.5633
      Cm = -0.0310     CD =  0.01908   =>   CDf =  0.00524    CDp =  0.01383

 Side 1  free  transition at x/c =  0.0460   15
 Side 2 forced transition at x/c =  1.0000   77

   5   rms: 0.4405E+00   max: -.1969E+01   D at   37  1   RLX: 0.254
       a =  4.500      CL =  0.5076
      Cm = -0.0117     CD =  0.01679   =>   CDf =  0.00539    CDp =  0.01140

 Side 1  free  transition at x/c =  0.0513   15
 Side 2 forced transition at x/c =  1.0000   77

   6   rms: 0.4473E+00   max: -.2098E+01   D at   37  1   RLX: 0.238
       a =  4.500      CL =  0.4824
      Cm = -0.0009     CD =  0.01481   =>   CDf =  0.00548    CDp =  0.00932

 MRCHDU: Convergence failed at  35  side 1    Res =  0.3539E+00
 Side 1  free  transition at x/c =  0.0506   15
 Side 2 forced transition at x/c =  1.0000   77
 idif Ue xi dudx           1  0.23582087      4.07147408E-03   57.920269    
 Uenew xinew           2  1.88496511E-03  3.25441360E-05

   7   rms: 0.5239E+00   max: -.2031E+01   D at   48  1   RLX: 0.246
       a =  4.500      CL =  0.4563
      Cm =  0.0095     CD =  0.01247   =>   CDf =  0.00608    CDp =  0.00639

 MRCHDU: Convergence failed at  43  side 1    Res =  0.2422E+00
 Side 1  free  transition at x/c =  0.0545   14
 Side 2 forced transition at x/c =  1.0000   78

   8   rms: 0.1391E+01   max: -.2125E+02   T at    2  2   RLX: 0.024
       a =  4.500      CL =  0.4679
      Cm =  0.0056     CD =  0.01345   =>   CDf =  0.00640    CDp =  0.00705

 Side 1  free  transition at x/c =  0.0555   14
 Side 2 forced transition at x/c =  1.0000   78

   9   rms: 0.5520E+00   max: -.2391E+01   D at   64  1   RLX: 0.209
       a =  4.500      CL =  0.4192
      Cm =  0.0186     CD =  0.01160   =>   CDf =  0.00636    CDp =  0.00523

 MRCHDU: Convergence failed at  53  side 1    Res =  0.4098E+00
 Side 1  free  transition at x/c =  0.0643   15
 Side 2 forced transition at x/c =  1.0000   78

  10   rms: 0.2992E+00   max: 0.1447E+01   C at   15  1   RLX: 0.421
       a =  4.500      CL =  0.4458
      Cm =  0.0120     CD =  0.01160   =>   CDf =  0.00658    CDp =  0.00502

 Side 1  free  transition at x/c =  0.0527   15
 Side 2 forced transition at x/c =  1.0000   77

  11   rms: 0.3877E+00   max: 0.3654E+01   T at    2  1   RLX: 0.247
       a =  4.500      CL =  0.4807
      Cm =  0.0054     CD =  0.01220   =>   CDf =  0.00658    CDp =  0.00562

 Side 1  free  transition at x/c =  0.0428   14
 Side 2 forced transition at x/c =  1.0000   77

  12   rms: 0.5666E+00   max: -.3933E+01   C at   14  1   RLX: 0.127
       a =  4.500      CL =  0.5154
      Cm = -0.0010     CD =  0.01245   =>   CDf =  0.00663    CDp =  0.00582

 Side 1  free  transition at x/c =  0.0360   14
 Side 2 forced transition at x/c =  1.0000   77

  13   rms: 0.1446E+01   max: -.1050E+02   D at   14  1   RLX: 0.048
       a =  4.500      CL =  0.5537
      Cm = -0.0084     CD =  0.01318   =>   CDf =  0.00666    CDp =  0.00652

 MRCHDU: Convergence failed at  14  side 1    Res =  0.2304E+01
 MRCHDU: Convergence failed at  15  side 1    Res =  0.5681E+01
 MRCHDU: Convergence failed at  16  side 1    Res =  0.3511E+01
 MRCHDU: Convergence failed at  17  side 1    Res =  0.3024E+01
 MRCHDU: Convergence failed at  18  side 1    Res =  0.3085E+01
 MRCHDU: Convergence failed at  19  side 1    Res =  0.3311E+01
 MRCHDU: Convergence failed at  20  side 1    Res =  0.3882E+01
 MRCHDU: Convergence failed at  21  side 1    Res =  0.4728E+01
 MRCHDU: Convergence failed at  22  side 1    Res =  0.5396E+01
 MRCHDU: Convergence failed at  23  side 1    Res =  0.6457E+01
 MRCHDU: Convergence failed at  24  side 1    Res =  0.7408E+01
 MRCHDU: Convergence failed at  25  side 1    Res =  0.8576E+01
 MRCHDU: Convergence failed at  26  side 1    Res =  0.8902E+01
 MRCHDU: Convergence failed at  27  side 1    Res =  0.2525E+02
 MRCHDU: Convergence failed at  28  side 1    Res =  0.2994E+02
 MRCHDU: Convergence failed at  29  side 1    Res =  0.5539E+02
 MRCHDU: Convergence failed at  30  side 1    Res =  0.1425E+02
 MRCHDU: Convergence failed at  31  side 1    Res =  0.1662E+02
 MRCHDU: Convergence failed at  32  side 1    Res =  0.3177E+02
 MRCHDU: Convergence failed at  33  side 1    Res =  0.4576E+02
 MRCHDU: Convergence failed at  34  side 1    Res =  0.4314E+02
 MRCHDU: Convergence failed at  35  side 1    Res =  0.5462E+02
 MRCHDU: Convergence failed at  36  side 1    Res =  0.1986E+02
 MRCHDU: Convergence failed at  37  side 1    Res =  0.2121E+02
 MRCHDU: Convergence failed at  38  side 1    Res =  0.2329E+02
 MRCHDU: Convergence failed at  39  side 1    Res =  0.2421E+02
 MRCHDU: Convergence failed at  40  side 1    Res =  0.3358E+02
 MRCHDU: Convergence failed at  41  side 1    Res =  0.2888E+02
 MRCHDU: Convergence failed at  42  side 1    Res =  0.4630E+02
 MRCHDU: Convergence failed at  43  side 1    Res =  0.6582E+02
 MRCHDU: Convergence failed at  44  side 1    Res =  0.4692E+02
 MRCHDU: Convergence failed at  45  side 1    Res =  0.4278E+02
 MRCHDU: Convergence failed at  46  side 1    Res =  0.7065E+02
 MRCHDU: Convergence failed at  47  side 1    Res =  0.1146E+03
 MRCHDU: Convergence failed at  48  side 1    Res =  0.2324E+03
 MRCHDU: Convergence failed at  49  side 1    Res =  0.7402E+02
 MRCHDU: Convergence failed at  50  side 1    Res =  0.2825E+02
 MRCHDU: Convergence failed at  51  side 1    Res =  0.2640E+02
 MRCHDU: Convergence failed at  52  side 1    Res =  0.4832E+02
 MRCHDU: Convergence failed at  53  side 1    Res =  0.5898E+02
 MRCHDU: Convergence failed at  54  side 1    Res =  0.5333E+02
 MRCHDU: Convergence failed at  55  side 1    Res =  0.3181E+02
 MRCHDU: Convergence failed at  56  side 1    Res =  0.2240E+02
 MRCHDU: Convergence failed at  57  side 1    Res =  0.2880E+02
 MRCHDU: Convergence failed at  58  side 1    Res =  0.2827E+02
 MRCHDU: Convergence failed at  59  side 1    Res =  0.2484E+02
 MRCHDU: Convergence failed at  60  side 1    Res =  0.2133E+02
 MRCHDU: Convergence failed at  61  side 1    Res =  0.3576E+02
 MRCHDU: Convergence failed at  62  side 1    Res =  0.3856E+02
 MRCHDU: Convergence failed at  63  side 1    Res =  0.4221E+02
 MRCHDU: Convergence failed at  64  side 1    Res =  0.3549E+02
 MRCHDU: Convergence failed at  65  side 1    Res =  0.5541E+02
 MRCHDU: Convergence failed at  66  side 1    Res =  0.2271E+02
 MRCHDU: Convergence failed at  67  side 1    Res =  0.2078E+02
 MRCHDU: Convergence failed at  68  side 1    Res =  0.2600E+02
 MRCHDU: Convergence failed at  69  side 1    Res =  0.1097E+04
 MRCHDU: Convergence failed at  70  side 1    Res =  0.2358E+03
 MRCHDU: Convergence failed at  71  side 1    Res =  0.8368E+02
 MRCHDU: Convergence failed at  72  side 1    Res =  0.4129E+02
 MRCHDU: Convergence failed at  73  side 1    Res =  0.3648E+02
 MRCHDU: Convergence failed at  74  side 1    Res =  0.2080E+02
 MRCHDU: Convergence failed at  75  side 1    Res =  0.1907E+02
 MRCHDU: Convergence failed at  76  side 1    Res =  0.1377E+03
 MRCHDU: Convergence failed at  77  side 1    Res =  0.8823E+02
 MRCHDU: Convergence failed at  78  side 1    Res =  0.8004E+02
 MRCHDU: Convergence failed at  79  side 1    Res =  0.3359E+02
 MRCHDU: Convergence failed at  80  side 1    Res =  0.3705E+02
 MRCHDU: Convergence failed at  81  side 1    Res =  0.3089E+02
 MRCHDU: Convergence failed at  82  side 1    Res =  0.1014E+03
 MRCHDU: Convergence failed at  83  side 1    Res =  0.1385E+03
 MRCHDU: Convergence failed at  84  side 1    Res =  0.1842E+03
 MRCHDU: Convergence failed at  85  side 1    Res =  0.4568E+02
 Side 1  free  transition at x/c =  0.0309   13
 Side 2  free  transition at x/c =  0.9991   77

  14   rms: 0.1382E+01   max: 0.9930E+01   C at   77  2   RLX: 0.151
       a =  4.500      CL =  1.6636
      Cm = -0.3715     CD =  0.00468   =>   CDf =  0.00169    CDp =  0.00299

 MRCHDU: Convergence failed at  16  side 1    Res =  0.1149E+00
 MRCHDU: Convergence failed at  17  side 1    Res =  0.1103E+00
 MRCHDU: Convergence failed at  18  side 1    Res =  0.9402E-01
 MRCHDU: Convergence failed at  27  side 1    Res =  0.1943E+00
 MRCHDU: Convergence failed at  28  side 1    Res =  0.1642E+00
 MRCHDU: Convergence failed at  29  side 1    Res =  0.4450E-01
 MRCHDU: Convergence failed at  48  side 1    Res =  0.2260E+00
 MRCHDU: Convergence failed at  49  side 1    Res =  0.2196E+00
 MRCHDU: Convergence failed at  50  side 1    Res =  0.2127E+00
 MRCHDU: Convergence failed at  51  side 1    Res =  0.2053E+00
 MRCHDU: Convergence failed at  52  side 1    Res =  0.1957E+00
 MRCHDU: Convergence failed at  53  side 1    Res =  0.1866E+00
 MRCHDU: Convergence failed at  54  side 1    Res =  0.1740E+00
 MRCHDU: Convergence failed at  55  side 1    Res =  0.1604E+00
 MRCHDU: Convergence failed at  56  side 1    Res =  0.1408E+00
 MRCHDU: Convergence failed at  57  side 1    Res =  0.1159E+00
 MRCHDU: Convergence failed at  58  side 1    Res =  0.7329E-01
 MRCHDU: Convergence failed at  59  side 1    Res =  0.1715E-03
 MRCHDU: Convergence failed at  80  side 2    Res =  0.2695E+02
 MRCHDU: Convergence failed at  81  side 2    Res =  0.1427E+01
 Side 1  free  transition at x/c =  0.0286   13
 Side 2 forced transition at x/c =  1.0000   77

  15   rms: 0.8852E+00   max: -.4844E+01   D at   76  2   RLX: 0.103
       a =  4.500      CL =  1.1130
      Cm = -0.2223     CD =  0.02803   =>   CDf =  0.00349    CDp =  0.02454

 MRCHDU: Convergence failed at  18  side 1    Res =  0.3547E+00
 MRCHDU: Convergence failed at  19  side 1    Res =  0.4495E+00
 MRCHDU: Convergence failed at  20  side 1    Res =  0.9093E-01
 MRCHDU: Convergence failed at  29  side 1    Res =  0.4851E+00
 MRCHDU: Convergence failed at  30  side 1    Res =  0.8641E+00
 MRCHDU: Convergence failed at  31  side 1    Res =  0.3078E+00
 MRCHDU: Convergence failed at  32  side 1    Res =  0.2502E+00
 MRCHDU: Convergence failed at  33  side 1    Res =  0.1603E+00
 MRCHDU: Convergence failed at  58  side 1    Res =  0.6688E+00
 MRCHDU: Convergence failed at  59  side 1    Res =  0.1084E+01
 MRCHDU: Convergence failed at  60  side 1    Res =  0.5471E+00
 MRCHDU: Convergence failed at  61  side 1    Res =  0.5263E+00
 MRCHDU: Convergence failed at  62  side 1    Res =  0.4954E+00
 MRCHDU: Convergence failed at  63  side 1    Res =  0.4638E+00
 MRCHDU: Convergence failed at  64  side 1    Res =  0.4311E+00
 MRCHDU: Convergence failed at  65  side 1    Res =  0.3969E+00
 MRCHDU: Convergence failed at  66  side 1    Res =  0.3620E+00
 MRCHDU: Convergence failed at  67  side 1    Res =  0.3258E+00
 MRCHDU: Convergence failed at  68  side 1    Res =  0.2882E+00
 MRCHDU: Convergence failed at  69  side 1    Res =  0.2482E+00
 MRCHDU: Convergence failed at  70  side 1    Res =  0.2056E+00
 MRCHDU: Convergence failed at  71  side 1    Res =  0.1588E+00
 MRCHDU: Convergence failed at  72  side 1    Res =  0.1053E+00
 MRCHDU: Convergence failed at  73  side 1    Res =  0.3345E-01
 MRCHDU: Convergence failed at  74  side 1    Res =  0.6334E-03
 Side 1  free  transition at x/c =  0.0369   14
 Side 2 forced transition at x/c =  1.0000   77

  16   rms: 0.4211E+00   max: -.1538E+01   D at   34  1   RLX: 0.325
       a =  4.500      CL =  0.6783
      Cm = -0.0794     CD =  0.02250   =>   CDf =  0.00331    CDp =  0.01919

 MRCHDU: Convergence failed at  20  side 1    Res =  0.2267E+00
 MRCHDU: Convergence failed at  21  side 1    Res =  0.2685E+00
 MRCHDU: Convergence failed at  24  side 1    Res =  0.4791E+01
 MRCHDU: Convergence failed at  25  side 1    Res =  0.1022E+01
 MRCHDU: Convergence failed at  34  side 1    Res =  0.4004E+00
 MRCHDU: Convergence failed at  35  side 1    Res =  0.6036E+00
 MRCHDU: Convergence failed at  36  side 1    Res =  0.1682E+00
 MRCHDU: Convergence failed at  37  side 1    Res =  0.1383E+00
 MRCHDU: Convergence failed at  38  side 1    Res =  0.1025E+00
 MRCHDU: Convergence failed at  39  side 1    Res =  0.6539E-01
 MRCHDU: Convergence failed at  40  side 1    Res =  0.3499E+01
 MRCHDU: Convergence failed at  41  side 1    Res =  0.2512E+01
 MRCHDU: Convergence failed at  42  side 1    Res =  0.1930E+01
 MRCHDU: Convergence failed at  43  side 1    Res =  0.1490E+01
 MRCHDU: Convergence failed at  44  side 1    Res =  0.1230E+01
 MRCHDU: Convergence failed at  45  side 1    Res =  0.2464E+01
 Side 1  free  transition at x/c =  0.0430   14
 Side 2 forced transition at x/c =  1.0000   77

  17   rms: 0.1292E+01   max: -.1158E+02   T at   14  1   RLX: 0.043
       a =  4.500      CL =  0.5341
      Cm = -0.0539     CD =  0.02183   =>   CDf =  0.00405    CDp =  0.01777

 MRCHDU: Convergence failed at  15  side 1    Res =  0.3665E+01
 MRCHDU: Convergence failed at  39  side 1    Res =  0.2387E+00
 MRCHDU: Convergence failed at  40  side 1    Res =  0.2427E+00
 MRCHDU: Convergence failed at  41  side 1    Res =  0.2450E+00
 MRCHDU: Convergence failed at  42  side 1    Res =  0.2461E+00
 MRCHDU: Convergence failed at  43  side 1    Res =  0.2479E+00
 MRCHDU: Convergence failed at  44  side 1    Res =  0.2492E+00
 MRCHDU: Convergence failed at  45  side 1    Res =  0.2519E+00
 MRCHDU: Convergence failed at  71  side 1    Res =  0.9342E-02
 MRCHDU: Convergence failed at  72  side 1    Res =  0.7622E-03
 MRCHDU: Convergence failed at  73  side 1    Res =  0.6446E-04
 Side 1  free  transition at x/c =  0.0549   15
 Side 2 forced transition at x/c =  1.0000   77

  18   rms: 0.8242E+00   max: 0.5726E+01   C at   15  1   RLX: 0.119
       a =  4.500      CL =  0.3971
      Cm = -0.0016     CD =  0.01823   =>   CDf =  0.00357    CDp =  0.01466

 MRCHDU: Convergence failed at  16  side 1    Res =  0.9550E+01
 MRCHDU: Convergence failed at  17  side 1    Res =  0.9063E+01
 MRCHDU: Convergence failed at  18  side 1    Res =  0.8006E+02
 MRCHDU: Convergence failed at  19  side 1    Res =  0.9799E+02
 MRCHDU: Convergence failed at  20  side 1    Res =  0.2043E+02
 MRCHDU: Convergence failed at  21  side 1    Res =  0.2101E+02
 MRCHDU: Convergence failed at  22  side 1    Res =  0.2227E+01
 MRCHDU: Convergence failed at  23  side 1    Res =  0.2985E+01
 MRCHDU: Convergence failed at  24  side 1    Res =  0.3441E+01
 MRCHDU: Convergence failed at  25  side 1    Res =  0.3238E+01
 MRCHDU: Convergence failed at  26  side 1    Res =  0.3225E+01
 MRCHDU: Convergence failed at  27  side 1    Res =  0.4805E+01
 MRCHDU: Convergence failed at  28  side 1    Res =  0.4704E+01
 MRCHDU: Convergence failed at  29  side 1    Res =  0.4744E+01
 MRCHDU: Convergence failed at  30  side 1    Res =  0.3045E+01
 MRCHDU: Convergence failed at  31  side 1    Res =  0.3419E+01
 MRCHDU: Convergence failed at  32  side 1    Res =  0.4106E+01
 MRCHDU: Convergence failed at  33  side 1    Res =  0.5332E+01
 MRCHDU: Convergence failed at  34  side 1    Res =  0.6431E+01
 MRCHDU: Convergence failed at  35  side 1    Res =  0.7885E+01
 MRCHDU: Convergence failed at  36  side 1    Res =  0.1042E+02
 MRCHDU: Convergence failed at  37  side 1    Res =  0.1494E+02
 MRCHDU: Convergence failed at  38  side 1    Res =  0.2396E+02
 MRCHDU: Convergence failed at  39  side 1    Res =  0.2167E+02
 MRCHDU: Convergence failed at  40  side 1    Res =  0.2050E+02
 MRCHDU: Convergence failed at  41  side 1    Res =  0.1992E+02
 MRCHDU: Convergence failed at  42  side 1    Res =  0.1981E+02
 MRCHDU: Convergence failed at  43  side 1    Res =  0.1979E+02
 MRCHDU: Convergence failed at  44  side 1    Res =  0.2005E+02
 MRCHDU: Convergence failed at  45  side 1    Res =  0.2020E+02
 MRCHDU: Convergence failed at  46  side 1    Res =  0.4887E+01
 MRCHDU: Convergence failed at  47  side 1    Res =  0.3178E+02
[...]
 MRCHDU: Convergence failed at  41  side 1    Res =  0.2600E-02
 MRCHDU: Convergence failed at  42  side 1    Res =  0.2310E-02
 MRCHDU: Convergence failed at  43  side 1    Res =  0.2003E-02
 MRCHDU: Convergence failed at  44  side 1    Res =  0.1859E-02
 MRCHDU: Convergence failed at  45  side 1    Res =  0.1963E-02
 MRCHDU: Convergence failed at  46  side 1    Res =  0.2356E-02
 MRCHDU: Convergence failed at  47  side 1    Res =  0.2588E-02
 MRCHDU: Convergence failed at  48  side 1    Res =  0.2228E-02
 MRCHDU: Convergence failed at  49  side 1    Res =  0.1098E-02
 MRCHDU: Convergence failed at  50  side 1    Res =  0.2552E-03
 MRCHDU: Convergence failed at  51  side 1    Res =  0.1328E-03
 MRCHDU: Convergence failed at  52  side 1    Res =  0.1236E-03
 MRCHDU: Convergence failed at  53  side 1    Res =  0.4673E-04
 MRCHDU: Convergence failed at  54  side 1    Res =  0.4978E-04
 MRCHDU: Convergence failed at  55  side 1    Res =  0.2195E-04
 MRCHDU: Convergence failed at  56  side 1    Res =  0.2059E-04
 MRCHDU: Convergence failed at  57  side 1    Res =  0.1268E-04
 MRCHDU: Convergence failed at  58  side 1    Res =  0.1280E-04
 MRCHDU: Convergence failed at  59  side 1    Res =  0.7511E-05
 MRCHDU: Convergence failed at  60  side 1    Res =  0.9521E-05
 MRCHDU: Convergence failed at  61  side 1    Res =  0.7334E-05
 MRCHDU: Convergence failed at  62  side 1    Res =  0.7332E-05
 MRCHDU: Convergence failed at  86  side 1    Res =  0.4109E-03
 MRCHDU: Convergence failed at  78  side 2    Res =  0.1496E-02
 MRCHDU: Convergence failed at  79  side 2    Res =  0.1582E-02
 Side 1  free  transition at x/c =  0.0845   19
 Side 2 forced transition at x/c =  1.0000   76

 119   rms: 0.8113E+07   max: 0.2110E+09   T at   83  1   RLX: 0.000
       a = 10.250      CL =  1.9346
      Cm = -0.4155     CD =236.33376   =>   CDf =  0.00222    CDp =236.33154

 MRCHDU: Convergence failed at  26  side 1    Res =  0.3140E-01
 MRCHDU: Convergence failed at  27  side 1    Res =  0.1967E-01
 MRCHDU: Convergence failed at  28  side 1    Res =  0.1402E-01
 MRCHDU: Convergence failed at  29  side 1    Res =  0.1102E-01
 MRCHDU: Convergence failed at  30  side 1    Res =  0.9093E-02
 MRCHDU: Convergence failed at  31  side 1    Res =  0.7701E-02
 MRCHDU: Convergence failed at  32  side 1    Res =  0.6576E-02
 MRCHDU: Convergence failed at  33  side 1    Res =  0.5686E-02
 MRCHDU: Convergence failed at  34  side 1    Res =  0.5081E-02
 MRCHDU: Convergence failed at  35  side 1    Res =  0.4584E-02
 MRCHDU: Convergence failed at  36  side 1    Res =  0.4409E-02
 MRCHDU: Convergence failed at  37  side 1    Res =  0.4398E-02
 MRCHDU: Convergence failed at  38  side 1    Res =  0.3949E-02
 MRCHDU: Convergence failed at  39  side 1    Res =  0.3250E-02
 MRCHDU: Convergence failed at  40  side 1    Res =  0.2894E-02
 MRCHDU: Convergence failed at  41  side 1    Res =  0.2608E-02
 MRCHDU: Convergence failed at  42  side 1    Res =  0.2318E-02
 MRCHDU: Convergence failed at  43  side 1    Res =  0.2012E-02
 MRCHDU: Convergence failed at  44  side 1    Res =  0.1869E-02
 MRCHDU: Convergence failed at  45  side 1    Res =  0.1975E-02
 MRCHDU: Convergence failed at  46  side 1    Res =  0.2373E-02
 MRCHDU: Convergence failed at  47  side 1    Res =  0.2613E-02
 MRCHDU: Convergence failed at  48  side 1    Res =  0.2253E-02
 MRCHDU: Convergence failed at  49  side 1    Res =  0.1115E-02
 MRCHDU: Convergence failed at  50  side 1    Res =  0.2604E-03
 MRCHDU: Convergence failed at  51  side 1    Res =  0.1344E-03
 MRCHDU: Convergence failed at  52  side 1    Res =  0.1252E-03
 MRCHDU: Convergence failed at  53  side 1    Res =  0.4737E-04
 MRCHDU: Convergence failed at  54  side 1    Res =  0.5040E-04
 MRCHDU: Convergence failed at  55  side 1    Res =  0.2235E-04
 MRCHDU: Convergence failed at  56  side 1    Res =  0.2084E-04
 MRCHDU: Convergence failed at  57  side 1    Res =  0.1289E-04
 MRCHDU: Convergence failed at  58  side 1    Res =  0.1297E-04
 MRCHDU: Convergence failed at  59  side 1    Res =  0.7647E-05
 MRCHDU: Convergence failed at  60  side 1    Res =  0.9633E-05
 MRCHDU: Convergence failed at  61  side 1    Res =  0.7496E-05
 MRCHDU: Convergence failed at  62  side 1    Res =  0.7435E-05
 MRCHDU: Convergence failed at  86  side 1    Res =  0.4106E-03
 MRCHDU: Convergence failed at  78  side 2    Res =  0.1496E-02
 MRCHDU: Convergence failed at  79  side 2    Res =  0.1585E-02
 Side 1  free  transition at x/c =  0.0845   19
 Side 2 forced transition at x/c =  1.0000   76

 120   rms: 0.1591E+09   max: 0.3783E+10   T at   83  1   RLX: 0.000
       a = 10.250      CL =  1.9346
      Cm = -0.4155     CD =235.23662   =>   CDf =  0.00222    CDp =235.23441

 MRCHDU: Convergence failed at  26  side 1    Res =  0.3140E-01
 MRCHDU: Convergence failed at  27  side 1    Res =  0.1967E-01
 MRCHDU: Convergence failed at  28  side 1    Res =  0.1402E-01
 MRCHDU: Convergence failed at  29  side 1    Res =  0.1102E-01
 MRCHDU: Convergence failed at  30  side 1    Res =  0.9093E-02
 MRCHDU: Convergence failed at  31  side 1    Res =  0.7702E-02
 MRCHDU: Convergence failed at  32  side 1    Res =  0.6577E-02
 MRCHDU: Convergence failed at  33  side 1    Res =  0.5686E-02
 MRCHDU: Convergence failed at  34  side 1    Res =  0.5082E-02
 MRCHDU: Convergence failed at  35  side 1    Res =  0.4585E-02
 MRCHDU: Convergence failed at  36  side 1    Res =  0.4410E-02
 MRCHDU: Convergence failed at  37  side 1    Res =  0.4400E-02
 MRCHDU: Convergence failed at  38  side 1    Res =  0.3951E-02
 MRCHDU: Convergence failed at  39  side 1    Res =  0.3252E-02
 MRCHDU: Convergence failed at  40  side 1    Res =  0.2897E-02
 MRCHDU: Convergence failed at  41  side 1    Res =  0.2610E-02
 MRCHDU: Convergence failed at  42  side 1    Res =  0.2321E-02
 MRCHDU: Convergence failed at  43  side 1    Res =  0.2015E-02
 MRCHDU: Convergence failed at  44  side 1    Res =  0.1873E-02
 MRCHDU: Convergence failed at  45  side 1    Res =  0.1980E-02
 MRCHDU: Convergence failed at  46  side 1    Res =  0.2380E-02
 MRCHDU: Convergence failed at  47  side 1    Res =  0.2622E-02
 MRCHDU: Convergence failed at  48  side 1    Res =  0.2262E-02
 MRCHDU: Convergence failed at  49  side 1    Res =  0.1121E-02
 MRCHDU: Convergence failed at  50  side 1    Res =  0.2623E-03
 MRCHDU: Convergence failed at  51  side 1    Res =  0.1350E-03
 MRCHDU: Convergence failed at  52  side 1    Res =  0.1258E-03
 MRCHDU: Convergence failed at  53  side 1    Res =  0.4761E-04
 MRCHDU: Convergence failed at  54  side 1    Res =  0.5065E-04
 MRCHDU: Convergence failed at  55  side 1    Res =  0.2248E-04
 MRCHDU: Convergence failed at  56  side 1    Res =  0.2095E-04
 MRCHDU: Convergence failed at  57  side 1    Res =  0.1296E-04
 MRCHDU: Convergence failed at  58  side 1    Res =  0.1304E-04
 MRCHDU: Convergence failed at  59  side 1    Res =  0.7699E-05
 MRCHDU: Convergence failed at  60  side 1    Res =  0.9678E-05
 MRCHDU: Convergence failed at  61  side 1    Res =  0.7558E-05
 MRCHDU: Convergence failed at  62  side 1    Res =  0.7463E-05
 MRCHDU: Convergence failed at  86  side 1    Res =  0.4104E-03
 MRCHDU: Convergence failed at  78  side 2    Res =  0.1496E-02
 MRCHDU: Convergence failed at  79  side 2    Res =  0.1586E-02
 Side 1  free  transition at x/c =  0.0845   19
 Side 2 forced transition at x/c =  1.0000   76

 121   rms: 0.2129E+07   max: -.5742E+08   T at   83  1   RLX: 0.000
       a = 10.250      CL =  1.9346
      Cm = -0.4156     CD =235.18730   =>   CDf =  0.00222    CDp =235.18509

 MRCHDU: Convergence failed at  26  side 1    Res =  0.3141E-01
 MRCHDU: Convergence failed at  27  side 1    Res =  0.1967E-01
 MRCHDU: Convergence failed at  28  side 1    Res =  0.1402E-01
 MRCHDU: Convergence failed at  29  side 1    Res =  0.1102E-01
 MRCHDU: Convergence failed at  30  side 1    Res =  0.9093E-02
 MRCHDU: Convergence failed at  31  side 1    Res =  0.7701E-02
 MRCHDU: Convergence failed at  32  side 1    Res =  0.6576E-02
 MRCHDU: Convergence failed at  33  side 1    Res =  0.5686E-02
 MRCHDU: Convergence failed at  34  side 1    Res =  0.5081E-02
 MRCHDU: Convergence failed at  35  side 1    Res =  0.4584E-02
 MRCHDU: Convergence failed at  36  side 1    Res =  0.4410E-02
 MRCHDU: Convergence failed at  37  side 1    Res =  0.4399E-02
 MRCHDU: Convergence failed at  38  side 1    Res =  0.3950E-02
 MRCHDU: Convergence failed at  39  side 1    Res =  0.3250E-02
 MRCHDU: Convergence failed at  40  side 1    Res =  0.2895E-02
 MRCHDU: Convergence failed at  41  side 1    Res =  0.2609E-02
 MRCHDU: Convergence failed at  42  side 1    Res =  0.2320E-02
 MRCHDU: Convergence failed at  43  side 1    Res =  0.2013E-02
 MRCHDU: Convergence failed at  44  side 1    Res =  0.1870E-02
 MRCHDU: Convergence failed at  45  side 1    Res =  0.1977E-02
 MRCHDU: Convergence failed at  46  side 1    Res =  0.2376E-02
 MRCHDU: Convergence failed at  47  side 1    Res =  0.2616E-02
 MRCHDU: Convergence failed at  48  side 1    Res =  0.2256E-02
 MRCHDU: Convergence failed at  49  side 1    Res =  0.1117E-02
 MRCHDU: Convergence failed at  50  side 1    Res =  0.2611E-03
 MRCHDU: Convergence failed at  51  side 1    Res =  0.1346E-03
 MRCHDU: Convergence failed at  52  side 1    Res =  0.1254E-03
 MRCHDU: Convergence failed at  53  side 1    Res =  0.4745E-04
 MRCHDU: Convergence failed at  54  side 1    Res =  0.5048E-04
 MRCHDU: Convergence failed at  55  side 1    Res =  0.2239E-04
 MRCHDU: Convergence failed at  56  side 1    Res =  0.2088E-04
 MRCHDU: Convergence failed at  57  side 1    Res =  0.1291E-04
 MRCHDU: Convergence failed at  58  side 1    Res =  0.1299E-04
 MRCHDU: Convergence failed at  59  side 1    Res =  0.7674E-05
 MRCHDU: Convergence failed at  60  side 1    Res =  0.9648E-05
 MRCHDU: Convergence failed at  61  side 1    Res =  0.7535E-05
 MRCHDU: Convergence failed at  62  side 1    Res =  0.7425E-05
 MRCHDU: Convergence failed at  86  side 1    Res =  0.4109E-03
 MRCHDU: Convergence failed at  78  side 2    Res =  0.1497E-02
 MRCHDU: Convergence failed at  79  side 2    Res =  0.1587E-02
 Side 1  free  transition at x/c =  0.0845   19
 Side 2 forced transition at x/c =  1.0000   76

 122   rms: 0.4530E+07   max: -.8941E+08   T at   81  1   RLX: 0.000
       a = 10.250      CL =  1.9346
      Cm = -0.4156     CD =236.50038   =>   CDf =  0.00222    CDp =236.49817

 MRCHDU: Convergence failed at  26  side 1    Res =  0.3140E-01
 MRCHDU: Convergence failed at  27  side 1    Res =  0.1967E-01
 MRCHDU: Convergence failed at  28  side 1    Res =  0.1402E-01
 MRCHDU: Convergence failed at  29  side 1    Res =  0.1102E-01
 MRCHDU: Convergence failed at  30  side 1    Res =  0.9093E-02
 MRCHDU: Convergence failed at  31  side 1    Res =  0.7701E-02
 MRCHDU: Convergence failed at  32  side 1    Res =  0.6575E-02
 MRCHDU: Convergence failed at  33  side 1    Res =  0.5684E-02
 MRCHDU: Convergence failed at  34  side 1    Res =  0.5079E-02
 MRCHDU: Convergence failed at  35  side 1    Res =  0.4582E-02
 MRCHDU: Convergence failed at  36  side 1    Res =  0.4406E-02
 MRCHDU: Convergence failed at  37  side 1    Res =  0.4393E-02
 MRCHDU: Convergence failed at  38  side 1    Res =  0.3943E-02
 MRCHDU: Convergence failed at  39  side 1    Res =  0.3243E-02
 MRCHDU: Convergence failed at  40  side 1    Res =  0.2887E-02
 MRCHDU: Convergence failed at  41  side 1    Res =  0.2599E-02
 MRCHDU: Convergence failed at  42  side 1    Res =  0.2309E-02
 MRCHDU: Convergence failed at  43  side 1    Res =  0.2001E-02
 MRCHDU: Convergence failed at  44  side 1    Res =  0.1857E-02
 MRCHDU: Convergence failed at  45  side 1    Res =  0.1961E-02
 MRCHDU: Convergence failed at  46  side 1    Res =  0.2352E-02
 MRCHDU: Convergence failed at  47  side 1    Res =  0.2584E-02
 MRCHDU: Convergence failed at  48  side 1    Res =  0.2223E-02
 MRCHDU: Convergence failed at  49  side 1    Res =  0.1095E-02
 MRCHDU: Convergence failed at  50  side 1    Res =  0.2544E-03
 MRCHDU: Convergence failed at  51  side 1    Res =  0.1325E-03
 MRCHDU: Convergence failed at  52  side 1    Res =  0.1233E-03
 MRCHDU: Convergence failed at  53  side 1    Res =  0.4662E-04
 MRCHDU: Convergence failed at  54  side 1    Res =  0.4962E-04
 MRCHDU: Convergence failed at  55  side 1    Res =  0.2191E-04
 MRCHDU: Convergence failed at  56  side 1    Res =  0.2050E-04
 MRCHDU: Convergence failed at  57  side 1    Res =  0.1267E-04
 MRCHDU: Convergence failed at  58  side 1    Res =  0.1273E-04
 MRCHDU: Convergence failed at  59  side 1    Res =  0.7518E-05
 MRCHDU: Convergence failed at  60  side 1    Res =  0.9487E-05
 MRCHDU: Convergence failed at  61  side 1    Res =  0.7331E-05
 MRCHDU: Convergence failed at  62  side 1    Res =  0.7304E-05
 MRCHDU: Convergence failed at  86  side 1    Res =  0.4115E-03
 MRCHDU: Convergence failed at  78  side 2    Res =  0.1496E-02
 MRCHDU: Convergence failed at  79  side 2    Res =  0.1587E-02
 Side 1  free  transition at x/c =  0.0845   19
 Side 2 forced transition at x/c =  1.0000   76

 123   rms: 0.1186E+08   max: 0.2532E+09   T at   81  1   RLX: 0.000
       a = 10.250      CL =  1.9346
      Cm = -0.4155     CD =238.28246   =>   CDf =  0.00222    CDp =238.28024

 MRCHDU: Convergence failed at  26  side 1    Res =  0.3141E-01
 MRCHDU: Convergence failed at  27  side 1    Res =  0.1967E-01
 MRCHDU: Convergence failed at  28  side 1    Res =  0.1402E-01
 MRCHDU: Convergence failed at  29  side 1    Res =  0.1102E-01
 MRCHDU: Convergence failed at  30  side 1    Res =  0.9094E-02
 MRCHDU: Convergence failed at  31  side 1    Res =  0.7703E-02
 MRCHDU: Convergence failed at  32  side 1    Res =  0.6578E-02
 MRCHDU: Convergence failed at  33  side 1    Res =  0.5689E-02
 MRCHDU: Convergence failed at  34  side 1    Res =  0.5085E-02
 MRCHDU: Convergence failed at  35  side 1    Res =  0.4589E-02
 MRCHDU: Convergence failed at  36  side 1    Res =  0.4416E-02
 MRCHDU: Convergence failed at  37  side 1    Res =  0.4408E-02
 MRCHDU: Convergence failed at  38  side 1    Res =  0.3961E-02
 MRCHDU: Convergence failed at  39  side 1    Res =  0.3263E-02
 MRCHDU: Convergence failed at  40  side 1    Res =  0.2909E-02
 MRCHDU: Convergence failed at  41  side 1    Res =  0.2624E-02
 MRCHDU: Convergence failed at  42  side 1    Res =  0.2337E-02
 MRCHDU: Convergence failed at  43  side 1    Res =  0.2032E-02
 MRCHDU: Convergence failed at  44  side 1    Res =  0.1891E-02
 MRCHDU: Convergence failed at  45  side 1    Res =  0.2002E-02
 MRCHDU: Convergence failed at  46  side 1    Res =  0.2413E-02
 MRCHDU: Convergence failed at  47  side 1    Res =  0.2668E-02
 MRCHDU: Convergence failed at  48  side 1    Res =  0.2309E-02
 MRCHDU: Convergence failed at  49  side 1    Res =  0.1152E-02
 MRCHDU: Convergence failed at  50  side 1    Res =  0.2715E-03
 MRCHDU: Convergence failed at  51  side 1    Res =  0.1378E-03
 MRCHDU: Convergence failed at  52  side 1    Res =  0.1286E-03
 MRCHDU: Convergence failed at  53  side 1    Res =  0.4875E-04
 MRCHDU: Convergence failed at  54  side 1    Res =  0.5180E-04
 MRCHDU: Convergence failed at  55  side 1    Res =  0.2316E-04
 MRCHDU: Convergence failed at  56  side 1    Res =  0.2137E-04
 MRCHDU: Convergence failed at  57  side 1    Res =  0.1336E-04
 MRCHDU: Convergence failed at  58  side 1    Res =  0.1329E-04
 MRCHDU: Convergence failed at  59  side 1    Res =  0.7954E-05
 MRCHDU: Convergence failed at  60  side 1    Res =  0.9935E-05
 MRCHDU: Convergence failed at  61  side 1    Res =  0.7763E-05
 MRCHDU: Convergence failed at  62  side 1    Res =  0.7686E-05
 MRCHDU: Convergence failed at  86  side 1    Res =  0.4100E-03
 MRCHDU: Convergence failed at  78  side 2    Res =  0.1497E-02
 MRCHDU: Convergence failed at  79  side 2    Res =  0.1591E-02
 Side 1  free  transition at x/c =  0.0845   19
 Side 2 forced transition at x/c =  1.0000   76

 124   rms: 0.1824E+07   max: -.4855E+08   T at   83  1   RLX: 0.000
       a = 10.250      CL =  1.9347
      Cm = -0.4155     CD =238.83640   =>   CDf =  0.00222    CDp =238.83418

 MRCHDU: Convergence failed at  26  side 1    Res =  0.3141E-01
 MRCHDU: Convergence failed at  27  side 1    Res =  0.1967E-01
 MRCHDU: Convergence failed at  28  side 1    Res =  0.1402E-01
 MRCHDU: Convergence failed at  29  side 1    Res =  0.1102E-01
 MRCHDU: Convergence failed at  30  side 1    Res =  0.9094E-02
 MRCHDU: Convergence failed at  31  side 1    Res =  0.7703E-02
 MRCHDU: Convergence failed at  32  side 1    Res =  0.6578E-02
 MRCHDU: Convergence failed at  33  side 1    Res =  0.5688E-02
 MRCHDU: Convergence failed at  34  side 1    Res =  0.5084E-02
 MRCHDU: Convergence failed at  35  side 1    Res =  0.4588E-02
 MRCHDU: Convergence failed at  36  side 1    Res =  0.4414E-02
 MRCHDU: Convergence failed at  37  side 1    Res =  0.4405E-02
 MRCHDU: Convergence failed at  38  side 1    Res =  0.3959E-02
 MRCHDU: Convergence failed at  39  side 1    Res =  0.3260E-02
 MRCHDU: Convergence failed at  40  side 1    Res =  0.2905E-02
 MRCHDU: Convergence failed at  41  side 1    Res =  0.2621E-02
 MRCHDU: Convergence failed at  42  side 1    Res =  0.2333E-02
 MRCHDU: Convergence failed at  43  side 1    Res =  0.2027E-02
 MRCHDU: Convergence failed at  44  side 1    Res =  0.1886E-02
 MRCHDU: Convergence failed at  45  side 1    Res =  0.1996E-02
 MRCHDU: Convergence failed at  46  side 1    Res =  0.2403E-02
 MRCHDU: Convergence failed at  47  side 1    Res =  0.2655E-02
 MRCHDU: Convergence failed at  48  side 1    Res =  0.2296E-02
 MRCHDU: Convergence failed at  49  side 1    Res =  0.1143E-02
 MRCHDU: Convergence failed at  50  side 1    Res =  0.2687E-03
 MRCHDU: Convergence failed at  51  side 1    Res =  0.1369E-03
 MRCHDU: Convergence failed at  52  side 1    Res =  0.1277E-03
 MRCHDU: Convergence failed at  53  side 1    Res =  0.4838E-04
 MRCHDU: Convergence failed at  54  side 1    Res =  0.5145E-04
 MRCHDU: Convergence failed at  55  side 1    Res =  0.2294E-04
 MRCHDU: Convergence failed at  56  side 1    Res =  0.2122E-04
 MRCHDU: Convergence failed at  57  side 1    Res =  0.1325E-04
 MRCHDU: Convergence failed at  58  side 1    Res =  0.1319E-04
 MRCHDU: Convergence failed at  59  side 1    Res =  0.7889E-05
 MRCHDU: Convergence failed at  60  side 1    Res =  0.9851E-05
 MRCHDU: Convergence failed at  61  side 1    Res =  0.7709E-05
 MRCHDU: Convergence failed at  62  side 1    Res =  0.7592E-05
 MRCHDU: Convergence failed at  86  side 1    Res =  0.4103E-03
 MRCHDU: Convergence failed at  78  side 2    Res =  0.1497E-02
 MRCHDU: Convergence failed at  79  side 2    Res =  0.1592E-02
 Side 1  free  transition at x/c =  0.0845   19
 Side 2 forced transition at x/c =  1.0000   76

 125   rms: 0.2714E+08   max: 0.7099E+09   T at   81  1   RLX: 0.000
       a = 10.250      CL =  1.9347
      Cm = -0.4155     CD =240.67154   =>   CDf =  0.00222    CDp =240.66933

 MRCHDU: Convergence failed at  26  side 1    Res =  0.3141E-01
 MRCHDU: Convergence failed at  27  side 1    Res =  0.1967E-01
 MRCHDU: Convergence failed at  28  side 1    Res =  0.1402E-01
 MRCHDU: Convergence failed at  29  side 1    Res =  0.1102E-01
 MRCHDU: Convergence failed at  30  side 1    Res =  0.9094E-02
 MRCHDU: Convergence failed at  31  side 1    Res =  0.7703E-02
 MRCHDU: Convergence failed at  32  side 1    Res =  0.6578E-02
 MRCHDU: Convergence failed at  33  side 1    Res =  0.5688E-02
 MRCHDU: Convergence failed at  34  side 1    Res =  0.5084E-02
 MRCHDU: Convergence failed at  35  side 1    Res =  0.4588E-02
 MRCHDU: Convergence failed at  36  side 1    Res =  0.4414E-02
 MRCHDU: Convergence failed at  37  side 1    Res =  0.4405E-02
 MRCHDU: Convergence failed at  38  side 1    Res =  0.3958E-02
 MRCHDU: Convergence failed at  39  side 1    Res =  0.3259E-02
 MRCHDU: Convergence failed at  40  side 1    Res =  0.2905E-02
 MRCHDU: Convergence failed at  41  side 1    Res =  0.2620E-02

[TIMEOUT]
