
 ===================================================
  XFOIL Version 6.99
  Copyright (C) 2000   Mark Drela, Harold Youngren

  This software comes with ABSOLUTELY NO WARRANTY,
    subject to the GNU General Public License.

  Caveat computor
 ===================================================

 File  xfoil.def  not found

   QUIT    Exit program

  .OPER    Direct operating point(s)
  .MDES    Complex mapping design routine
  .QDES    Surface speed design routine
  .GDES    Geometry design routine

   SAVE f  Write airfoil to labeled coordinate file
   PSAV f  Write airfoil to plain coordinate file
   ISAV f  Write airfoil to ISES coordinate file
   MSAV f  Write airfoil to MSES coordinate file
   REVE    Reverse written-airfoil node ordering

   LOAD f  Read buffer airfoil from coordinate file
   NACA i  Set NACA 4,5-digit airfoil and buffer airfoil
   INTE    Set buffer airfoil by interpolating two airfoils
   NORM    Buffer airfoil normalization toggle
   XYCM rr Change CM reference location, currently  0.25000 0.00000

   BEND    Display structural properties of current airfoil

   PCOP    Set current-airfoil panel nodes directly from buffer airfoil points
   PANE    Set current-airfoil panel nodes ( 160 ) based on curvature
  .PPAR    Show/change paneling

  .PLOP    Plotting options

   WDEF f  Write  current-settings file
   RDEF f  Reread current-settings file
   NAME s  Specify new airfoil name
   NINC    Increment name version number

   Z       Zoom    | (available in all menus)
   U       Unzoom  | 

 XFOIL   c>  
 Labeled airfoil file.  Name:  LWK 80-080                                      

 Number of input coordinate points:  97
 Counterclockwise ordering
 Max thickness =     0.080620  at x =   0.402
 Max camber    =     0.000000  at x =   0.750

  LE  x,y  =   0.00000   0.00000  |   Chord =   1.00000
  TE  x,y  =   1.00000   0.00000  |

 Current airfoil nodes set from buffer airfoil nodes (  97 )

 XFOIL   c>  
 XFOIL   c>  
 Sharp trailing edge

 Paneling parameters used...
   Number of panel nodes       160
   Panel bunching parameter    1.000
   TE/LE panel density ratio   0.150
   Refined-area/LE panel density ratio    0.200
   Top    side refined area x/c limits  1.000 1.000
   Bottom side refined area x/c limits  1.000 1.000

 XFOIL   c>  
.OPERi   c>  
 Xtr/c     =  1.0000    top    side
 Xtr/c     =  1.0000    bottom side
 Ncrit     =    9.00   ( 0.070 % turb. level )
 Vacc      =  0.0100

 Klag  =  5.6000     Uxwt  =    1.00
 A     =  6.7000     B     =  0.7500       KCt = 0.01485
 CtiniK=  1.8000     CtiniX=  3.3000

..VPAR   c>  
..VPAR   c>  
.OPERi   c>  
 M  =    0.0000
 Re =    150000

.OPERv   c>  
.OPERv   c>  
.OPERv   c>  
 Polar  1 newly created for accumulation
 Airfoil archived with polar: LWK 80-080                                      

Enter  polar save filename  OR  <return> for no file   s>  
 New polar save file available

Enter  polar dump filename  OR  <return> for no file   s>  
 Polar dump file will NOT be written

 Polar accumulation enabled

.OPERva   c>   Calculating unit vorticity distributions ...
 Calculating wake trajectory ...
 Calculating source influence matrix ...

 Solving BL system ...

 Initializing BL ...
    side            1  ...
 MRCHUE: Inverse mode at  57     Hk =   3.800
 MRCHUE: Inverse mode at  58     Hk =   4.084
 MRCHUE: Inverse mode at  59     Hk =   4.363
 MRCHUE: Inverse mode at  60     Hk =   4.637
 MRCHUE: Inverse mode at  61     Hk =   4.908
 MRCHUE: Inverse mode at  62     Hk =   5.173
 MRCHUE: Inverse mode at  63     Hk =   5.435
 MRCHUE: Inverse mode at  64     Hk =   5.693
 MRCHUE: Inverse mode at  65     Hk =   5.948
 MRCHUE: Inverse mode at  66     Hk =   6.200
 MRCHUE: Inverse mode at  67     Hk =   6.450
 MRCHUE: Inverse mode at  68     Hk =   6.698
 MRCHUE: Inverse mode at  69     Hk =   6.943
 MRCHUE: Inverse mode at  70     Hk =   7.186
 MRCHUE: Inverse mode at  71     Hk =   7.428
 MRCHUE: Inverse mode at  72     Hk =   7.668
 MRCHUE: Inverse mode at  73     Hk =   7.901
 MRCHUE: Inverse mode at  74     Hk =   8.114
 MRCHUE: Inverse mode at  75     Hk =   8.272
 MRCHUE: Inverse mode at  76     Hk =   8.384
 MRCHUE: Inverse mode at  77     Hk =   8.444
    side            2  ...
 MRCHUE: Inverse mode at   9     Hk =   3.800
 MRCHUE: Inverse mode at  10     Hk =   4.779
 MRCHUE: Inverse mode at  11     Hk =   5.881
 MRCHUE: Inverse mode at  12     Hk =   7.158
 MRCHUE: Inverse mode at  13     Hk =   8.474
 MRCHUE: Inverse mode at  14     Hk =   9.719
 MRCHUE: Inverse mode at  15     Hk =  10.879
 MRCHUE: Inverse mode at  16     Hk =   6.169
 MRCHUE: Inverse mode at  17     Hk =   3.938
 MRCHUE: Inverse mode at  18     Hk =   2.547
 MRCHUE: Convergence failed at  85  side 2    Res =  0.2086E+01
 MRCHUE: Convergence failed at  87  side 2    Res =  0.2136E-01

 MRCHDU: Convergence failed at  87  side 2    Res =  0.1023E+00
 MRCHDU: Convergence failed at  88  side 2    Res =  0.2068E+00
 MRCHDU: Convergence failed at  89  side 2    Res =  0.2507E+00
 MRCHDU: Convergence failed at  90  side 2    Res =  0.2733E+00
 MRCHDU: Convergence failed at  91  side 2    Res =  0.2841E+00
 MRCHDU: Convergence failed at  92  side 2    Res =  0.2869E+00
 MRCHDU: Convergence failed at  93  side 2    Res =  0.2834E+00
 MRCHDU: Convergence failed at  94  side 2    Res =  0.2741E+00
 MRCHDU: Convergence failed at  95  side 2    Res =  0.2590E+00
 MRCHDU: Convergence failed at  96  side 2    Res =  0.2379E+00
 MRCHDU: Convergence failed at  97  side 2    Res =  0.2108E+00
 MRCHDU: Convergence failed at  98  side 2    Res =  0.1777E+00
 MRCHDU: Convergence failed at  99  side 2    Res =  0.1390E+00
 MRCHDU: Convergence failed at 100  side 2    Res =  0.9588E-01
 Side 1 forced transition at x/c =  1.0000   77
 Side 2  free  transition at x/c =  0.0591   16

   1   rms: 0.4395E+00   max: 0.2893E+01   D at  100  2   RLX: 0.474
       a = -4.000      CL = -0.5501
      Cm =  0.0132     CD =  0.00899   =>   CDf =  0.00848    CDp =  0.00051

 MRCHDU: Convergence failed at  16  side 2    Res =  0.5234E+01
 MRCHDU: Convergence failed at  17  side 2    Res =  0.2038E+03
 MRCHDU: Convergence failed at  18  side 2    Res =  0.8236E+01
 MRCHDU: Convergence failed at  19  side 2    Res =  0.7916E+01
 MRCHDU: Convergence failed at  20  side 2    Res =  0.8970E+01
 MRCHDU: Convergence failed at  21  side 2    Res =  0.1114E+02
 MRCHDU: Convergence failed at  22  side 2    Res =  0.1409E+02
 MRCHDU: Convergence failed at  23  side 2    Res =  0.1807E+02
 MRCHDU: Convergence failed at  24  side 2    Res =  0.2486E+02
 MRCHDU: Convergence failed at  25  side 2    Res =  0.4450E+02
 MRCHDU: Convergence failed at  26  side 2    Res =  0.3955E+02
 MRCHDU: Convergence failed at  27  side 2    Res =  0.3704E+02
 MRCHDU: Convergence failed at  28  side 2    Res =  0.3502E+02
 MRCHDU: Convergence failed at  29  side 2    Res =  0.3368E+02
 MRCHDU: Convergence failed at  30  side 2    Res =  0.3193E+02
 MRCHDU: Convergence failed at  31  side 2    Res =  0.3067E+02
 MRCHDU: Convergence failed at  32  side 2    Res =  0.3375E+02
 MRCHDU: Convergence failed at  33  side 2    Res =  0.3355E+02
 MRCHDU: Convergence failed at  34  side 2    Res =  0.3188E+02
 MRCHDU: Convergence failed at  35  side 2    Res =  0.3111E+02
 MRCHDU: Convergence failed at  36  side 2    Res =  0.3009E+02
 MRCHDU: Convergence failed at  37  side 2    Res =  0.3090E+02
 MRCHDU: Convergence failed at  38  side 2    Res =  0.2988E+02
 MRCHDU: Convergence failed at  39  side 2    Res =  0.2934E+02
 MRCHDU: Convergence failed at  40  side 2    Res =  0.2834E+02
 MRCHDU: Convergence failed at  41  side 2    Res =  0.7968E+02
 MRCHDU: Convergence failed at  42  side 2    Res =  0.7055E+02
 MRCHDU: Convergence failed at  43  side 2    Res =  0.6909E+02
 MRCHDU: Convergence failed at  44  side 2    Res =  0.6103E+02
 MRCHDU: Convergence failed at  45  side 2    Res =  0.6292E+02
 MRCHDU: Convergence failed at  46  side 2    Res =  0.5925E+02
 MRCHDU: Convergence failed at  47  side 2    Res =  0.5610E+02
 MRCHDU: Convergence failed at  48  side 2    Res =  0.5303E+02
 MRCHDU: Convergence failed at  49  side 2    Res =  0.5104E+02
 MRCHDU: Convergence failed at  50  side 2    Res =  0.4794E+02
 MRCHDU: Convergence failed at  51  side 2    Res =  0.4420E+02
 MRCHDU: Convergence failed at  52  side 2    Res =  0.4063E+02
 MRCHDU: Convergence failed at  53  side 2    Res =  0.3789E+02
 MRCHDU: Convergence failed at  54  side 2    Res =  0.3535E+02
 MRCHDU: Convergence failed at  55  side 2    Res =  0.3161E+02
 MRCHDU: Convergence failed at  56  side 2    Res =  0.2852E+02
 MRCHDU: Convergence failed at  57  side 2    Res =  0.2525E+02
 MRCHDU: Convergence failed at  58  side 2    Res =  0.2197E+02
 MRCHDU: Convergence failed at  59  side 2    Res =  0.3405E+02
 MRCHDU: Convergence failed at  60  side 2    Res =  0.9371E+03
 MRCHDU: Convergence failed at  61  side 2    Res =  0.8854E+02
 MRCHDU: Convergence failed at  62  side 2    Res =  0.3156E+02
 MRCHDU: Convergence failed at  63  side 2    Res =  0.4701E+02
 MRCHDU: Convergence failed at  64  side 2    Res =  0.2987E+02
 MRCHDU: Convergence failed at  65  side 2    Res =  0.2081E+02
 MRCHDU: Convergence failed at  66  side 2    Res =  0.2399E+02
 MRCHDU: Convergence failed at  67  side 2    Res =  0.6302E+02
 MRCHDU: Convergence failed at  68  side 2    Res =  0.6659E+02
 MRCHDU: Convergence failed at  69  side 2    Res =  0.7535E+02
 MRCHDU: Convergence failed at  70  side 2    Res =  0.6931E+02
 MRCHDU: Convergence failed at  71  side 2    Res =  0.7507E+02
 MRCHDU: Convergence failed at  72  side 2    Res =  0.2352E+02
 MRCHDU: Convergence failed at  73  side 2    Res =  0.3539E+02
 MRCHDU: Convergence failed at  74  side 2    Res =  0.2484E+02
 MRCHDU: Convergence failed at  75  side 2    Res =  0.7554E+02
 MRCHDU: Convergence failed at  76  side 2    Res =  0.5314E+02
 MRCHDU: Convergence failed at  77  side 2    Res =  0.2245E+03
 MRCHDU: Convergence failed at  78  side 2    Res =  0.6400E+02
 MRCHDU: Convergence failed at  79  side 2    Res =  0.1112E+03
 MRCHDU: Convergence failed at  80  side 2    Res =  0.3158E+02
 MRCHDU: Convergence failed at  81  side 2    Res =  0.1087E+03
 MRCHDU: Convergence failed at  82  side 2    Res =  0.2632E+02
 MRCHDU: Convergence failed at  83  side 2    Res =  0.1223E+03
 MRCHDU: Convergence failed at  84  side 2    Res =  0.4333E+02
 MRCHDU: Convergence failed at  85  side 2    Res =  0.3850E+02
 Side 1 forced transition at x/c =  1.0000   77
 Side 2  free  transition at x/c =  0.0558   15

   2   rms: 0.9266E+00   max: -.6122E+01   T at   15  2   RLX: 0.082
       a = -4.000      CL = -1.5605
      Cm =  0.3512     CD =  0.00371   =>   CDf =  0.00279    CDp =  0.00091

 MRCHDU: Convergence failed at  29  side 2    Res =  0.2247E+00
 MRCHDU: Convergence failed at  30  side 2    Res =  0.2154E+00
 MRCHDU: Convergence failed at  31  side 2    Res =  0.2074E+00
 MRCHDU: Convergence failed at  32  side 2    Res =  0.1983E+00
 MRCHDU: Convergence failed at  33  side 2    Res =  0.1897E+00
 MRCHDU: Convergence failed at  34  side 2    Res =  0.1799E+00
 MRCHDU: Convergence failed at  35  side 2    Res =  0.1706E+00
 MRCHDU: Convergence failed at  36  side 2    Res =  0.1600E+00
 MRCHDU: Convergence failed at  37  side 2    Res =  0.1491E+00
 MRCHDU: Convergence failed at  38  side 2    Res =  0.1361E+00
 MRCHDU: Convergence failed at  39  side 2    Res =  0.1216E+00
 MRCHDU: Convergence failed at  40  side 2    Res =  0.9805E-01
 MRCHDU: Convergence failed at  64  side 2    Res =  0.4937E-01
 MRCHDU: Convergence failed at  65  side 2    Res =  0.2068E-03
 Side 1 forced transition at x/c =  1.0000   77
 Side 2  free  transition at x/c =  0.0654   16

   3   rms: 0.7378E+00   max: -.5224E+01   T at   16  2   RLX: 0.096
       a = -4.000      CL = -1.0708
      Cm =  0.2187     CD =  0.01516   =>   CDf =  0.00506    CDp =  0.01009

 MRCHDU: Convergence failed at  40  side 2    Res =  0.7702E+00
 MRCHDU: Convergence failed at  41  side 2    Res =  0.1148E+01
 MRCHDU: Convergence failed at  42  side 2    Res =  0.5676E+00
 MRCHDU: Convergence failed at  43  side 2    Res =  0.5270E+00
 MRCHDU: Convergence failed at  44  side 2    Res =  0.4673E+00
 MRCHDU: Convergence failed at  45  side 2    Res =  0.4040E+00
 MRCHDU: Convergence failed at  46  side 2    Res =  0.3360E+00
 MRCHDU: Convergence failed at  47  side 2    Res =  0.2611E+00
 MRCHDU: Convergence failed at  48  side 2    Res =  0.1739E+00
 MRCHDU: Convergence failed at  49  side 2    Res =  0.5644E-01
 MRCHDU: Convergence failed at  64  side 2    Res =  0.3942E+00
 MRCHDU: Convergence failed at  65  side 2    Res =  0.1047E+01
 Side 1 forced transition at x/c =  1.0000   77
 Side 2  free  transition at x/c =  0.0818   17

   4   rms: 0.1961E+01   max: 0.2109E+02   T at   17  2   RLX: 0.029
       a = -4.000      CL = -0.8181
      Cm =  0.1103     CD =  0.02069   =>   CDf =  0.00461    CDp =  0.01609

 MRCHDU: Convergence failed at  49  side 2    Res =  0.2143E+00
 MRCHDU: Convergence failed at  50  side 2    Res =  0.6488E+00
 Side 1 forced transition at x/c =  1.0000   77
 Side 2  free  transition at x/c =  0.0710   17

   5   rms: 0.6270E+00   max: -.2816E+01   D at   19  2   RLX: 0.178
       a = -4.000      CL = -0.6355
      Cm =  0.0255     CD =  0.02533   =>   CDf =  0.00413    CDp =  0.02120

 MRCHDU: Convergence failed at  17  side 2    Res =  0.4899E+02
 Side 1 forced transition at x/c =  1.0000   77
 Side 2  free  transition at x/c =  0.0679   16

   6   rms: 0.4287E+01   max: 0.4923E+02   T at   16  2   RLX: 0.022
       a = -4.000      CL = -0.6572
      Cm =  0.0035     CD =  0.02677   =>   CDf =  0.00395    CDp =  0.02283

 MRCHDU: Convergence failed at  16  side 2    Res =  0.7724E+02
 Side 1 forced transition at x/c =  1.0000   77
 Side 2  free  transition at x/c =  0.0528   15

   7   rms: 0.1085E+01   max: 0.8632E+01   T at   15  2   RLX: 0.138
       a = -4.000      CL = -0.7678
      Cm =  0.0166     CD =  0.02382   =>   CDf =  0.00356    CDp =  0.02026

 Side 1 forced transition at x/c =  1.0000   77
 Side 2  free  transition at x/c =  0.0426   14

   8   rms: 0.1667E+01   max: -.5135E+01   D at   44  2   RLX: 0.097
       a = -4.000      CL = -0.8236
      Cm =  0.0150     CD =  0.02140   =>   CDf =  0.00337    CDp =  0.01803

 Side 1 forced transition at x/c =  1.0000   77
 Side 2  free  transition at x/c =  0.0397   14
 idif Ue xi dudx           1  0.37443614      5.38891554E-03   69.482651    
 Uenew xinew           2  9.38047171E-02  1.35004520E-03

   9   rms: 0.1317E+01   max: -.4093E+01   D at   56  2   RLX: 0.122
       a = -4.000      CL = -0.9299
      Cm =  0.0151     CD =  0.02318   =>   CDf =  0.00312    CDp =  0.02006

 Side 1 forced transition at x/c =  1.0000   76
 Side 2  free  transition at x/c =  0.0399   15

  10   rms: 0.7635E+00   max: 0.2540E+01   D at   21  2   RLX: 0.207
       a = -4.000      CL = -1.0237
      Cm =  0.0222     CD =  0.02734   =>   CDf =  0.00367    CDp =  0.02367

 Side 1 forced transition at x/c =  1.0000   76
 Side 2  free  transition at x/c =  0.0482   16

  11   rms: 0.6685E+00   max: 0.3655E+01   T at   16  2   RLX: 0.275
       a = -4.000      CL = -1.1802
      Cm =  0.0576     CD =  0.03528   =>   CDf =  0.00414    CDp =  0.03114

 TRCHEK2: N2 convergence failed.
 x:  0.08007  0.09133  0.09341  N:  8.616  9.000  9.044  Nx:  41.213   dN:-0.442E+00
 TRCHEK2: N2 convergence failed.
 x:  0.08007  0.09236  0.09341  N:  8.616  9.000  9.055  Nx:  32.632   dN: 0.412E-01
 TRCHEK2: N2 convergence failed.
 x:  0.08007  0.09230  0.09341  N:  8.616  9.000  9.058  Nx:  33.960   dN: 0.465E+01
 TRCHEK2: N2 convergence failed.
 x:  0.08007  0.09341  0.09341  N:  8.616  9.000  9.118  Nx:  37.579   dN: 0.118E+00
 TRCHEK2: N2 convergence failed.
 x:  0.08007  0.09210  0.09341  N:  8.616  9.000  9.018  Nx:  41.319   dN:-0.994E-01
 TRCHEK2: N2 convergence failed.
 x:  0.08007  0.09341  0.09341  N:  8.616  9.000  9.048  Nx:  32.301   dN: 0.475E-01
 TRCHEK2: N2 convergence failed.
 x:  0.08007  0.09249  0.09341  N:  8.616  9.000  9.051  Nx:  32.498   dN: 0.698E-01
 TRCHEK2: N2 convergence failed.
 x:  0.08007  0.09230  0.09341  N:  8.616  9.000  9.012  Nx:  34.628   dN:-0.253E-01
 TRCHEK2: N2 convergence failed.
 x:  0.08007  0.09236  0.09341  N:  8.616  9.000  9.055  Nx:  32.572   dN: 0.212E+00
 TRCHEK2: N2 convergence failed.
 x:  0.08007  0.09250  0.09341  N:  8.616  9.000  9.006  Nx:  32.672   dN:-0.109E+00
 TRCHEK2: N2 convergence failed.
 x:  0.08007  0.09298  0.09341  N:  8.616  9.000  9.033  Nx:  32.310   dN: 0.346E-01
 TRCHEK2: N2 convergence failed.
 x:  0.08007  0.09253  0.09341  N:  8.616  9.000  9.047  Nx:  32.315   dN: 0.203E-01
 TRCHEK2: N2 convergence failed.
 x:  0.08007  0.09245  0.09341  N:  8.616  9.000  9.048  Nx:  32.318   dN: 0.177E-01
 TRCHEK2: N2 convergence failed.
 x:  0.08007  0.09269  0.09341  N:  8.616  9.000  9.043  Nx:  32.315   dN: 0.256E-01
 TRCHEK2: N2 convergence failed.
 x:  0.08007  0.09245  0.09341  N:  8.616  9.000  9.048  Nx:  32.318   dN: 0.178E-01
 TRCHEK2: N2 convergence failed.
 x:  0.08007  0.09228  0.09341  N:  8.616  9.000  9.024  Nx:  33.027   dN:-0.119E-01
 TRCHEK2: N2 convergence failed.
 x:  0.08007  0.09245  0.09341  N:  8.616  9.000  9.048  Nx:  32.318   dN: 0.177E-01
 TRCHEK2: N2 convergence failed.
 x:  0.08007  0.09210  0.09341  N:  8.616  9.000  9.033  Nx:  34.882   dN:-0.837E-02
 TRCHEK2: N2 convergence failed.
 x:  0.08007  0.09245  0.09341  N:  8.616  9.000  9.048  Nx:  32.318   dN: 0.178E-01
 MRCHDU: Convergence failed at  17  side 2    Res =  0.3094E+03
 MRCHDU: Convergence failed at  18  side 2    Res =  0.3709E+03
 MRCHDU: Convergence failed at  19  side 2    Res =  0.2000E+02
 MRCHDU: Convergence failed at  20  side 2    Res =  0.4714E+02
 MRCHDU: Convergence failed at  21  side 2    Res =  0.2205E+02
 MRCHDU: Convergence failed at  22  side 2    Res =  0.3118E+03
 MRCHDU: Convergence failed at  23  side 2    Res =  0.2945E+03
 MRCHDU: Convergence failed at  24  side 2    Res =  0.6548E+02
 MRCHDU: Convergence failed at  25  side 2    Res =  0.1110E+03
 MRCHDU: Convergence failed at  26  side 2    Res =  0.5536E+02
 MRCHDU: Convergence failed at  27  side 2    Res =  0.1190E+04
 MRCHDU: Convergence failed at  28  side 2    Res =  0.5194E+03
 MRCHDU: Convergence failed at  29  side 2    Res =  0.1206E+04
 MRCHDU: Convergence failed at  30  side 2    Res =  0.5929E+03
 MRCHDU: Convergence failed at  31  side 2    Res =  0.5841E+03
 MRCHDU: Convergence failed at  32  side 2    Res =  0.6443E+03
 MRCHDU: Convergence failed at  33  side 2    Res =  0.7433E+03
 MRCHDU: Convergence failed at  34  side 2    Res =  0.1220E+04
 MRCHDU: Convergence failed at  35  side 2    Res =  0.1063E+04
 MRCHDU: Convergence failed at  36  side 2    Res =  0.9866E+03
 MRCHDU: Convergence failed at  37  side 2    Res =  0.9426E+03
 MRCHDU: Convergence failed at  38  side 2    Res =  0.9237E+03
 MRCHDU: Convergence failed at  39  side 2    Res =  0.9391E+03
 MRCHDU: Convergence failed at  40  side 2    Res =  0.1005E+04
 MRCHDU: Convergence failed at  41  side 2    Res =  0.9452E+03
 MRCHDU: Convergence failed at  42  side 2    Res =  0.8879E+03
 MRCHDU: Convergence failed at  43  side 2    Res =  0.8367E+03
 MRCHDU: Convergence failed at  44  side 2    Res =  0.8355E+03
 MRCHDU: Convergence failed at  45  side 2    Res =  0.8348E+03
 MRCHDU: Convergence failed at  46  side 2    Res =  0.8335E+03
 MRCHDU: Convergence failed at  47  side 2    Res =  0.8217E+03
 MRCHDU: Convergence failed at  48  side 2    Res =  0.8020E+03
 MRCHDU: Convergence failed at  49  side 2    Res =  0.8022E+03
 MRCHDU: Convergence failed at  50  side 2    Res =  0.9099E+03
 MRCHDU: Convergence failed at  51  side 2    Res =  0.1033E+04
 MRCHDU: Convergence failed at  52  side 2    Res =  0.1286E+04
 MRCHDU: Convergence failed at  53  side 2    Res =  0.1236E+04
 MRCHDU: Convergence failed at  54  side 2    Res =  0.1449E+04
 MRCHDU: Convergence failed at  55  side 2    Res =  0.1789E+04
 MRCHDU: Convergence failed at  56  side 2    Res =  0.2375E+04
 MRCHDU: Convergence failed at  57  side 2    Res =  0.4013E+04
 MRCHDU: Convergence failed at  58  side 2    Res =  0.1755E+06
 MRCHDU: Convergence failed at  59  side 2    Res =  0.2309E+04
 MRCHDU: Convergence failed at  60  side 2    Res =  0.1216E+04
 MRCHDU: Convergence failed at  61  side 2    Res =  0.7812E+03
 MRCHDU: Convergence failed at  62  side 2    Res =  0.5620E+03
 MRCHDU: Convergence failed at  63  side 2    Res =  0.5239E+03
 MRCHDU: Convergence failed at  64  side 2    Res =  0.5146E+03
 MRCHDU: Convergence failed at  65  side 2    Res =  0.4951E+03
 MRCHDU: Convergence failed at  66  side 2    Res =  0.4723E+03
 MRCHDU: Convergence failed at  67  side 2    Res =  0.3823E+03
 MRCHDU: Convergence failed at  68  side 2    Res =  0.3447E+03
 MRCHDU: Convergence failed at  69  side 2    Res =  0.3389E+03
 MRCHDU: Convergence failed at  70  side 2    Res =  0.3093E+03
 MRCHDU: Convergence failed at  71  side 2    Res =  0.2861E+03
 MRCHDU: Convergence failed at  72  side 2    Res =  0.2573E+03
 MRCHDU: Convergence failed at  73  side 2    Res =  0.2481E+03
 MRCHDU: Convergence failed at  74  side 2    Res =  0.2461E+03
 MRCHDU: Convergence failed at  75  side 2    Res =  0.7435E+03
 MRCHDU: Convergence failed at  76  side 2    Res =  0.7153E+03
 MRCHDU: Convergence failed at  77  side 2    Res =  0.6791E+03
 MRCHDU: Convergence failed at  78  side 2    Res =  0.6337E+03
 MRCHDU: Convergence failed at  79  side 2    Res =  0.5832E+03
 MRCHDU: Convergence failed at  80  side 2    Res =  0.5317E+03
 MRCHDU: Convergence failed at  81  side 2    Res =  0.4780E+03
 MRCHDU: Convergence failed at  82  side 2    Res =  0.4260E+03
 MRCHDU: Convergence failed at  83  side 2    Res =  0.3738E+03
 MRCHDU: Convergence failed at  84  side 2    Res =  0.3080E+03
 MRCHDU: Convergence failed at  85  side 2    Res =  0.2822E+03
 MRCHDU: Convergence failed at  86  side 2    Res =  0.2652E+03
 MRCHDU: Convergence failed at  88  side 2    Res =  0.2795E+01
 MRCHDU: Convergence failed at  89  side 2    Res =  0.4314E+01
 MRCHDU: Convergence failed at  90  side 2    Res =  0.4333E+01
 MRCHDU: Convergence failed at  91  side 2    Res =  0.4015E+01
 MRCHDU: Convergence failed at  92  side 2    Res =  0.3682E+01
 MRCHDU: Convergence failed at  93  side 2    Res =  0.3355E+01
 MRCHDU: Convergence failed at  94  side 2    Res =  0.3133E+01
 MRCHDU: Convergence failed at  95  side 2    Res =  0.2975E+01
 MRCHDU: Convergence failed at  96  side 2    Res =  0.2909E+01
 MRCHDU: Convergence failed at  97  side 2    Res =  0.2819E+01
 MRCHDU: Convergence failed at  98  side 2    Res =  0.2783E+01
 MRCHDU: Convergence failed at  99  side 2    Res =  0.2732E+01
 MRCHDU: Convergence failed at 100  side 2    Res =  0.2498E+01
 MRCHDU: Convergence failed at 101  side 2    Res =  0.5066E+01
 MRCHDU: Convergence failed at 102  side 2    Res =  0.4248E+01
 MRCHDU: Convergence failed at 103  side 2    Res =  0.3493E+01
 MRCHDU: Convergence failed at 104  side 2    Res =  0.2772E+01
 MRCHDU: Convergence failed at 105  side 2    Res =  0.2013E+01
 MRCHDU: Convergence failed at 106  side 2    Res =  0.1302E+01
 MRCHDU: Convergence failed at 107  side 2    Res =  0.7250E+00
 MRCHDU: Convergence failed at 108  side 2    Res =  0.2734E+00
 Side 1  free  transition at x/c =  0.9998   76
 Side 2  free  transition at x/c =  0.0661   17

  12   rms: 0.2408E+01   max: -.3180E+02   T at   17  2   RLX: 0.016
       a = -4.000      CL = -3.8888
      Cm =  0.9446     CD =  0.00220   =>   CDf =  0.00107    CDp =  0.00113

 MRCHDU: Convergence failed at 107  side 2    Res =  0.7016E+03
 MRCHDU: Convergence failed at 108  side 2    Res =  0.4114E+03
 Side 1 forced transition at x/c =  1.0000   76
 Side 2  free  transition at x/c =  0.0623   17

  13   rms: 0.1926E+01   max: 0.2259E+02   T at   17  2   RLX: 0.066
       a = -4.000      CL = -3.0413
      Cm =  0.6838     CD =  0.02798   =>   CDf =  0.00195    CDp =  0.02602

 Side 1  free  transition at x/c =  0.9991   76
 Side 2  free  transition at x/c =  0.0445   15

  14   rms: 0.4204E+01   max: -.3339E+02   T at   16  2   RLX: 0.015
       a = -4.000      CL = -2.9522
      Cm =  0.6725     CD =  0.03904   =>   CDf =  0.00214    CDp =  0.03690

 Side 1  free  transition at x/c =  0.9989   76
 Side 2  free  transition at x/c =  0.0484   16

  15   rms: 0.1725E+01   max: -.8165E+01   T at   16  2   RLX: 0.061
       a = -4.000      CL = -2.7691
      Cm =  0.6329     CD =  0.02827   =>   CDf =  0.00214    CDp =  0.02613

 Side 1  free  transition at x/c =  0.9992   76
 Side 2  free  transition at x/c =  0.0464   16

  16   rms: 0.1699E+01   max: 0.1708E+02   T at   16  2   RLX: 0.088
       a = -4.000      CL = -2.4789
      Cm =  0.5633     CD =  0.01682   =>   CDf =  0.00229    CDp =  0.01453

 Side 1 forced transition at x/c =  1.0000   76
 Side 2  free  transition at x/c =  0.0415   15

  17   rms: 0.1485E+01   max: 0.5162E+01   T at   15  2   RLX: 0.118
       a = -4.000      CL = -2.0898
      Cm =  0.4670     CD =  0.00928   =>   CDf =  0.00281    CDp =  0.00647

 Side 1 forced transition at x/c =  1.0000   77
 Side 2  free  transition at x/c =  0.0404   14

  18   rms: 0.1498E+01   max: -.9906E+01   D at    2  1   RLX: 0.050
       a = -4.000      CL = -1.9749
      Cm =  0.4393     CD =  0.01264   =>   CDf =  0.00269    CDp =  0.00995

 Side 1 forced transition at x/c =  1.0000   77
 Side 2  free  transition at x/c =  0.0416   14

  19   rms: 0.1319E+01   max: -.4821E+01   T at   86  2   RLX: 0.104
       a = -4.000      CL = -1.7257
      Cm =  0.3809     CD =  0.00996   =>   CDf =  0.00276    CDp =  0.00720

 Side 1 forced transition at x/c =  1.0000   77
 Side 2  free  transition at x/c =  0.0494   15

  20   rms: 0.1414E+01   max: -.1359E+02   T at   15  2   RLX: 0.037
       a = -4.000      CL = -1.6647
      Cm =  0.3668     CD =  0.01517   =>   CDf =  0.00289    CDp =  0.01228

 Side 1 forced transition at x/c =  1.0000   77
 Side 2  free  transition at x/c =  0.0512   15

  21   rms: 0.1133E+01   max: -.4479E+01   T at   87  2   RLX: 0.112
       a = -4.000      CL = -1.4441
      Cm =  0.3145     CD =  0.01729   =>   CDf =  0.00295    CDp =  0.01434

 Side 1 forced transition at x/c =  1.0000   77
 Side 2  free  transition at x/c =  0.0533   15

  22   rms: 0.1989E+01   max: 0.2267E+02   C at   88  2   RLX: 0.062
       a = -4.000      CL = -1.3297
      Cm =  0.2847     CD =  0.03322   =>   CDf =  0.00311    CDp =  0.03011

 Side 1 forced transition at x/c =  1.0000   77
 Side 2  free  transition at x/c =  0.0549   15

  23   rms: 0.1595E+01   max: -.1215E+02   T at   87  2   RLX: 0.041
       a = -4.000      CL = -1.2597
      Cm =  0.2657     CD =  0.03966   =>   CDf =  0.00323    CDp =  0.03643

 Side 1 forced transition at x/c =  1.0000   77
 Side 2  free  transition at x/c =  0.0555   15

  24   rms: 0.2697E+01   max: -.3073E+02   T at   87  2   RLX: 0.016
       a = -4.000      CL = -1.2312
      Cm =  0.2578     CD =  0.03125   =>   CDf =  0.00332    CDp =  0.02792

 Side 1 forced transition at x/c =  1.0000   77
 Side 2  free  transition at x/c =  0.0558   15

  25   rms: 0.1782E+01   max: -.2854E+02   T at   87  2   RLX: 0.018
       a = -4.000      CL = -1.2084
      Cm =  0.2520     CD =  0.03034   =>   CDf =  0.00336    CDp =  0.02698

 Side 1 forced transition at x/c =  1.0000   77
 Side 2  free  transition at x/c =  0.0560   15

  26   rms: 0.1440E+01   max: -.2284E+02   T at   87  2   RLX: 0.022
       a = -4.000      CL = -1.1826
      Cm =  0.2458     CD =  0.03368   =>   CDf =  0.00342    CDp =  0.03026

 Side 1 forced transition at x/c =  1.0000   77
 Side 2  free  transition at x/c =  0.0561   15

  27   rms: 0.1202E+02   max: -.8488E+02   T at  102  2   RLX: 0.006
       a = -4.000      CL = -1.1798
      Cm =  0.2454     CD =  0.01273   =>   CDf =  0.00388    CDp =  0.00885

 Side 1 forced transition at x/c =  1.0000   78
 Side 2  free  transition at x/c =  0.0562   14

  28   rms: 0.8480E+01   max: -.1483E+03   T at    2  1   RLX: 0.003
       a = -4.000      CL = -1.1754
      Cm =  0.2443     CD =  0.01690   =>   CDf =  0.00354    CDp =  0.01336

 Side 1 forced transition at x/c =  1.0000   78
 Side 2  free  transition at x/c =  0.0562   14

  29   rms: 0.1313E+01   max: 0.1385E+02   T at   87  2   RLX: 0.092
       a = -4.000      CL = -1.0525
      Cm =  0.2157     CD =  0.02005   =>   CDf =  0.00354    CDp =  0.01651

 MRCHDU: Convergence failed at  79  side 2    Res =  0.7504E-01
 MRCHDU: Convergence failed at  80  side 2    Res =  0.7251E-01
 MRCHDU: Convergence failed at  81  side 2    Res =  0.3134E+00
 Side 1 forced transition at x/c =  1.0000   78
 Side 2  free  transition at x/c =  0.0565   14

  30   rms: 0.2036E+01   max: 0.1809E+02   T at   87  2   RLX: 0.036
       a = -4.000      CL = -1.0257
      Cm =  0.2094     CD =  0.01964   =>   CDf =  0.00374    CDp =  0.01590

 MRCHDU: Convergence failed at  79  side 2    Res =  0.8654E-01
 MRCHDU: Convergence failed at  81  side 2    Res =  0.4850E-01
 MRCHDU: Convergence failed at  82  side 2    Res =  0.1312E+00
 Side 1 forced transition at x/c =  1.0000   78
 Side 2  free  transition at x/c =  0.0566   14

  31   rms: 0.1341E+03   max: 0.8515E+03   T at  102  2   RLX: 0.002
       a = -4.000      CL = -1.0262
      Cm =  0.2084     CD =  0.10588   =>   CDf =  0.00378    CDp =  0.10210

 MRCHDU: Convergence failed at  79  side 2    Res =  0.1422E+00
 MRCHDU: Convergence failed at  80  side 2    Res =  0.6311E+00
 MRCHDU: Convergence failed at  82  side 2    Res =  0.2155E+00
 Side 1 forced transition at x/c =  1.0000   78
 Side 2  free  transition at x/c =  0.0566   14

  32   rms: 0.5705E+02   max: -.4863E+03   C at   82  2   RLX: 0.001
       a = -4.000      CL = -1.0243
      Cm =  0.2083     CD =  0.03393   =>   CDf =  0.00384    CDp =  0.03009

 MRCHDU: Convergence failed at  80  side 2    Res =  0.9770E-01
 MRCHDU: Convergence failed at  81  side 2    Res =  0.1030E+00
 MRCHDU: Convergence failed at  82  side 2    Res =  0.2752E-01
 MRCHDU: Convergence failed at  83  side 2    Res =  0.1789E+00
 MRCHDU: Convergence failed at  84  side 2    Res =  0.7867E-02
 Side 1 forced transition at x/c =  1.0000   78
 Side 2  free  transition at x/c =  0.0566   14

  33   rms: 0.9586E+02   max: -.6029E+03   T at  103  2   RLX: 0.001
       a = -4.000      CL = -1.0230
      Cm =  0.2082     CD =  0.00884   =>   CDf =  0.00383    CDp =  0.00501

 MRCHDU: Convergence failed at  80  side 2    Res =  0.9865E-01
 MRCHDU: Convergence failed at  81  side 2    Res =  0.9045E-01
 MRCHDU: Convergence failed at  82  side 2    Res =  0.1830E-01
 MRCHDU: Convergence failed at  83  side 2    Res =  0.6671E-02
 MRCHDU: Convergence failed at  84  side 2    Res =  0.3295E-02
 Side 1 forced transition at x/c =  1.0000   78
 Side 2  free  transition at x/c =  0.0566   14

  34   rms: 0.9318E+02   max: -.6841E+03   T at  102  2   RLX: 0.001
       a = -4.000      CL = -1.0207
      Cm =  0.2079     CD =  0.00160   =>   CDf =  0.00381    CDp = -0.00221

 MRCHDU: Convergence failed at  80  side 2    Res =  0.9919E-01
 MRCHDU: Convergence failed at  81  side 2    Res =  0.7327E-01
 MRCHDU: Convergence failed at  82  side 2    Res =  0.1325E-01
 MRCHDU: Convergence failed at  83  side 2    Res =  0.4420E-02
 MRCHDU: Convergence failed at  84  side 2    Res =  0.1915E-02
 Side 1 forced transition at x/c =  1.0000   78
 Side 2  free  transition at x/c =  0.0566   14

  35   rms: 0.1126E+03   max: -.1236E+04   T at  103  2   RLX: 0.000
       a = -4.000      CL = -1.0193
      Cm =  0.2077     CD =  0.00017   =>   CDf =  0.00380    CDp = -0.00363

 MRCHDU: Convergence failed at  80  side 2    Res =  0.9877E-01
 MRCHDU: Convergence failed at  81  side 2    Res =  0.6530E-01
 MRCHDU: Convergence failed at  82  side 2    Res =  0.1141E-01
 MRCHDU: Convergence failed at  83  side 2    Res =  0.3697E-02
 MRCHDU: Convergence failed at  84  side 2    Res =  0.1544E-02
 MRCHDU: Convergence failed at 105  side 2    Res =  0.9798E-01
 MRCHDU: Convergence failed at 106  side 2    Res =  0.4765E-02
 Side 1 forced transition at x/c =  1.0000   78
 Side 2  free  transition at x/c =  0.0566   14

  36   rms: 0.2074E+03   max: 0.5276E+04   C at  105  2   RLX: 0.000
       a = -4.000      CL = -1.0183
      Cm =  0.2076     CD =  0.00026   =>   CDf =  0.00379    CDp = -0.00354

 MRCHDU: Convergence failed at  80  side 2    Res =  0.9827E-01
 MRCHDU: Convergence failed at  81  side 2    Res =  0.6153E-01
 MRCHDU: Convergence failed at  82  side 2    Res =  0.1063E-01
 MRCHDU: Convergence failed at  83  side 2    Res =  0.3406E-02
 MRCHDU: Convergence failed at  84  side 2    Res =  0.1401E-02
 Side 1 forced transition at x/c =  1.0000   78
 Side 2  free  transition at x/c =  0.0566   14

  37   rms: 0.1073E+03   max: 0.2423E+04   C at  106  2   RLX: 0.001
       a = -4.000      CL = -1.0171
      Cm =  0.2075     CD =  0.00472   =>   CDf =  0.00379    CDp =  0.00094

 MRCHDU: Convergence failed at  80  side 2    Res =  0.9881E-01
 MRCHDU: Convergence failed at  81  side 2    Res =  0.6647E-01
 MRCHDU: Convergence failed at  82  side 2    Res =  0.1168E-01
 MRCHDU: Convergence failed at  83  side 2    Res =  0.3798E-02
 MRCHDU: Convergence failed at  84  side 2    Res =  0.1594E-02
 Side 1 forced transition at x/c =  1.0000   78
 Side 2  free  transition at x/c =  0.0566   14

  38   rms: 0.6975E+02   max: 0.1279E+04   C at  105  2   RLX: 0.001
       a = -4.000      CL = -1.0144
      Cm =  0.2073     CD =  0.04202   =>   CDf =  0.00377    CDp =  0.03825

 MRCHDU: Convergence failed at  80  side 2    Res =  0.9836E-01
 MRCHDU: Convergence failed at  81  side 2    Res =  0.6783E-01
 MRCHDU: Convergence failed at  82  side 2    Res =  0.1203E-01
 MRCHDU: Convergence failed at  83  side 2    Res =  0.3953E-02
 MRCHDU: Convergence failed at  84  side 2    Res =  0.1672E-02
 MRCHDU: Convergence failed at 101  side 2    Res =  0.2976E+00
 Side 1 forced transition at x/c =  1.0000   78
 Side 2  free  transition at x/c =  0.0566   14

  39   rms: 0.7011E+02   max: 0.6828E+03   T at  103  2   RLX: 0.002
       a = -4.000      CL = -1.0107
      Cm =  0.2068     CD =  0.24740   =>   CDf =  0.00374    CDp =  0.24365

 MRCHDU: Convergence failed at  80  side 2    Res =  0.9877E-01
 MRCHDU: Convergence failed at  81  side 2    Res =  0.8776E-01
 MRCHDU: Convergence failed at  82  side 2    Res =  0.1662E-01
 MRCHDU: Convergence failed at  83  side 2    Res =  0.5688E-02
 MRCHDU: Convergence failed at  84  side 2    Res =  0.2569E-02
 Side 1 forced transition at x/c =  1.0000   78
 Side 2  free  transition at x/c =  0.0566   14

  40   rms: 0.6348E+02   max: -.4586E+03   T at  103  2   RLX: 0.001
       a = -4.000      CL = -1.0075
      Cm =  0.2063     CD =  0.07905   =>   CDf =  0.00371    CDp =  0.07533

 MRCHDU: Convergence failed at  80  side 2    Res =  0.9942E-01
 MRCHDU: Convergence failed at  81  side 2    Res =  0.6964E-01
 MRCHDU: Convergence failed at  82  side 2    Res =  0.1133E-01
 MRCHDU: Convergence failed at  83  side 2    Res =  0.3535E-02
 MRCHDU: Convergence failed at  84  side 2    Res =  0.1421E-02
 Side 1 forced transition at x/c =  1.0000   78
 Side 2  free  transition at x/c =  0.0566   14

  41   rms: 0.7013E+02   max: 0.8995E+03   C at  104  2   RLX: 0.002
       a = -4.000      CL = -1.0052
      Cm =  0.2060     CD =  0.27157   =>   CDf =  0.00371    CDp =  0.26786

 MRCHDU: Convergence failed at  80  side 2    Res =  0.1025E+00
 MRCHDU: Convergence failed at  81  side 2    Res =  0.7680E-01
 MRCHDU: Convergence failed at  82  side 2    Res =  0.2108E-01
 MRCHDU: Convergence failed at  83  side 2    Res =  0.6555E-02
 MRCHDU: Convergence failed at  84  side 2    Res =  0.2778E-02
 Side 1 forced transition at x/c =  1.0000   78
 Side 2  free  transition at x/c =  0.0566   14

  42   rms: 0.8965E+02   max: 0.8378E+03   T at  103  2   RLX: 0.002
       a = -4.000      CL = -1.0031
      Cm =  0.2059     CD =  0.53070   =>   CDf =  0.00368    CDp =  0.52702

 MRCHDU: Convergence failed at  80  side 2    Res =  0.9138E-01
 MRCHDU: Convergence failed at  81  side 2    Res =  0.1496E+00
 MRCHDU: Convergence failed at  82  side 2    Res =  0.3607E-01
 MRCHDU: Convergence failed at  83  side 2    Res =  0.1847E-01
 MRCHDU: Convergence failed at  84  side 2    Res =  0.1366E-01
 Side 1 forced transition at x/c =  1.0000   78
 Side 2  free  transition at x/c =  0.0566   14

  43   rms: 0.6135E+03   max: -.4800E+04   T at  102  2   RLX: 0.000
       a = -4.000      CL = -1.0027
      Cm =  0.2058     CD =  0.18671   =>   CDf =  0.00365    CDp =  0.18306

 MRCHDU: Convergence failed at  80  side 2    Res =  0.9149E-01
 MRCHDU: Convergence failed at  81  side 2    Res =  0.8143E-01
 MRCHDU: Convergence failed at  82  side 2    Res =  0.2686E-01
 MRCHDU: Convergence failed at  83  side 2    Res =  0.1198E-01
 MRCHDU: Convergence failed at  84  side 2    Res =  0.6249E-02
 MRCHDU: Convergence failed at 102  side 2    Res =  0.8483E-03
 Side 1 forced transition at x/c =  1.0000   78
 Side 2  free  transition at x/c =  0.0566   14

  44   rms: 0.5092E+02   max: 0.7328E+03   C at  103  2   RLX: 0.002
       a = -4.000      CL = -0.9978
      Cm =  0.2052     CD =  0.37930   =>   CDf =  0.00365    CDp =  0.37565

 MRCHDU: Convergence failed at  80  side 2    Res =  0.9212E-01
 MRCHDU: Convergence failed at  81  side 2    Res =  0.7954E-01
 MRCHDU: Convergence failed at  82  side 2    Res =  0.2695E-01
 MRCHDU: Convergence failed at  83  side 2    Res =  0.1223E-01
 MRCHDU: Convergence failed at  84  side 2    Res =  0.6613E-02
 Side 1 forced transition at x/c =  1.0000   78
 Side 2  free  transition at x/c =  0.0566   14

  45   rms: 0.2088E+02   max: 0.2272E+03   C at  102  2   RLX: 0.007
       a = -4.000      CL = -0.9836
      Cm =  0.2032     CD =  0.73627   =>   CDf =  0.00362    CDp =  0.73265

 MRCHDU: Convergence failed at  80  side 2    Res =  0.9976E-01
 MRCHDU: Convergence failed at  81  side 2    Res =  0.7101E-01
 MRCHDU: Convergence failed at  82  side 2    Res =  0.2503E-01
 MRCHDU: Convergence failed at  83  side 2    Res =  0.1099E-01
 MRCHDU: Convergence failed at  84  side 2    Res =  0.5500E-02
 Side 1 forced transition at x/c =  1.0000   78
 Side 2  free  transition at x/c =  0.0567   14

  46   rms: 0.3749E+02   max: -.2828E+03   T at   87  2   RLX: 0.002
       a = -4.000      CL = -0.9797
      Cm =  0.2025     CD =  0.58725   =>   CDf =  0.00354    CDp =  0.58371

 MRCHDU: Convergence failed at  80  side 2    Res =  0.1016E+00
 MRCHDU: Convergence failed at  81  side 2    Res =  0.7961E-01
 MRCHDU: Convergence failed at  82  side 2    Res =  0.3890E-01
 MRCHDU: Convergence failed at  83  side 2    Res =  0.2092E-01
 MRCHDU: Convergence failed at  84  side 2    Res =  0.1619E-01
 Side 1 forced transition at x/c =  1.0000   78
 Side 2  free  transition at x/c =  0.0567   14

  47   rms: 0.4647E+02   max: 0.3537E+03   C at  101  2   RLX: 0.004
       a = -4.000      CL = -0.9734
      Cm =  0.2017     CD =  0.74152   =>   CDf =  0.00352    CDp =  0.73800

 MRCHDU: Convergence failed at  80  side 2    Res =  0.1063E+00
 MRCHDU: Convergence failed at  81  side 2    Res =  0.9564E-01
 MRCHDU: Convergence failed at  82  side 2    Res =  0.6707E-01
 MRCHDU: Convergence failed at  83  side 2    Res =  0.5841E+00
 Side 1 forced transition at x/c =  1.0000   78
 Side 2  free  transition at x/c =  0.0567   14

  48   rms: 0.1683E+02   max: 0.1061E+03   T at  100  2   RLX: 0.008
       a = -4.000      CL = -0.9624
      Cm =  0.1997     CD =  0.50340   =>   CDf =  0.00348    CDp =  0.49992

 MRCHDU: Convergence failed at  80  side 2    Res =  0.1146E+00
 MRCHDU: Convergence failed at  81  side 2    Res =  0.1107E+00
 MRCHDU: Convergence failed at  82  side 2    Res =  0.9587E-01
 Side 1  free  transition at x/c =  0.9979   78
 Side 2  free  transition at x/c =  0.0567   14

  49   rms: 0.3984E+02   max: 0.4915E+03   C at   83  2   RLX: 0.003
       a = -4.000      CL = -0.9560
      Cm =  0.1983     CD =  0.27071   =>   CDf =  0.00344    CDp =  0.26727

 MRCHDU: Convergence failed at  79  side 2    Res =  0.2998E-03
 MRCHDU: Convergence failed at  80  side 2    Res =  0.1155E+00
 MRCHDU: Convergence failed at  81  side 2    Res =  0.9215E-01
 MRCHDU: Convergence failed at  82  side 2    Res =  0.1179E+00
 Side 1  free  transition at x/c =  0.9973   78
 Side 2  free  transition at x/c =  0.0567   14

  50   rms: 0.5689E+01   max: 0.4723E+02   C at   83  2   RLX: 0.011
       a = -4.000      CL = -0.9351
      Cm =  0.1940     CD =  0.26539   =>   CDf =  0.00344    CDp =  0.26195

 MRCHDU: Convergence failed at  79  side 2    Res =  0.2824E-02
 MRCHDU: Convergence failed at  80  side 2    Res =  0.1179E+00
 MRCHDU: Convergence failed at  81  side 2    Res =  0.9630E-01
 MRCHDU: Convergence failed at  82  side 2    Res =  0.5423E-01
 Side 1  free  transition at x/c =  0.9960   77
 Side 2  free  transition at x/c =  0.0567   14

  51   rms: 0.5999E+01   max: 0.6710E+02   T at   86  2   RLX: 0.022
       a = -4.000      CL = -0.8673
      Cm =  0.1809     CD =  0.35601   =>   CDf =  0.00344    CDp =  0.35257

 MRCHDU: Convergence failed at  79  side 2    Res =  0.1371E-01
 MRCHDU: Convergence failed at  80  side 2    Res =  0.1065E+00
 MRCHDU: Convergence failed at  81  side 2    Res =  0.9586E-01
 MRCHDU: Convergence failed at  82  side 2    Res =  0.2522E+00
 Side 1  free  transition at x/c =  0.9888   76
 Side 2  free  transition at x/c =  0.0568   14

  52   rms: 0.3020E+01   max: 0.4728E+02   T at   86  2   RLX: 0.032
       a = -4.000      CL = -0.8427
      Cm =  0.1747     CD =  0.33333   =>   CDf =  0.00344    CDp =  0.32989

 MRCHDU: Convergence failed at  79  side 2    Res =  0.1813E-01
 MRCHDU: Convergence failed at  80  side 2    Res =  0.9366E-01
 MRCHDU: Convergence failed at  81  side 2    Res =  0.7903E-01
 MRCHDU: Convergence failed at  82  side 2    Res =  0.1711E+00
 Side 1  free  transition at x/c =  0.9905   77
 Side 2  free  transition at x/c =  0.0569   14

  53   rms: 0.1338E+01   max: 0.1253E+02   T at   86  2   RLX: 0.120
       a = -4.000      CL = -0.6373
      Cm =  0.1311     CD =  0.17241   =>   CDf =  0.00345    CDp =  0.16896

 MRCHDU: Convergence failed at  79  side 2    Res =  0.3592E-01
 MRCHDU: Convergence failed at  80  side 2    Res =  0.5480E-01
 MRCHDU: Convergence failed at  81  side 2    Res =  0.8247E-01
 MRCHDU: Convergence failed at  82  side 2    Res =  0.3233E-01
 Side 1  free  transition at x/c =  0.9799   75
 Side 2  free  transition at x/c =  0.0570   14

  54   rms: 0.5115E+01   max: 0.5965E+02   T at   87  2   RLX: 0.025
       a = -4.000      CL = -0.5880
      Cm =  0.1203     CD =  0.28425   =>   CDf =  0.00382    CDp =  0.28043

 MRCHDU: Convergence failed at  78  side 2    Res =  0.3785E-01
 MRCHDU: Convergence failed at  79  side 2    Res =  0.5214E-01
 MRCHDU: Convergence failed at  80  side 2    Res =  0.1018E+00
 MRCHDU: Convergence failed at  81  side 2    Res =  0.7837E-01
 Side 1  free  transition at x/c =  0.9692   76
 Side 2  free  transition at x/c =  0.0570   13

  55   rms: 0.1214E+02   max: -.1390E+03   D at    2  1   RLX: 0.004
       a = -4.000      CL = -0.5759
      Cm =  0.1178     CD =  0.17062   =>   CDf =  0.00348    CDp =  0.16714

 MRCHDU: Convergence failed at  78  side 2    Res =  0.3832E-01
 MRCHDU: Convergence failed at  79  side 2    Res =  0.5152E-01
 MRCHDU: Convergence failed at  80  side 2    Res =  0.3987E-01
 MRCHDU: Convergence failed at  81  side 2    Res =  0.5040E-01
 Side 1  free  transition at x/c =  0.9680   75
 Side 2  free  transition at x/c =  0.0570   13

  56   rms: 0.5874E+01   max: 0.3925E+02   T at   75  1   RLX: 0.021
       a = -4.000      CL = -0.5591
      Cm =  0.1162     CD =  0.26794   =>   CDf =  0.00348    CDp =  0.26446

 MRCHDU: Convergence failed at  78  side 2    Res =  0.3842E-01
 MRCHDU: Convergence failed at  79  side 2    Res =  0.5107E-01
 MRCHDU: Convergence failed at  80  side 2    Res =  0.4557E-01
 MRCHDU: Convergence failed at  81  side 2    Res =  0.2285E+00
 Side 1  free  transition at x/c =  0.9499   74
 Side 2  free  transition at x/c =  0.0570   13

  57   rms: 0.4710E+01   max: 0.3468E+02   T at   74  1   RLX: 0.016
       a = -4.000      CL = -0.5335
      Cm =  0.1118     CD =  0.09521   =>   CDf =  0.00333    CDp =  0.09188

 MRCHDU: Convergence failed at  78  side 2    Res =  0.4008E-01
 MRCHDU: Convergence failed at  79  side 2    Res =  0.4587E-01
 MRCHDU: Convergence failed at  80  side 2    Res =  0.3975E-01
 MRCHDU: Convergence failed at  81  side 2    Res =  0.2248E-01
 Side 1  free  transition at x/c =  0.9359   73
 Side 2  free  transition at x/c =  0.0570   13

  58   rms: 0.1337E+02   max: 0.8899E+02   T at  105  2   RLX: 0.017
       a = -4.000      CL = -0.5111
      Cm =  0.1084     CD =  0.27514   =>   CDf =  0.00326    CDp =  0.27188

 MRCHDU: Convergence failed at  78  side 2    Res =  0.4250E-01
 MRCHDU: Convergence failed at  79  side 2    Res =  0.4372E-01
 MRCHDU: Convergence failed at  80  side 2    Res =  0.4142E-01
 MRCHDU: Convergence failed at  81  side 2    Res =  0.4646E-01
 MRCHDU: Convergence failed at 105  side 2    Res =  0.3658E+01
 Side 1  free  transition at x/c =  0.9245   72
 Side 2  free  transition at x/c =  0.0571   13

  59   rms: 0.8564E+02   max: 0.8596E+03   T at   72  1   RLX: 0.001
       a = -4.000      CL = -0.5276
      Cm =  0.1128     CD =  0.07693   =>   CDf =  0.00313    CDp =  0.07380

 MRCHDU: Convergence failed at  78  side 2    Res =  0.3993E-01
 MRCHDU: Convergence failed at  79  side 2    Res =  0.4335E-01
 MRCHDU: Convergence failed at  80  side 2    Res =  0.3758E-01
 MRCHDU: Convergence failed at  81  side 2    Res =  0.2288E-01
 Side 1  free  transition at x/c =  0.9066   71
 Side 2  free  transition at x/c =  0.0571   13

  60   rms: 0.1120E+02   max: 0.7996E+02   T at  105  2   RLX: 0.019
       a = -4.000      CL = -0.5031
      Cm =  0.1081     CD =  0.20465   =>   CDf =  0.00301    CDp =  0.20163

 MRCHDU: Convergence failed at  78  side 2    Res =  0.4174E-01
 MRCHDU: Convergence failed at  79  side 2    Res =  0.4314E-01
 MRCHDU: Convergence failed at  80  side 2    Res =  0.3725E-01
 MRCHDU: Convergence failed at  81  side 2    Res =  0.2566E-01
 MRCHDU: Convergence failed at 104  side 2    Res =  0.1300E+03
 MRCHDU: Convergence failed at 105  side 2    Res =  0.9996E+01
 Side 1  free  transition at x/c =  0.9001   71
 Side 2  free  transition at x/c =  0.0571   13

  61   rms: 0.4211E+01   max: -.2224E+02   C at   81  2   RLX: 0.022
       a = -4.000      CL = -0.4580
      Cm =  0.0999     CD =  0.05032   =>   CDf =  0.00293    CDp =  0.04739

 MRCHDU: Convergence failed at  78  side 2    Res =  0.4305E-01
 MRCHDU: Convergence failed at  79  side 2    Res =  0.3839E-01
 MRCHDU: Convergence failed at  80  side 2    Res =  0.2620E-01
 MRCHDU: Convergence failed at  81  side 2    Res =  0.1135E-01
 Side 1  free  transition at x/c =  0.8940   70
 Side 2  free  transition at x/c =  0.0571   13

  62   rms: 0.2445E+02   max: 0.1597E+03   C at   82  2   RLX: 0.009
       a = -4.000      CL = -0.4529
      Cm =  0.0985     CD =  0.14516   =>   CDf =  0.00295    CDp =  0.14221

 MRCHDU: Convergence failed at  78  side 2    Res =  0.4856E-01
 MRCHDU: Convergence failed at  79  side 2    Res =  0.6206E-01
 MRCHDU: Convergence failed at  80  side 2    Res =  0.1235E+00
 MRCHDU: Convergence failed at 105  side 2    Res =  0.1174E+01
 Side 1  free  transition at x/c =  0.8940   70
 Side 2  free  transition at x/c =  0.0571   13

  63   rms: 0.2046E+01   max: -.2566E+02   T at   70  1   RLX: 0.019
       a = -4.000      CL = -0.4349
      Cm =  0.0937     CD =  0.09396   =>   CDf =  0.00290    CDp =  0.09106

 MRCHDU: Convergence failed at  78  side 2    Res =  0.5409E-01
 MRCHDU: Convergence failed at  79  side 2    Res =  0.6470E-01
 MRCHDU: Convergence failed at  80  side 2    Res =  0.8947E-01
 Side 1  free  transition at x/c =  0.9073   71
 Side 2  free  transition at x/c =  0.0572   13

  64   rms: 0.3242E+01   max: 0.2940E+02   T at   71  1   RLX: 0.042
       a = -4.000      CL = -0.3710
      Cm =  0.0837     CD =  0.06041   =>   CDf =  0.00297    CDp =  0.05744

 MRCHDU: Convergence failed at  78  side 2    Res =  0.5594E-01
 MRCHDU: Convergence failed at  79  side 2    Res =  0.6882E-01
 MRCHDU: Convergence failed at  80  side 2    Res =  0.3771E-01
 MRCHDU: Convergence failed at  81  side 2    Res =  0.9113E-01
 Side 1  free  transition at x/c =  0.8788   69
 Side 2  free  transition at x/c =  0.0572   13

  65   rms: 0.1584E+02   max: 0.1092E+03   T at  105  2   RLX: 0.014
       a = -4.000      CL = -0.3561
      Cm =  0.0798     CD =  0.14607   =>   CDf =  0.00285    CDp =  0.14323

 MRCHDU: Convergence failed at  78  side 2    Res =  0.5453E-01
 MRCHDU: Convergence failed at  79  side 2    Res =  0.6665E-01
 MRCHDU: Convergence failed at  80  side 2    Res =  0.3866E-01
 MRCHDU: Convergence failed at  81  side 2    Res =  0.5262E+00
 MRCHDU: Convergence failed at 104  side 2    Res =  0.7129E+00
 MRCHDU: Convergence failed at 105  side 2    Res =  0.1417E+01
 Side 1  free  transition at x/c =  0.8693   68
 Side 2  free  transition at x/c =  0.0572   13

  66   rms: 0.3601E+01   max: -.4905E+02   T at   68  1   RLX: 0.010
       a = -4.000      CL = -0.3322
      Cm =  0.0749     CD =  0.08311   =>   CDf =  0.00274    CDp =  0.08037

 MRCHDU: Convergence failed at  78  side 2    Res =  0.5975E-01
 MRCHDU: Convergence failed at  79  side 2    Res =  0.6862E-01
 MRCHDU: Convergence failed at  80  side 2    Res =  0.3941E-01
 MRCHDU: Convergence failed at  81  side 2    Res =  0.1478E-01
 Side 1  free  transition at x/c =  0.8803   69
 Side 2  free  transition at x/c =  0.0572   13

  67   rms: 0.4791E+01   max: -.3914E+02   T at   81  2   RLX: 0.013
       a = -4.000      CL = -0.3206
      Cm =  0.0730     CD =  0.11933   =>   CDf =  0.00280    CDp =  0.11653

 MRCHDU: Convergence failed at  78  side 2    Res =  0.6331E-01
 MRCHDU: Convergence failed at  79  side 2    Res =  0.7167E-01
 MRCHDU: Convergence failed at  80  side 2    Res =  0.1954E+00
 MRCHDU: Convergence failed at  81  side 2    Res =  0.3496E-02
 MRCHDU: Convergence failed at  82  side 2    Res =  0.3679E-02
 Side 1  free  transition at x/c =  0.8746   69
 Side 2  free  transition at x/c =  0.0572   13

  68   rms: 0.3505E+01   max: -.2149E+02   T at  102  2   RLX: 0.023
       a = -4.000      CL = -0.2786
      Cm =  0.0660     CD =  0.07018   =>   CDf =  0.00276    CDp =  0.06741

 MRCHDU: Convergence failed at  78  side 2    Res =  0.5134E-01
 MRCHDU: Convergence failed at  79  side 2    Res =  0.6844E-01
 MRCHDU: Convergence failed at  80  side 2    Res =  0.6003E-01
 MRCHDU: Convergence failed at  81  side 2    Res =  0.2323E-02
 MRCHDU: Convergence failed at  82  side 2    Res =  0.2164E-02
 Side 1  free  transition at x/c =  0.8641   68
 Side 2  free  transition at x/c =  0.0572   13

  69   rms: 0.7671E+00   max: -.5968E+01   T at   68  1   RLX: 0.084
       a = -4.000      CL = -0.2303
      Cm =  0.0526     CD =  0.07782   =>   CDf =  0.00274    CDp =  0.07508

 Side 1  free  transition at x/c =  0.8778   69
 Side 2  free  transition at x/c =  0.0574   13

  70   rms: 0.9848E+01   max: -.6136E+02   T at  105  2   RLX: 0.008
       a = -4.000      CL = -0.2326
      Cm =  0.0516     CD =  0.02988   =>   CDf =  0.00284    CDp =  0.02703

 Side 1  free  transition at x/c =  0.8815   69
 Side 2  free  transition at x/c =  0.0574   13

  71   rms: 0.1652E+01   max: -.2022E+02   T at   81  2   RLX: 0.025
       a = -4.000      CL = -0.2218
      Cm =  0.0477     CD =  0.03464   =>   CDf =  0.00289    CDp =  0.03175

 MRCHDU: Convergence failed at  13  side 2    Res =  0.2470E-02
 Side 1  free  transition at x/c =  0.8895   70
 Side 2  free  transition at x/c =  0.0575   13

  72   rms: 0.2148E+01   max: -.1311E+02   C at   82  2   RLX: 0.038
       a = -4.000      CL = -0.2101
      Cm =  0.0423     CD =  0.01903   =>   CDf =  0.00294    CDp =  0.01609

 MRCHDU: Convergence failed at  13  side 2    Res =  0.7872E-02
 MRCHDU: Convergence failed at  80  side 2    Res =  0.1107E-01
 MRCHDU: Convergence failed at  81  side 2    Res =  0.2742E-03
 MRCHDU: Convergence failed at  82  side 2    Res =  0.2479E-03
 Side 1  free  transition at x/c =  0.8993   70
 Side 2  free  transition at x/c =  0.0576   13

  73   rms: 0.1350E+02   max: -.1194E+03   T at   81  2   RLX: 0.004
       a = -4.000      CL = -0.1927
      Cm =  0.0384     CD =  0.01959   =>   CDf =  0.00302    CDp =  0.01658

 MRCHDU: Convergence failed at  13  side 2    Res =  0.7401E-02
 Side 1  free  transition at x/c =  0.9015   71
 Side 2  free  transition at x/c =  0.0576   13

  74   rms: 0.6472E+01   max: -.3823E+02   T at  105  2   RLX: 0.013
       a = -4.000      CL = -0.1868
      Cm =  0.0366     CD =  0.00349   =>   CDf =  0.00304    CDp =  0.00045

 MRCHDU: Convergence failed at  13  side 2    Res =  0.8848E-02
 Side 1  free  transition at x/c =  0.9013   71
 Side 2  free  transition at x/c =  0.0576   13

  75   rms: 0.2516E+01   max: 0.1969E+02   T at   82  2   RLX: 0.044
       a = -4.000      CL = -0.1882
      Cm =  0.0335     CD =  0.00193   =>   CDf =  0.00306    CDp = -0.00113

 TRCHEK2: N2 convergence failed.
 x:  0.97943  0.98517  0.99188  N:  7.063  9.000 10.806  Nx: 108.921   dN:-0.151E+01
 TRCHEK2: N2 convergence failed.
 x:  0.97943  0.98080  0.99188  N:  7.063  9.000 23.636  Nx:  15.203   dN:-0.175E+02
 TRCHEK2: N2 convergence failed.
 x:  0.97943  0.98078  0.99188  N:  7.063  9.000 23.925  Nx:  15.418   dN:-0.178E+02
 TRCHEK2: N2 convergence failed.
 x:  0.97943  0.98168  0.99188  N:  7.063  9.000 16.762  Nx:   3.410   dN:-0.110E+02
 TRCHEK2: N2 convergence failed.
 x:  0.97943  0.98660  0.99188  N:  7.063  9.000 10.224  Nx: 215.594   dN:-0.200E+00
 TRCHEK2: N2 convergence failed.
 x:  0.97943  0.98176  0.99188  N:  7.063  9.000 16.396  Nx:   2.080   dN:-0.107E+02
 TRCHEK2: N2 convergence failed.
 x:  0.97943  0.98682  0.99188  N:  7.063  9.000 10.243  Nx: 236.578   dN:-0.855E-01
 TRCHEK2: N2 convergence failed.
 x:  0.97943  0.98141  0.99188  N:  7.063  9.000 18.235  Nx:   7.654   dN:-0.124E+02
 TRCHEK2: N2 convergence failed.
 x:  0.97943  0.98581  0.99188  N:  7.063  9.000 10.472  Nx: 149.724   dN:-0.802E+00
 TRCHEK2: N2 convergence failed.
 x:  0.97943  0.98435  0.99188  N:  7.063  9.000 11.347  Nx:  68.652   dN:-0.275E+01
 TRCHEK2: N2 convergence failed.
 x:  0.97943  0.98175  0.99188  N:  7.063  9.000 16.432  Nx:   2.220   dN:-0.108E+02
 TRCHEK2: N2 convergence failed.
 x:  0.97943  0.98679  0.99188  N:  7.063  9.000 10.241  Nx: 234.234   dN:-0.971E-01
 TRCHEK2: N2 convergence failed.
 x:  0.97943  0.98144  0.99188  N:  7.063  9.000 18.028  Nx:   7.150   dN:-0.122E+02
 TRCHEK2: N2 convergence failed.
 x:  0.97943  0.98593  0.99188  N:  7.063  9.000 10.418  Nx: 158.082   dN:-0.697E+00
 TRCHEK2: N2 convergence failed.
 x:  0.97943  0.98386  0.99188  N:  7.063  9.000 11.740  Nx:  50.173   dN:-0.364E+01
 TRCHEK2: N2 convergence failed.
 x:  0.97943  0.98215  0.99188  N:  7.063  9.000 14.910  Nx:   5.085   dN:-0.826E+01
 TRCHEK2: N2 convergence failed.
 x:  0.97943  0.98696  0.99188  N:  7.063  9.000 10.265  Nx: 257.178   dN: 0.311E-03
 MRCHDU: Convergence failed at  80  side 2    Res =  0.3423E+00
 TRCHEK2: N2 convergence failed.
 x:  0.99188  0.99191  1.00122  N:  7.063  9.000651.508  Nx:  16.989   dN:-0.645E+03
 TRCHEK2: N2 convergence failed.
 x:  0.99188  0.99190  1.00122  N:  7.063  9.000940.562  Nx:  17.314   dN:-0.934E+03
 TRCHEK2: N2 convergence failed.
 x:  0.99188  0.99190  1.00122  N:  7.063  9.000*******  Nx:  15.190   dN:-0.126E+04
 TRCHEK2: N2 convergence failed.
 x:  0.99188  0.99190  1.00122  N:  7.063  9.000*******  Nx:  15.804   dN:-0.118E+04
 TRCHEK2: N2 convergence failed.
 x:  0.99188  0.99190  1.00122  N:  7.063  9.000*******  Nx:  15.887   dN:-0.117E+04
 TRCHEK2: N2 convergence failed.
 x:  0.99188  0.99190  1.00122  N:  7.063  9.000*******  Nx:  15.892   dN:-0.117E+04
 Side 1  free  transition at x/c =  0.9035   71
 TRCHEK2: N2 convergence failed.
 x:  0.99188  0.99190  1.00122  N:  7.063  9.000*******  Nx:  15.892   dN:-0.117E+04
 Side 2  free  transition at x/c =  0.9807   81

  76   rms: 0.1237E+02   max: 0.9669E+02   T at   82  2   RLX: 0.016
       a = -4.000      CL = -0.1932
      Cm =  0.0303     CD =  0.06406   =>   CDf =  0.00446    CDp =  0.05960

 TRCHEK2: N2 convergence failed.
 x:  0.99199  0.99200  1.00133  N:  7.219  9.000*******  Nx:  15.151   dN:-0.121E+04
 TRCHEK2: N2 convergence failed.
 x:  0.99199  0.99200  1.00133  N:  7.219  9.000*******  Nx:  15.402   dN:-0.118E+04
 TRCHEK2: N2 convergence failed.
 x:  0.99199  0.99200  1.00133  N:  7.219  9.000*******  Nx:  15.418   dN:-0.118E+04
 TRCHEK2: N2 convergence failed.
 x:  0.99199  0.99200  1.00133  N:  7.219  9.000*******  Nx:  15.419   dN:-0.118E+04
 Side 1  free  transition at x/c =  0.9049   71
 TRCHEK2: N2 convergence failed.
 x:  0.99199  0.99200  1.00133  N:  7.219  9.000*******  Nx:  15.419   dN:-0.118E+04
 Side 2  free  transition at x/c =  0.9807   81

  77   rms: 0.1138E+01   max: -.3897E+01   C at   82  2   RLX: 0.128
       a = -4.000      CL = -0.2523
      Cm =  0.0314     CD =  0.01229   =>   CDf =  0.00444    CDp =  0.00786

 TRCHEK2: N2 convergence failed.
 x:  0.99277  0.99277  1.00210  N:  8.685  9.000*******  Nx:   5.196   dN:-0.129E+04
 TRCHEK2: N2 convergence failed.
 x:  0.99277  0.99277  1.00210  N:  8.685  9.000*******  Nx:   5.776   dN:-0.119E+04
 TRCHEK2: N2 convergence failed.
 x:  0.99277  0.99277  1.00210  N:  8.685  9.000*******  Nx:   5.865   dN:-0.117E+04
 TRCHEK2: N2 convergence failed.
 x:  0.99277  0.99277  1.00210  N:  8.685  9.000*******  Nx:   5.867   dN:-0.117E+04
 TRCHEK2: N2 convergence failed.
 x:  0.99277  0.99277  1.00210  N:  8.685  9.000*******  Nx:   5.867   dN:-0.117E+04
 Side 1  free  transition at x/c =  0.9172   72
 TRCHEK2: N2 convergence failed.
 x:  0.99277  0.99277  1.00210  N:  8.685  9.000*******  Nx:   5.867   dN:-0.117E+04
 Side 2  free  transition at x/c =  0.9807   81

  78   rms: 0.2341E+01   max: -.1238E+02   C at   82  2   RLX: 0.040
       a = -4.000      CL = -0.2675
      Cm =  0.0319     CD =  0.00762   =>   CDf =  0.00427    CDp =  0.00335

 Side 1  free  transition at x/c =  0.9208   72
 Side 2  free  transition at x/c =  0.9508   78

  79   rms: 0.4152E+02   max: -.2921E+03   C at   78  2   RLX: 0.002
       a = -4.000      CL = -0.2611
      Cm =  0.0305     CD =  0.00717   =>   CDf =  0.00422    CDp =  0.00295

 TRCHEK2: N2 convergence failed.
 x:  0.99289  0.99290  1.00223  N:  8.926  9.000*******  Nx:   3.721   dN:-0.115E+04
 TRCHEK2: N2 convergence failed.
 x:  0.99289  0.99290  1.00223  N:  8.926  9.000*******  Nx:   3.724   dN:-0.115E+04
 TRCHEK2: N2 convergence failed.
 x:  0.99289  0.99290  1.00223  N:  8.926  9.000*******  Nx:   3.724   dN:-0.114E+04
 TRCHEK2: N2 convergence failed.
 x:  0.99289  0.99290  1.00223  N:  8.926  9.000*******  Nx:   3.724   dN:-0.114E+04
 Side 1  free  transition at x/c =  0.9210   72
 TRCHEK2: N2 convergence failed.
 x:  0.99289  0.99290  1.00223  N:  8.926  9.000*******  Nx:   3.724   dN:-0.114E+04
 Side 2  free  transition at x/c =  0.9807   81

  80   rms: 0.2037E+01   max: -.1208E+02   T at   82  2   RLX: 0.041
       a = -4.000      CL = -0.2695
      Cm =  0.0296     CD =  0.00075   =>   CDf =  0.00423    CDp = -0.00348

 Side 1  free  transition at x/c =  0.9261   72
 Side 2  free  transition at x/c =  0.9461   78

  81   rms: 0.1108E+02   max: -.6955E+02   C at   78  2   RLX: 0.007
       a = -4.000      CL = -0.2578
      Cm =  0.0268     CD =  0.00011   =>   CDf =  0.00421    CDp = -0.00411

 Side 1  free  transition at x/c =  0.9277   73
 Side 2  free  transition at x/c =  0.9784   80

  82   rms: 0.1992E+01   max: -.1307E+02   T at   82  2   RLX: 0.038
       a = -4.000      CL = -0.2951
      Cm =  0.0317     CD =  0.00001   =>   CDf =  0.00423    CDp = -0.00422

 Side 1  free  transition at x/c =  0.9305   73
 Side 2  free  transition at x/c =  0.8491   71

  83   rms: 0.5017E+02   max: -.5682E+03   T at   82  2   RLX: 0.001
       a = -4.000      CL = -0.2940
      Cm =  0.0304     CD =  0.00000   =>   CDf =  0.00430    CDp = -0.00430

 Side 1  free  transition at x/c =  0.9305   73
 Side 2  free  transition at x/c =  0.8472   71

  84   rms: 0.3757E+02   max: 0.2386E+03   C at   87  2   RLX: 0.004
       a = -4.000      CL = -0.2947
      Cm =  0.0303     CD =  0.00002   =>   CDf =  0.00430    CDp = -0.00428

 Side 1  free  transition at x/c =  0.9307   73
 Side 2  free  transition at x/c =  0.8423   70

  85   rms: 0.6980E+01   max: -.1564E+03   T at   82  2   RLX: 0.003
       a = -4.000      CL = -0.2956
      Cm =  0.0302     CD =  0.00002   =>   CDf =  0.00431    CDp = -0.00429

 Side 1  free  transition at x/c =  0.9309   73
 Side 2  free  transition at x/c =  0.8394   70

  86   rms: 0.6953E+02   max: -.1706E+04   T at   82  2   RLX: 0.000
       a = -4.000      CL = -0.2955
      Cm =  0.0302     CD =  0.00002   =>   CDf =  0.00431    CDp = -0.00429

 Side 1  free  transition at x/c =  0.9309   73
 Side 2  free  transition at x/c =  0.8394   70

  87   rms: 0.7614E+02   max: -.2063E+04   T at   82  2   RLX: 0.000
       a = -4.000      CL = -0.2954
      Cm =  0.0302     CD =  0.00002   =>   CDf =  0.00431    CDp = -0.00429

 Side 1  free  transition at x/c =  0.9309   73
 Side 2  free  transition at x/c =  0.8398   70

  88   rms: 0.8594E+02   max: -.2007E+04   T at   82  2   RLX: 0.000
       a = -4.000      CL = -0.2954
      Cm =  0.0301     CD =  0.00002   =>   CDf =  0.00431    CDp = -0.00429

 Side 1  free  transition at x/c =  0.9310   73
 Side 2  free  transition at x/c =  0.8408   70

  89   rms: 0.1781E+02   max: 0.2116E+03   T at   86  2   RLX: 0.002
       a = -4.000      CL = -0.2959
      Cm =  0.0301     CD =  0.00003   =>   CDf =  0.00431    CDp = -0.00427

 Side 1  free  transition at x/c =  0.9314   73
 Side 2  free  transition at x/c =  0.8413   70

  90   rms: 0.3145E+02   max: -.3701E+03   T at   86  2   RLX: 0.001
       a = -4.000      CL = -0.2962
      Cm =  0.0301     CD =  0.00002   =>   CDf =  0.00431    CDp = -0.00429

 Side 1  free  transition at x/c =  0.9315   73
 Side 2  free  transition at x/c =  0.8397   70

  91   rms: 0.2563E+03   max: -.3920E+04   T at   86  2   RLX: 0.000
       a = -4.000      CL = -0.2963
      Cm =  0.0301     CD =  0.00001   =>   CDf =  0.00431    CDp = -0.00430

 Side 1  free  transition at x/c =  0.9314   73
 Side 2  free  transition at x/c =  0.8384   70

  92   rms: 0.1047E+03   max: 0.1836E+04   T at   86  2   RLX: 0.001
       a = -4.000      CL = -0.2963
      Cm =  0.0301     CD =  0.00002   =>   CDf =  0.00431    CDp = -0.00429

 Side 1  free  transition at x/c =  0.9317   73
 Side 2  free  transition at x/c =  0.8415   70

  93   rms: 0.8783E+02   max: 0.1264E+04   T at   86  2   RLX: 0.001
       a = -4.000      CL = -0.2964
      Cm =  0.0301     CD =  0.00011   =>   CDf =  0.00431    CDp = -0.00421

 Side 1  free  transition at x/c =  0.9322   73
 Side 2  free  transition at x/c =  0.8441   70

  94   rms: 0.1356E+02   max: -.1391E+03   T at   82  2   RLX: 0.004
       a = -4.000      CL = -0.2971
      Cm =  0.0300     CD =  0.00016   =>   CDf =  0.00431    CDp = -0.00416

 Side 1  free  transition at x/c =  0.9326   73
 Side 2  free  transition at x/c =  0.8438   70

  95   rms: 0.7150E+02   max: 0.7326E+03   T at   86  2   RLX: 0.002
       a = -4.000      CL = -0.2973
      Cm =  0.0300     CD =  0.01107   =>   CDf =  0.00431    CDp =  0.00675

 Side 1  free  transition at x/c =  0.9330   73
 Side 2  free  transition at x/c =  0.8446   71

  96   rms: 0.4640E+02   max: -.3629E+03   T at   86  2   RLX: 0.001
       a = -4.000      CL = -0.2976
      Cm =  0.0299     CD =  0.00056   =>   CDf =  0.00431    CDp = -0.00376

 Side 1  free  transition at x/c =  0.9332   73
 Side 2  free  transition at x/c =  0.8442   70

  97   rms: 0.3195E+03   max: -.3038E+04   T at   86  2   RLX: 0.000
       a = -4.000      CL = -0.2977
      Cm =  0.0299     CD =  0.00007   =>   CDf =  0.00432    CDp = -0.00425

 Side 1  free  transition at x/c =  0.9332   73
 Side 2  free  transition at x/c =  0.8438   70

  98   rms: 0.9374E+03   max: 0.5550E+04   C at  104  2   RLX: 0.000
       a = -4.000      CL = -0.2978
      Cm =  0.0299     CD =  0.00002   =>   CDf =  0.00432    CDp = -0.00430

 Side 1  free  transition at x/c =  0.9331   73
 Side 2  free  transition at x/c =  0.8429   70

  99   rms: 0.3295E+03   max: -.4831E+04   T at   86  2   RLX: 0.000
       a = -4.000      CL = -0.2979
      Cm =  0.0299     CD =  0.00001   =>   CDf =  0.00432    CDp = -0.00431

 Side 1  free  transition at x/c =  0.9330   73
 Side 2  free  transition at x/c =  0.8419   70

 100   rms: 0.2020E+03   max: 0.3479E+04   T at   86  2   RLX: 0.000
       a = -4.000      CL = -0.2977
      Cm =  0.0299     CD =  0.00003   =>   CDf =  0.00432    CDp = -0.00429

 Side 1  free  transition at x/c =  0.9334   73
 Side 2  free  transition at x/c =  0.8451   71

 101   rms: 0.1048E+03   max: -.1419E+04   T at   86  2   RLX: 0.000
       a = -4.000      CL = -0.2979
      Cm =  0.0299     CD =  0.00001   =>   CDf =  0.00431    CDp = -0.00431

 Side 1  free  transition at x/c =  0.9333   73
 Side 2  free  transition at x/c =  0.8440   70

 102   rms: 0.1016E+04   max: 0.1635E+05   T at   86  2   RLX: 0.000
       a = -4.000      CL = -0.2976
      Cm =  0.0299     CD =  0.00004   =>   CDf =  0.00432    CDp = -0.00428

 Side 1  free  transition at x/c =  0.9336   73
 Side 2  free  transition at x/c =  0.8478   71

 103   rms: 0.5212E+02   max: 0.6460E+03   T at   86  2   RLX: 0.002
       a = -4.000      CL = -0.2977
      Cm =  0.0299     CD =  0.00073   =>   CDf =  0.00431    CDp = -0.00358

 Side 1  free  transition at x/c =  0.9342   73
 Side 2  free  transition at x/c =  0.8503   71

 104   rms: 0.5470E+02   max: -.5201E+03   T at   86  2   RLX: 0.001
       a = -4.000      CL = -0.2979
      Cm =  0.0299     CD =  0.00003   =>   CDf =  0.00431    CDp = -0.00427

 Side 1  free  transition at x/c =  0.9343   73
 Side 2  free  transition at x/c =  0.8496   71

 105   rms: 0.1471E+03   max: 0.8779E+03   C at   88  2   RLX: 0.001
       a = -4.000      CL = -0.2982
      Cm =  0.0299     CD =  0.00002   =>   CDf =  0.00431    CDp = -0.00429

 Side 1  free  transition at x/c =  0.9343   73
 Side 2  free  transition at x/c =  0.8478   71

 106   rms: 0.5391E+02   max: 0.7874E+03   T at   86  2   RLX: 0.002
       a = -4.000      CL = -0.2978
      Cm =  0.0298     CD =  0.00017   =>   CDf =  0.00431    CDp = -0.00414

 Side 1  free  transition at x/c =  0.9349   73
 Side 2  free  transition at x/c =  0.8524   71

 107   rms: 0.5302E+03   max: -.5513E+04   T at   86  2   RLX: 0.000
       a = -4.000      CL = -0.2979
      Cm =  0.0298     CD =  0.00004   =>   CDf =  0.00431    CDp = -0.00427

 Side 1  free  transition at x/c =  0.9349   73
 Side 2  free  transition at x/c =  0.8516   71

 108   rms: 0.4725E+02   max: 0.6516E+03   T at   86  2   RLX: 0.002
       a = -4.000      CL = -0.2977
      Cm =  0.0296     CD =  0.00057   =>   CDf =  0.00431    CDp = -0.00374

 Side 1  free  transition at x/c =  0.9355   73
 Side 2  free  transition at x/c =  0.8556   71

 109   rms: 0.1346E+03   max: -.1386E+04   T at   86  2   RLX: 0.000
       a = -4.000      CL = -0.2978
      Cm =  0.0296     CD =  0.00006   =>   CDf =  0.00431    CDp = -0.00425

 Side 1  free  transition at x/c =  0.9355   73
 Side 2  free  transition at x/c =  0.8550   71

 110   rms: 0.1029E+03   max: -.1295E+04   T at   86  2   RLX: 0.000
       a = -4.000      CL = -0.2980
      Cm =  0.0296     CD =  0.00001   =>   CDf =  0.00431    CDp = -0.00429

 Side 1  free  transition at x/c =  0.9355   73
 Side 2  free  transition at x/c =  0.8539   71

 111   rms: 0.1674E+03   max: -.2632E+04   T at   86  2   RLX: 0.000
       a = -4.000      CL = -0.2983
      Cm =  0.0297     CD =  0.00001   =>   CDf =  0.00431    CDp = -0.00430

 Side 1  free  transition at x/c =  0.9354   73
 Side 2  free  transition at x/c =  0.8523   71

 112   rms: 0.5266E+03   max: 0.9401E+04   T at   86  2   RLX: 0.000
       a = -4.000      CL = -0.2976
      Cm =  0.0296     CD =  0.00002   =>   CDf =  0.00431    CDp = -0.00429

 Side 1  free  transition at x/c =  0.9357   73
 Side 2  free  transition at x/c =  0.8569   71

 113   rms: 0.2184E+03   max: -.3190E+04   T at   86  2   RLX: 0.000
       a = -4.000      CL = -0.2978
      Cm =  0.0296     CD =  0.00001   =>   CDf =  0.00431    CDp = -0.00430

 Side 1  free  transition at x/c =  0.9357   73
 Side 2  free  transition at x/c =  0.8554   71

 114   rms: 0.1914E+03   max: 0.3225E+04   T at   86  2   RLX: 0.000
       a = -4.000      CL = -0.2972
      Cm =  0.0295     CD =  0.00003   =>   CDf =  0.00431    CDp = -0.00428

 Side 1  free  transition at x/c =  0.9361   73
 Side 2  free  transition at x/c =  0.8601   72

 115   rms: 0.2524E+03   max: -.3520E+04   T at   86  2   RLX: 0.000
       a = -4.000      CL = -0.2975
      Cm =  0.0295     CD =  0.00001   =>   CDf =  0.00430    CDp = -0.00430

 Side 1  free  transition at x/c =  0.9360   73
 Side 2  free  transition at x/c =  0.8587   72

 116   rms: 0.3386E+03   max: -.5686E+04   T at   86  2   RLX: 0.000
       a = -4.000      CL = -0.2978
      Cm =  0.0296     CD =  0.00000   =>   CDf =  0.00431    CDp = -0.00430

 Side 1  free  transition at x/c =  0.9359   73
 Side 2  free  transition at x/c =  0.8571   71

 117   rms: 0.9439E+03   max: -.1854E+05   T at   86  2   RLX: 0.000
       a = -4.000      CL = -0.2980
      Cm =  0.0296     CD =  0.00000   =>   CDf =  0.00431    CDp = -0.00430

 Side 1  free  transition at x/c =  0.9358   73
 Side 2  free  transition at x/c =  0.8558   71

 118   rms: 0.6619E+03   max: 0.1467E+05   T at   86  2   RLX: 0.000
       a = -4.000      CL = -0.2976
      Cm =  0.0296     CD =  0.00000   =>   CDf =  0.00431    CDp = -0.00430

 Side 1  free  transition at x/c =  0.9361   73
 Side 2  free  transition at x/c =  0.8587   72

 119   rms: 0.1992E+03   max: -.3655E+04   T at   86  2   RLX: 0.000
       a = -4.000      CL = -0.2979
      Cm =  0.0296     CD =  0.00000   =>   CDf =  0.00431    CDp = -0.00430

 Side 1  free  transition at x/c =  0.9360   73
 Side 2  free  transition at x/c =  0.8572   71

 120   rms: 0.1507E+04   max: -.3131E+05   T at   86  2   RLX: 0.000
       a = -4.000      CL = -0.2981
      Cm =  0.0296     CD =  0.00000   =>   CDf =  0.00431    CDp = -0.00431

 Side 1  free  transition at x/c =  0.9359   73
 Side 2  free  transition at x/c =  0.8560   71

 121   rms: 0.7835E+03   max: -.1802E+05   T at   86  2   RLX: 0.000
       a = -4.000      CL = -0.2982
      Cm =  0.0296     CD =  0.00000   =>   CDf =  0.00431    CDp = -0.00431

 Side 1  free  transition at x/c =  0.9358   73
 Side 2  free  transition at x/c =  0.8551   71

 122   rms: 0.1681E+04   max: 0.3028E+05   T at   86  2   RLX: 0.000
       a = -4.000      CL = -0.2979
      Cm =  0.0296     CD =  0.00000   =>   CDf =  0.00431    CDp = -0.00431

 Side 1  free  transition at x/c =  0.9359   73
 Side 2  free  transition at x/c =  0.8558   71

 123   rms: 0.4752E+04   max: -.6233E+05   C at  103  2   RLX: 0.000
       a = -4.000      CL = -0.2979
      Cm =  0.0296     CD =  0.00000   =>   CDf =  0.00431    CDp = -0.00431

 Side 1  free  transition at x/c =  0.9359   73
 Side 2  free  transition at x/c =  0.8562   71

 124   rms: 0.1240E+05   max: -.1686E+06   C at  103  2   RLX: 0.000
       a = -4.000      CL = -0.2979
      Cm =  0.0296     CD =  0.00000   =>   CDf =  0.00431    CDp = -0.00431

 Side 1  free  transition at x/c =  0.9359   73
 Side 2  free  transition at x/c =  0.8563   71

 125   rms: 0.5501E+05   max: -.7476E+06   C at  103  2   RLX: 0.000
       a = -4.000      CL = -0.2979
      Cm =  0.0296     CD =  0.00000   =>   CDf =  0.00431    CDp = -0.00431

 Side 1  free  transition at x/c =  0.9359   73
 Side 2  free  transition at x/c =  0.8563   71

 126   rms: 0.5173E+05   max: 0.7026E+06   C at  103  2   RLX: 0.000
       a = -4.000      CL = -0.2979
      Cm =  0.0296     CD =  0.00000   =>   CDf =  0.00431    CDp = -0.00431

 Side 1  free  transition at x/c =  0.9359   73
 Side 2  free  transition at x/c =  0.8563   71

 127   rms: 0.2468E+05   max: -.3356E+06   C at  103  2   RLX: 0.000
       a = -4.000      CL = -0.2979
      Cm =  0.0296     CD =  0.00000   =>   CDf =  0.00431    CDp = -0.00431

 Side 1  free  transition at x/c =  0.9359   73
 Side 2  free  transition at x/c =  0.8563   71

 128   rms: 0.6294E+05   max: -.8551E+06   C at  103  2   RLX: 0.000
       a = -4.000      CL = -0.2979
      Cm =  0.0296     CD =  0.00000   =>   CDf =  0.00431    CDp = -0.00431

 Side 1  free  transition at x/c =  0.9359   73
 Side 2  free  transition at x/c =  0.8564   71

 129   rms: 0.1338E+05   max: -.1817E+06   C at  103  2   RLX: 0.000
       a = -4.000      CL = -0.2979
      Cm =  0.0296     CD =  0.00000   =>   CDf =  0.00431    CDp = -0.00431

 Side 1  free  transition at x/c =  0.9359   73
 Side 2  free  transition at x/c =  0.8564   71

 130   rms: 0.8704E+05   max: -.1182E+07   C at  103  2   RLX: 0.000
       a = -4.000      CL = -0.2979
      Cm =  0.0296     CD =  0.00000   =>   CDf =  0.00431    CDp = -0.00431

 Side 1  free  transition at x/c =  0.9359   73
 Side 2  free  transition at x/c =  0.8564   71

 131   rms: 0.1844E+05   max: -.2503E+06   C at  103  2   RLX: 0.000
       a = -4.000      CL = -0.2979
      Cm =  0.0296     CD =  0.00000   =>   CDf =  0.00431    CDp = -0.00431

 Side 1  free  transition at x/c =  0.9359   73
 Side 2  free  transition at x/c =  0.8564   71

 132   rms: 0.1171E+05   max: 0.1590E+06   C at  104  2   RLX: 0.000
       a = -4.000      CL = -0.2979
      Cm =  0.0296     CD =  0.00000   =>   CDf =  0.00431    CDp = -0.00431

 Side 1  free  transition at x/c =  0.9359   73
 Side 2  free  transition at x/c =  0.8564   71

 133   rms: 0.5099E+05   max: -.6922E+06   C at  103  2   RLX: 0.000
       a = -4.000      CL = -0.2979
      Cm =  0.0296     CD =  0.00000   =>   CDf =  0.00431    CDp = -0.00431

 Side 1  free  transition at x/c =  0.9359   73
 Side 2  free  transition at x/c =  0.8564   71

 134   rms: 0.8078E+05   max: 0.1096E+07   C at  103  2   RLX: 0.000
       a = -4.000      CL = -0.2979
      Cm =  0.0296     CD =  0.00000   =>   CDf =  0.00431    CDp = -0.00431

 Side 1  free  transition at x/c =  0.9359   73
 Side 2  free  transition at x/c =  0.8564   71

 135   rms: 0.3543E+05   max: -.4812E+06   C at  103  2   RLX: 0.000
       a = -4.000      CL = -0.2979
      Cm =  0.0296     CD =  0.00000   =>   CDf =  0.00431    CDp = -0.00431

 Side 1  free  transition at x/c =  0.9359   73
 Side 2  free  transition at x/c =  0.8564   71

 136   rms: 0.1704E+05   max: -.2313E+06   C at  103  2   RLX: 0.000
       a = -4.000      CL = -0.2979
      Cm =  0.0296     CD =  0.00000   =>   CDf =  0.00431    CDp = -0.00431

 Side 1  free  transition at x/c =  0.9359   73
 Side 2  free  transition at x/c =  0.8564   71

 137   rms: 0.6473E+05   max: -.8785E+06   C at  103  2   RLX: 0.000
       a = -4.000      CL = -0.2979
      Cm =  0.0296     CD =  0.00000   =>   CDf =  0.00431    CDp = -0.00431

 Side 1  free  transition at x/c =  0.9359   73
 Side 2  free  transition at x/c =  0.8564   71

 138   rms: 0.4035E+05   max: -.5476E+06   C at  104  2   RLX: 0.000
       a = -4.000      CL = -0.2979
      Cm =  0.0296     CD =  0.00000   =>   CDf =  0.00431    CDp = -0.00431

 Side 1  free  transition at x/c =  0.9359   73
 Side 2  free  transition at x/c =  0.8564   71

 139   rms: 0.1623E+06   max: -.2202E+07   C at  104  2   RLX: 0.000
       a = -4.000      CL = -0.2979
      Cm =  0.0296     CD =  0.00000   =>   CDf =  0.00431    CDp = -0.00431

 Side 1  free  transition at x/c =  0.9359   73
 Side 2  free  transition at x/c =  0.8564   71

 140   rms: 0.1126E+06   max: 0.1528E+07   C at  105  2   RLX: 0.000
       a = -4.000      CL = -0.2979
      Cm =  0.0296     CD =  0.00000   =>   CDf =  0.00431    CDp = -0.00431

 Side 1  free  transition at x/c =  0.9359   73
 Side 2  free  transition at x/c =  0.8564   71

 141   rms: 0.5075E+05   max: -.6888E+06   C at  104  2   RLX: 0.000
       a = -4.000      CL = -0.2979
      Cm =  0.0296     CD =  0.00000   =>   CDf =  0.00431    CDp = -0.00431

 Side 1  free  transition at x/c =  0.9359   73
 Side 2  free  transition at x/c =  0.8564   71

 142   rms: 0.1075E+06   max: -.1459E+07   C at  104  2   RLX: 0.000
       a = -4.000      CL = -0.2979
      Cm =  0.0296     CD =  0.00000   =>   CDf =  0.00431    CDp = -0.00431

 Side 1  free  transition at x/c =  0.9359   73
 Side 2  free  transition at x/c =  0.8564   71

 143   rms: 0.7598E+05   max: -.1031E+07   C at  105  2   RLX: 0.000
       a = -4.000      CL = -0.2979
      Cm =  0.0296     CD =  0.00000   =>   CDf =  0.00431    CDp = -0.00431

 Side 1  free  transition at x/c =  0.9359   73
 Side 2  free  transition at x/c =  0.8564   71

 144   rms: 0.2884E+06   max: 0.3914E+07   C at  105  2   RLX: 0.000
       a = -4.000      CL = -0.2979
      Cm =  0.0296     CD =  0.00000   =>   CDf =  0.00431    CDp = -0.00431

 Side 1  free  transition at x/c =  0.9359   73
 Side 2  free  transition at x/c =  0.8564   71

 145   rms: 0.2463E+05   max: -.3343E+06   C at  104  2   RLX: 0.000
       a = -4.000      CL = -0.2979
      Cm =  0.0296     CD =  0.00000   =>   CDf =  0.00431    CDp = -0.00431

 Side 1  free  transition at x/c =  0.9359   73
 Side 2  free  transition at x/c =  0.8564   71

 146   rms: 0.4892E+05   max: 0.6639E+06   C at  105  2   RLX: 0.000
       a = -4.000      CL = -0.2979
      Cm =  0.0296     CD =  0.00000   =>   CDf =  0.00431    CDp = -0.00431

 Side 1  free  transition at x/c =  0.9359   73
 Side 2  free  transition at x/c =  0.8564   71

 147   rms: 0.4762E+05   max: -.6463E+06   C at  103  2   RLX: 0.000
       a = -4.000      CL = -0.2979
      Cm =  0.0296     CD =  0.00000   =>   CDf =  0.00431    CDp = -0.00431

 Side 1  free  transition at x/c =  0.9359   73
 Side 2  free  transition at x/c =  0.8564   71

 148   rms: 0.9208E+05   max: -.1250E+07   C at  104  2   RLX: 0.000
       a = -4.000      CL = -0.2979
      Cm =  0.0296     CD =  0.00000   =>   CDf =  0.00431    CDp = -0.00431

 Side 1  free  transition at x/c =  0.9359   73
 Side 2  free  transition at x/c =  0.8564   71

 149   rms: 0.4632E+04   max: -.6285E+05   C at  104  2   RLX: 0.000
       a = -4.000      CL = -0.2979
      Cm =  0.0296     CD =  0.00000   =>   CDf =  0.00431    CDp = -0.00431

 Side 1  free  transition at x/c =  0.9360   73
 Side 2  free  transition at x/c =  0.8564   71

 150   rms: 0.4610E+05   max: -.6256E+06   C at  105  2   RLX: 0.000
       a = -4.000      CL = -0.2979
      Cm =  0.0296     CD =  0.00000   =>   CDf =  0.00431    CDp = -0.00431

 Side 1  free  transition at x/c =  0.9360   73
 Side 2  free  transition at x/c =  0.8565   71

 151   rms: 0.1028E+06   max: -.1395E+07   C at  105  2   RLX: 0.000
       a = -4.000      CL = -0.2979
      Cm =  0.0296     CD =  0.00000   =>   CDf =  0.00431    CDp = -0.00431

 Side 1  free  transition at x/c =  0.9360   73
 Side 2  free  transition at x/c =  0.8565   71

 152   rms: 0.2415E+06   max: 0.3277E+07   C at  105  2   RLX: 0.000
       a = -4.000      CL = -0.2979
      Cm =  0.0296     CD =  0.00000   =>   CDf =  0.00431    CDp = -0.00431

 Side 1  free  transition at x/c =  0.9360   73
 Side 2  free  transition at x/c =  0.8564   71

[...]
       a = 10.750      CL = -0.2281
      Cm =  0.0178     CD =*********   =>   CDf =  0.00418    CDp =*********

 Side 1  free  transition at x/c =  0.9435   74
 Side 2  free  transition at x/c =  0.9553   79

  86   rms: 0.5144E+06   max: 0.3458E+07   T at   88  2   RLX: 0.000
       a = 10.750      CL = -0.2280
      Cm =  0.0178     CD =*********   =>   CDf =  0.00418    CDp =*********

 Side 1  free  transition at x/c =  0.9435   74
 Side 2  free  transition at x/c =  0.9554   79

  87   rms: 0.1131E+07   max: 0.6728E+07   T at   88  2   RLX: 0.000
       a = 10.750      CL = -0.2279
      Cm =  0.0178     CD =*********   =>   CDf =  0.00418    CDp =*********

 Side 1  free  transition at x/c =  0.9435   74
 Side 2  free  transition at x/c =  0.9554   79

  88   rms: 0.4103E+08   max: -.2984E+09   T at   88  2   RLX: 0.000
       a = 10.750      CL = -0.2279
      Cm =  0.0178     CD =*********   =>   CDf =  0.00418    CDp =*********

 Side 1  free  transition at x/c =  0.9435   74
 Side 2  free  transition at x/c =  0.9554   79

  89   rms: 0.5698E+07   max: 0.4147E+08   T at   88  2   RLX: 0.000
       a = 10.750      CL = -0.2279
      Cm =  0.0178     CD =*********   =>   CDf =  0.00418    CDp =*********

 Side 1  free  transition at x/c =  0.9435   74
 Side 2  free  transition at x/c =  0.9554   79

  90   rms: 0.5545E+06   max: -.4024E+07   T at  103  2   RLX: 0.000
       a = 10.750      CL = -0.2278
      Cm =  0.0178     CD =*********   =>   CDf =  0.00418    CDp =*********

 Side 1  free  transition at x/c =  0.9435   74
 Side 2  free  transition at x/c =  0.9555   79

  91   rms: 0.5155E+06   max: -.2894E+07   C at  104  2   RLX: 0.000
       a = 10.750      CL = -0.2280
      Cm =  0.0178     CD =*********   =>   CDf =  0.00418    CDp =*********

 Side 1  free  transition at x/c =  0.9435   74
 Side 2  free  transition at x/c =  0.9554   79

  92   rms: 0.1133E+08   max: 0.1675E+09   T at   83  2   RLX: 0.000
       a = 10.750      CL = -0.2280
      Cm =  0.0178     CD =*********   =>   CDf =  0.00418    CDp =*********

 Side 1  free  transition at x/c =  0.9435   74
 Side 2  free  transition at x/c =  0.9554   79

  93   rms: 0.7979E+06   max: -.5552E+07   T at   88  2   RLX: 0.000
       a = 10.750      CL = -0.2280
      Cm =  0.0178     CD =*********   =>   CDf =  0.00418    CDp =*********

 Side 1  free  transition at x/c =  0.9435   74
 Side 2  free  transition at x/c =  0.9554   79

  94   rms: 0.2588E+06   max: -.3124E+07   T at  103  2   RLX: 0.000
       a = 10.750      CL = -0.2278
      Cm =  0.0178     CD =*********   =>   CDf =  0.00418    CDp =*********

 Side 1  free  transition at x/c =  0.9435   74
 Side 2  free  transition at x/c =  0.9555   79

  95   rms: 0.5325E+06   max: -.3520E+07   T at   83  2   RLX: 0.000
       a = 10.750      CL = -0.2278
      Cm =  0.0178     CD =*********   =>   CDf =  0.00418    CDp =*********

 Side 1  free  transition at x/c =  0.9435   74
 Side 2  free  transition at x/c =  0.9555   79

  96   rms: 0.4366E+06   max: 0.3635E+07   T at   83  2   RLX: 0.000
       a = 10.750      CL = -0.2279
      Cm =  0.0178     CD =*********   =>   CDf =  0.00418    CDp =*********

 Side 1  free  transition at x/c =  0.9435   74
 Side 2  free  transition at x/c =  0.9555   79

  97   rms: 0.1366E+07   max: 0.9604E+07   T at   88  2   RLX: 0.000
       a = 10.750      CL = -0.2279
      Cm =  0.0178     CD =*********   =>   CDf =  0.00418    CDp =*********

 Side 1  free  transition at x/c =  0.9435   74
 Side 2  free  transition at x/c =  0.9555   79

  98   rms: 0.1188E+07   max: 0.8422E+07   T at   88  2   RLX: 0.000
       a = 10.750      CL = -0.2279
      Cm =  0.0178     CD =*********   =>   CDf =  0.00418    CDp =*********

 Side 1  free  transition at x/c =  0.9435   74
 Side 2  free  transition at x/c =  0.9555   79

  99   rms: 0.1042E+07   max: -.7580E+07   T at   88  2   RLX: 0.000
       a = 10.750      CL = -0.2278
      Cm =  0.0178     CD =*********   =>   CDf =  0.00418    CDp =*********

 Side 1  free  transition at x/c =  0.9435   74
 Side 2  free  transition at x/c =  0.9555   79

 100   rms: 0.3086E+06   max: 0.3411E+07   T at   86  2   RLX: 0.000
       a = 10.750      CL = -0.2277
      Cm =  0.0177     CD =*********   =>   CDf =  0.00418    CDp =*********

 Side 1  free  transition at x/c =  0.9435   74
 Side 2  free  transition at x/c =  0.9556   79

 101   rms: 0.1236E+08   max: -.8886E+08   T at   88  2   RLX: 0.000
       a = 10.750      CL = -0.2277
      Cm =  0.0177     CD =*********   =>   CDf =  0.00418    CDp =*********

 Side 1  free  transition at x/c =  0.9435   74
 Side 2  free  transition at x/c =  0.9556   79

 102   rms: 0.3672E+06   max: -.4221E+07   T at  103  2   RLX: 0.000
       a = 10.750      CL = -0.2278
      Cm =  0.0177     CD =*********   =>   CDf =  0.00418    CDp =*********

 Side 1  free  transition at x/c =  0.9435   74
 Side 2  free  transition at x/c =  0.9556   79

 103   rms: 0.1420E+08   max: -.1036E+09   T at   88  2   RLX: 0.000
       a = 10.750      CL = -0.2277
      Cm =  0.0177     CD =*********   =>   CDf =  0.00418    CDp =*********

 Side 1  free  transition at x/c =  0.9435   74
 Side 2  free  transition at x/c =  0.9556   79

 104   rms: 0.1512E+07   max: -.1792E+08   T at   86  2   RLX: 0.000
       a = 10.750      CL = -0.2278
      Cm =  0.0177     CD =*********   =>   CDf =  0.00418    CDp =*********

 Side 1  free  transition at x/c =  0.9435   74
 Side 2  free  transition at x/c =  0.9556   79

 105   rms: 0.7921E+06   max: -.5743E+07   T at   88  2   RLX: 0.000
       a = 10.750      CL = -0.2277
      Cm =  0.0177     CD =*********   =>   CDf =  0.00418    CDp =*********

 Side 1  free  transition at x/c =  0.9435   74
 Side 2  free  transition at x/c =  0.9556   79

 106   rms: 0.1791E+07   max: 0.1464E+08   T at   83  2   RLX: 0.000
       a = 10.750      CL = -0.2277
      Cm =  0.0177     CD =*********   =>   CDf =  0.00418    CDp =*********

 Side 1  free  transition at x/c =  0.9435   74
 Side 2  free  transition at x/c =  0.9556   79

 107   rms: 0.8553E+07   max: 0.6312E+08   T at   88  2   RLX: 0.000
       a = 10.750      CL = -0.2277
      Cm =  0.0177     CD =*********   =>   CDf =  0.00418    CDp =*********

 Side 1  free  transition at x/c =  0.9435   74
 Side 2  free  transition at x/c =  0.9556   79

 108   rms: 0.4084E+07   max: -.2985E+08   T at   88  2   RLX: 0.000
       a = 10.750      CL = -0.2277
      Cm =  0.0177     CD =*********   =>   CDf =  0.00418    CDp =*********

 Side 1  free  transition at x/c =  0.9435   74
 Side 2  free  transition at x/c =  0.9556   79

 109   rms: 0.1202E+08   max: -.8869E+08   T at   88  2   RLX: 0.000
       a = 10.750      CL = -0.2277
      Cm =  0.0177     CD =*********   =>   CDf =  0.00418    CDp =*********

 Side 1  free  transition at x/c =  0.9435   74
 Side 2  free  transition at x/c =  0.9556   79

 110   rms: 0.4493E+06   max: -.4138E+07   T at   83  2   RLX: 0.000
       a = 10.750      CL = -0.2276
      Cm =  0.0177     CD =*********   =>   CDf =  0.00418    CDp =*********

 Side 1  free  transition at x/c =  0.9436   74
 Side 2  free  transition at x/c =  0.9557   79

 111   rms: 0.3385E+06   max: -.2766E+07   T at   83  2   RLX: 0.000
       a = 10.750      CL = -0.2275
      Cm =  0.0177     CD =*********   =>   CDf =  0.00418    CDp =*********

 Side 1  free  transition at x/c =  0.9436   74
 Side 2  free  transition at x/c =  0.9557   79

 112   rms: 0.1014E+07   max: -.6376E+07   T at   88  2   RLX: 0.000
       a = 10.750      CL = -0.2275
      Cm =  0.0177     CD =*********   =>   CDf =  0.00418    CDp =*********

 Side 1  free  transition at x/c =  0.9436   74
 Side 2  free  transition at x/c =  0.9558   79

 113   rms: 0.3004E+07   max: 0.1763E+08   C at   92  2   RLX: 0.000
       a = 10.750      CL = -0.2275
      Cm =  0.0177     CD =*********   =>   CDf =  0.00418    CDp =*********

 Side 1  free  transition at x/c =  0.9436   74
 Side 2  free  transition at x/c =  0.9558   79

 114   rms: 0.1205E+08   max: 0.7136E+08   C at  104  2   RLX: 0.000
       a = 10.750      CL = -0.2275
      Cm =  0.0177     CD =*********   =>   CDf =  0.00418    CDp =*********

 Side 1  free  transition at x/c =  0.9436   74
 Side 2  free  transition at x/c =  0.9558   79

 115   rms: 0.1207E+09   max: 0.7146E+09   C at   88  2   RLX: 0.000
       a = 10.750      CL = -0.2275
      Cm =  0.0177     CD =*********   =>   CDf =  0.00418    CDp =*********

 Side 1  free  transition at x/c =  0.9436   74
 Side 2  free  transition at x/c =  0.9558   79

 116   rms: 0.4243E+07   max: -.2349E+08   C at  104  2   RLX: 0.000
       a = 10.750      CL = -0.2275
      Cm =  0.0177     CD =*********   =>   CDf =  0.00418    CDp =*********

 Side 1  free  transition at x/c =  0.9436   74
 Side 2  free  transition at x/c =  0.9558   79

 117   rms: 0.9384E+08   max: -.5553E+09   C at  104  2   RLX: 0.000
       a = 10.750      CL = -0.2275
      Cm =  0.0177     CD =*********   =>   CDf =  0.00418    CDp =*********

 Side 1  free  transition at x/c =  0.9436   74
 Side 2  free  transition at x/c =  0.9557   79

 118   rms: 0.2128E+09   max: -.1259E+10   C at  103  2   RLX: 0.000
       a = 10.750      CL = -0.2275
      Cm =  0.0177     CD =*********   =>   CDf =  0.00418    CDp =*********

 Side 1  free  transition at x/c =  0.9436   74
 Side 2  free  transition at x/c =  0.9557   79

 119   rms: 0.7105E+07   max: -.4206E+08   C at  104  2   RLX: 0.000
       a = 10.750      CL = -0.2276
      Cm =  0.0177     CD =*********   =>   CDf =  0.00418    CDp =*********

 Side 1  free  transition at x/c =  0.9436   74
 Side 2  free  transition at x/c =  0.9557   79

 120   rms: 0.4907E+08   max: 0.2905E+09   C at   88  2   RLX: 0.000
       a = 10.750      CL = -0.2276
      Cm =  0.0177     CD =*********   =>   CDf =  0.00418    CDp =*********

 Side 1  free  transition at x/c =  0.9436   74
 Side 2  free  transition at x/c =  0.9557   79

 121   rms: 0.6925E+08   max: -.4096E+09   C at  104  2   RLX: 0.000
       a = 10.750      CL = -0.2276
      Cm =  0.0177     CD =*********   =>   CDf =  0.00418    CDp =*********

 Side 1  free  transition at x/c =  0.9436   74
 Side 2  free  transition at x/c =  0.9557   79

 122   rms: 0.3696E+07   max: 0.2004E+08   C at   88  2   RLX: 0.000
       a = 10.750      CL = -0.2277
      Cm =  0.0177     CD =*********   =>   CDf =  0.00418    CDp =*********

 Side 1  free  transition at x/c =  0.9436   74
 Side 2  free  transition at x/c =  0.9556   79

 123   rms: 0.2296E+07   max: 0.1352E+08   C at  104  2   RLX: 0.000
       a = 10.750      CL = -0.2276
      Cm =  0.0177     CD =*********   =>   CDf =  0.00418    CDp =*********

 Side 1  free  transition at x/c =  0.9436   74
 Side 2  free  transition at x/c =  0.9557   79

 124   rms: 0.8995E+06   max: -.6451E+07   T at   88  2   RLX: 0.000
       a = 10.750      CL = -0.2276
      Cm =  0.0177     CD =*********   =>   CDf =  0.00418    CDp =*********

 Side 1  free  transition at x/c =  0.9436   74
 Side 2  free  transition at x/c =  0.9557   79

 125   rms: 0.2056E+07   max: 0.1153E+08   T at   88  2   RLX: 0.000
       a = 10.750      CL = -0.2276
      Cm =  0.0177     CD =*********   =>   CDf =  0.00418    CDp =*********

 Side 1  free  transition at x/c =  0.9436   74
 Side 2  free  transition at x/c =  0.9557   79

 126   rms: 0.6268E+06   max: -.6394E+07   T at  103  2   RLX: 0.000
       a = 10.750      CL = -0.2274
      Cm =  0.0177     CD =*********   =>   CDf =  0.00418    CDp =*********

 Side 1  free  transition at x/c =  0.9436   74
 Side 2  free  transition at x/c =  0.9558   79

 127   rms: 0.1142E+08   max: 0.8464E+08   T at   88  2   RLX: 0.000
       a = 10.750      CL = -0.2274
      Cm =  0.0177     CD =*********   =>   CDf =  0.00418    CDp =*********

 Side 1  free  transition at x/c =  0.9436   74
 Side 2  free  transition at x/c =  0.9558   79

 128   rms: 0.2448E+07   max: -.1809E+08   T at   88  2   RLX: 0.000
       a = 10.750      CL = -0.2274
      Cm =  0.0177     CD =*********   =>   CDf =  0.00418    CDp =*********

 Side 1  free  transition at x/c =  0.9436   74
 Side 2  free  transition at x/c =  0.9558   79

 129   rms: 0.5921E+06   max: 0.6373E+07   T at  103  2   RLX: 0.000
       a = 10.750      CL = -0.2276
      Cm =  0.0177     CD =*********   =>   CDf =  0.00418    CDp =*********

 Side 1  free  transition at x/c =  0.9436   74
 Side 2  free  transition at x/c =  0.9557   79

 130   rms: 0.5982E+09   max: -.3542E+10   C at   88  2   RLX: 0.000
       a = 10.750      CL = -0.2276
      Cm =  0.0177     CD =*********   =>   CDf =  0.00418    CDp =*********

 Side 1  free  transition at x/c =  0.9436   74
 Side 2  free  transition at x/c =  0.9557   79

 131   rms: 0.1299E+08   max: 0.7499E+08   C at   87  2   RLX: 0.000
       a = 10.750      CL = -0.2276
      Cm =  0.0177     CD =*********   =>   CDf =  0.00418    CDp =*********

 Side 1  free  transition at x/c =  0.9436   74
 Side 2  free  transition at x/c =  0.9557   79

 132   rms: 0.4611E+08   max: -.2730E+09   C at   88  2   RLX: 0.000
       a = 10.750      CL = -0.2276
      Cm =  0.0177     CD =*********   =>   CDf =  0.00418    CDp =*********

 Side 1  free  transition at x/c =  0.9436   74
 Side 2  free  transition at x/c =  0.9557   79

 133   rms: 0.2583E+08   max: -.1528E+09   C at   87  2   RLX: 0.000
       a = 10.750      CL = -0.2275
      Cm =  0.0177     CD =*********   =>   CDf =  0.00418    CDp =*********

 Side 1  free  transition at x/c =  0.9436   74
 Side 2  free  transition at x/c =  0.9557   79

 134   rms: 0.4875E+07   max: -.2755E+08   C at  104  2   RLX: 0.000
       a = 10.750      CL = -0.2276
      Cm =  0.0177     CD =*********   =>   CDf =  0.00418    CDp =*********

 Side 1  free  transition at x/c =  0.9436   74
 Side 2  free  transition at x/c =  0.9557   79

 135   rms: 0.3099E+07   max: 0.1611E+08   C at  104  2   RLX: 0.000
       a = 10.750      CL = -0.2275
      Cm =  0.0177     CD =*********   =>   CDf =  0.00418    CDp =*********

 Side 1  free  transition at x/c =  0.9436   74
 Side 2  free  transition at x/c =  0.9557   79

 136   rms: 0.1826E+07   max: 0.9105E+07   C at  104  2   RLX: 0.000
       a = 10.750      CL = -0.2275
      Cm =  0.0177     CD =*********   =>   CDf =  0.00418    CDp =*********

 Side 1  free  transition at x/c =  0.9436   74
 Side 2  free  transition at x/c =  0.9558   79

 137   rms: 0.1504E+08   max: 0.1033E+09   T at   88  2   RLX: 0.000
       a = 10.750      CL = -0.2275
      Cm =  0.0177     CD =*********   =>   CDf =  0.00418    CDp =*********

 Side 1  free  transition at x/c =  0.9436   74
 Side 2  free  transition at x/c =  0.9558   79

 138   rms: 0.4332E+07   max: 0.2504E+08   C at  103  2   RLX: 0.000
       a = 10.750      CL = -0.2274
      Cm =  0.0177     CD =*********   =>   CDf =  0.00418    CDp =*********

 Side 1  free  transition at x/c =  0.9436   74
 Side 2  free  transition at x/c =  0.9558   79

 139   rms: 0.2383E+09   max: -.1411E+10   C at  104  2   RLX: 0.000
       a = 10.750      CL = -0.2274
      Cm =  0.0177     CD =*********   =>   CDf =  0.00418    CDp =*********

 Side 1  free  transition at x/c =  0.9436   74
 Side 2  free  transition at x/c =  0.9558   79

 140   rms: 0.2705E+06   max: 0.3648E+07   T at  103  2   RLX: 0.000
       a = 10.750      CL = -0.2275
      Cm =  0.0177     CD =*********   =>   CDf =  0.00418    CDp =*********

 Side 1  free  transition at x/c =  0.9436   74
 Side 2  free  transition at x/c =  0.9558   79

 141   rms: 0.1372E+09   max: 0.8123E+09   C at   88  2   RLX: 0.000
       a = 10.750      CL = -0.2274
      Cm =  0.0177     CD =*********   =>   CDf =  0.00418    CDp =*********

 Side 1  free  transition at x/c =  0.9436   74
 Side 2  free  transition at x/c =  0.9558   79

 142   rms: 0.4669E+07   max: 0.2650E+08   C at  103  2   RLX: 0.000
       a = 10.750      CL = -0.2274
      Cm =  0.0177     CD =*********   =>   CDf =  0.00418    CDp =*********

 Side 1  free  transition at x/c =  0.9436   74
 Side 2  free  transition at x/c =  0.9558   79

 143   rms: 0.8999E+07   max: 0.5082E+08   T at   88  2   RLX: 0.000
       a = 10.750      CL = -0.2274
      Cm =  0.0177     CD =*********   =>   CDf =  0.00418    CDp =*********

 Side 1  free  transition at x/c =  0.9436   74
 Side 2  free  transition at x/c =  0.9558   79

 144   rms: 0.4851E+07   max: 0.3114E+08   T at   88  2   RLX: 0.000
       a = 10.750      CL = -0.2274
      Cm =  0.0177     CD =*********   =>   CDf =  0.00418    CDp =*********

 Side 1  free  transition at x/c =  0.9436   74
 Side 2  free  transition at x/c =  0.9559   79

 145   rms: 0.2134E+07   max: -.1581E+08   T at   88  2   RLX: 0.000
       a = 10.750      CL = -0.2274
      Cm =  0.0177     CD =*********   =>   CDf =  0.00418    CDp =*********

 Side 1  free  transition at x/c =  0.9436   74
 Side 2  free  transition at x/c =  0.9558   79

 146   rms: 0.5300E+07   max: 0.3060E+08   T at   88  2   RLX: 0.000
       a = 10.750      CL = -0.2275
      Cm =  0.0177     CD =*********   =>   CDf =  0.00418    CDp =*********

 Side 1  free  transition at x/c =  0.9436   74
 Side 2  free  transition at x/c =  0.9558   79

 147   rms: 0.1277E+06   max: 0.2871E+07   T at  103  2   RLX: 0.000
       a = 10.750      CL = -0.2276
      Cm =  0.0177     CD =*********   =>   CDf =  0.00418    CDp =*********

 Side 1  free  transition at x/c =  0.9436   74
 Side 2  free  transition at x/c =  0.9557   79

 148   rms: 0.1598E+07   max: 0.1144E+08   T at   88  2   RLX: 0.000
       a = 10.750      CL = -0.2276
      Cm =  0.0177     CD =*********   =>   CDf =  0.00418    CDp =*********

 Side 1  free  transition at x/c =  0.9436   74
 Side 2  free  transition at x/c =  0.9557   79

 149   rms: 0.2014E+08   max: 0.1398E+09   T at   88  2   RLX: 0.000
       a = 10.750      CL = -0.2276
      Cm =  0.0177     CD =*********   =>   CDf =  0.00418    CDp =*********

 Side 1  free  transition at x/c =  0.9436   74
 Side 2  free  transition at x/c =  0.9557   79

 150   rms: 0.1329E+08   max: 0.9302E+08   T at   83  2   RLX: 0.000
       a = 10.750      CL = -0.2276
      Cm =  0.0177     CD =*********   =>   CDf =  0.00418    CDp =*********

 Side 1  free  transition at x/c =  0.9436   74
 Side 2  free  transition at x/c =  0.9557   79

 151   rms: 0.4666E+07   max: -.2938E+08   T at   83  2   RLX: 0.000
       a = 10.750      CL = -0.2276
      Cm =  0.0177     CD =*********   =>   CDf =  0.00418    CDp =*********

 Side 1  free  transition at x/c =  0.9436   74
 Side 2  free  transition at x/c =  0.9557   79

 152   rms: 0.4473E+07   max: -.2768E+08   T at   83  2   RLX: 0.000
       a = 10.750      CL = -0.2276
      Cm =  0.0177     CD =*********   =>   CDf =  0.00418    CDp =*********

 Side 1  free  transition at x/c =  0.9436   74
 Side 2  free  transition at x/c =  0.9557   79

 153   rms: 0.3039E+08   max: 0.2205E+09   T at   88  2   RLX: 0.000
       a = 10.750      CL = -0.2276
      Cm =  0.0177     CD =*********   =>   CDf =  0.00418    CDp =*********

 Side 1  free  transition at x/c =  0.9436   74
 Side 2  free  transition at x/c =  0.9557   79

 154   rms: 0.6016E+07   max: 0.3908E+08   T at   88  2   RLX: 0.000
       a = 10.750      CL = -0.2276
      Cm =  0.0177     CD =*********   =>   CDf =  0.00418    CDp =*********

 Side 1  free  transition at x/c =  0.9436   74
 Side 2  free  transition at x/c =  0.9557   79

 155   rms: 0.1348E+07   max: 0.9543E+07   T at   88  2   RLX: 0.000
       a = 10.750      CL = -0.2276
      Cm =  0.0177     CD =*********   =>   CDf =  0.00418    CDp =*********
 VISCAL:  Convergence failed

 Sequence halted since previous  4 points did not converge
 Last-converged  alpha =  -2.500    CL =  -0.29916

.OPERva   c>  
 Polar accumulation disabled

.OPERv   c>  
 XFOIL   c>  
 XFOIL   c>  