
 ===================================================
  XFOIL Version 6.99
  Copyright (C) 2000   Mark Drela, Harold Youngren

  This software comes with ABSOLUTELY NO WARRANTY,
    subject to the GNU General Public License.

  Caveat computor
 ===================================================

 File  xfoil.def  not found

   QUIT    Exit program

  .OPER    Direct operating point(s)
  .MDES    Complex mapping design routine
  .QDES    Surface speed design routine
  .GDES    Geometry design routine

   SAVE f  Write airfoil to labeled coordinate file
   PSAV f  Write airfoil to plain coordinate file
   ISAV f  Write airfoil to ISES coordinate file
   MSAV f  Write airfoil to MSES coordinate file
   REVE    Reverse written-airfoil node ordering

   LOAD f  Read buffer airfoil from coordinate file
   NACA i  Set NACA 4,5-digit airfoil and buffer airfoil
   INTE    Set buffer airfoil by interpolating two airfoils
   NORM    Buffer airfoil normalization toggle
   XYCM rr Change CM reference location, currently  0.25000 0.00000

   BEND    Display structural properties of current airfoil

   PCOP    Set current-airfoil panel nodes directly from buffer airfoil points
   PANE    Set current-airfoil panel nodes ( 160 ) based on curvature
  .PPAR    Show/change paneling

  .PLOP    Plotting options

   WDEF f  Write  current-settings file
   RDEF f  Reread current-settings file
   NAME s  Specify new airfoil name
   NINC    Increment name version number

   Z       Zoom    | (available in all menus)
   U       Unzoom  | 

 XFOIL   c>  
 Labeled airfoil file.  Name:  NACA M15 AIRFOIL                                

 Number of input coordinate points:  33
 Counterclockwise ordering
 Max thickness =     0.120003  at x =   0.300
 Max camber    =     0.037701  at x =   0.300

  LE  x,y  =  -0.00003   0.00091  |   Chord =   1.00003
  TE  x,y  =   1.00000   0.00000  |

 Current airfoil nodes set from buffer airfoil nodes (  33 )

 WARNING: Poor input coordinate distribution
          Excessive panel angle   68.7  at i =  17
          Repaneling with PANE and/or PPAR suggested
           (doing GDES,CADD before repaneling _may_
            improve excessively coarse LE spacing

 XFOIL   c>  
 XFOIL   c>  
 Blunt trailing edge.  Gap =  0.00450

 Paneling parameters used...
   Number of panel nodes       160
   Panel bunching parameter    1.000
   TE/LE panel density ratio   0.150
   Refined-area/LE panel density ratio    0.200
   Top    side refined area x/c limits  1.000 1.000
   Bottom side refined area x/c limits  1.000 1.000

 XFOIL   c>  
.OPERi   c>  
 Xtr/c     =  1.0000    top    side
 Xtr/c     =  1.0000    bottom side
 Ncrit     =    9.00   ( 0.070 % turb. level )
 Vacc      =  0.0100

 Klag  =  5.6000     Uxwt  =    1.00
 A     =  6.7000     B     =  0.7500       KCt = 0.01485
 CtiniK=  1.8000     CtiniX=  3.3000

..VPAR   c>  
..VPAR   c>  
.OPERi   c>  
 M  =    0.0000
 Re =    600000

.OPERv   c>  
.OPERv   c>  
.OPERv   c>  
 Polar  1 newly created for accumulation
 Airfoil archived with polar: NACA M15 AIRFOIL                                

Enter  polar save filename  OR  <return> for no file   s>  
 New polar save file available

Enter  polar dump filename  OR  <return> for no file   s>  
 Polar dump file will NOT be written

 Polar accumulation enabled

.OPERva   c>   Calculating unit vorticity distributions ...
 Calculating wake trajectory ...
 Calculating source influence matrix ...

 Solving BL system ...

 Initializing BL ...
    side            1  ...
 MRCHUE: Inverse mode at  46     Hk =   4.085
 MRCHUE: Inverse mode at  47     Hk =   4.883
 MRCHUE: Inverse mode at  48     Hk =   5.671
 MRCHUE: Inverse mode at  49     Hk =   6.453
 MRCHUE: Inverse mode at  50     Hk =   7.229
 MRCHUE: Inverse mode at  51     Hk =   7.998
 MRCHUE: Inverse mode at  52     Hk =   8.759
 MRCHUE: Inverse mode at  53     Hk =   6.726
 MRCHUE: Inverse mode at  54     Hk =   4.177
 MRCHUE: Inverse mode at  55     Hk =   2.604
    side            2  ...
 MRCHUE: Inverse mode at  21     Hk =   4.031
 MRCHUE: Inverse mode at  22     Hk =   5.287
 MRCHUE: Convergence failed at  23  side 2    Res =  0.1112E+03
 MRCHUE: Inverse mode at  24     Hk =   6.759
 MRCHUE: Inverse mode at  25     Hk =   8.322
 MRCHUE: Inverse mode at  26     Hk =   5.381
 MRCHUE: Inverse mode at  27     Hk =   2.500
 MRCHUE: Inverse mode at  87     Hk =   2.500

 MRCHDU: Convergence failed at  26  side 2    Res =  0.2433E+02
 MRCHDU: Convergence failed at  27  side 2    Res =  0.6840E+01
 MRCHDU: Convergence failed at  28  side 2    Res =  0.6671E+03
 MRCHDU: Convergence failed at  29  side 2    Res =  0.2622E+03
 MRCHDU: Convergence failed at  30  side 2    Res =  0.1004E+03
 MRCHDU: Convergence failed at  31  side 2    Res =  0.4312E+02
 MRCHDU: Convergence failed at  32  side 2    Res =  0.1607E+02
 MRCHDU: Convergence failed at  33  side 2    Res =  0.2488E+02
 MRCHDU: Convergence failed at  34  side 2    Res =  0.4768E+02
 MRCHDU: Convergence failed at  35  side 2    Res =  0.5582E+02
 MRCHDU: Convergence failed at  36  side 2    Res =  0.6425E+02
 MRCHDU: Convergence failed at  37  side 2    Res =  0.7272E+02
 MRCHDU: Convergence failed at  38  side 2    Res =  0.8140E+02
 MRCHDU: Convergence failed at  39  side 2    Res =  0.2389E+02
 MRCHDU: Convergence failed at  40  side 2    Res =  0.2347E+02
 MRCHDU: Convergence failed at  41  side 2    Res =  0.2505E+02
 MRCHDU: Convergence failed at  42  side 2    Res =  0.2641E+02
 MRCHDU: Convergence failed at  43  side 2    Res =  0.2729E+02
 MRCHDU: Convergence failed at  44  side 2    Res =  0.2754E+02
 MRCHDU: Convergence failed at  45  side 2    Res =  0.2744E+02
 MRCHDU: Convergence failed at  46  side 2    Res =  0.2720E+02
 MRCHDU: Convergence failed at  47  side 2    Res =  0.2692E+02
 MRCHDU: Convergence failed at  48  side 2    Res =  0.2664E+02
 MRCHDU: Convergence failed at  49  side 2    Res =  0.2652E+02
 MRCHDU: Convergence failed at  50  side 2    Res =  0.2665E+02
 MRCHDU: Convergence failed at  51  side 2    Res =  0.2694E+02
 MRCHDU: Convergence failed at  52  side 2    Res =  0.2721E+02
 MRCHDU: Convergence failed at  53  side 2    Res =  0.2749E+02
 MRCHDU: Convergence failed at  54  side 2    Res =  0.2761E+02
 MRCHDU: Convergence failed at  55  side 2    Res =  0.2766E+02
 MRCHDU: Convergence failed at  56  side 2    Res =  0.2752E+02
 MRCHDU: Convergence failed at  57  side 2    Res =  0.2734E+02
 MRCHDU: Convergence failed at  58  side 2    Res =  0.2727E+02
 MRCHDU: Convergence failed at  59  side 2    Res =  0.2726E+02
 MRCHDU: Convergence failed at  60  side 2    Res =  0.2744E+02
 MRCHDU: Convergence failed at  61  side 2    Res =  0.2793E+02
 MRCHDU: Convergence failed at  62  side 2    Res =  0.2887E+02
 MRCHDU: Convergence failed at  63  side 2    Res =  0.3013E+02
 MRCHDU: Convergence failed at  64  side 2    Res =  0.3154E+02
 MRCHDU: Convergence failed at  65  side 2    Res =  0.3295E+02
 MRCHDU: Convergence failed at  66  side 2    Res =  0.3442E+02
 MRCHDU: Convergence failed at  67  side 2    Res =  0.3549E+02
 MRCHDU: Convergence failed at  68  side 2    Res =  0.3577E+02
 MRCHDU: Convergence failed at  69  side 2    Res =  0.3569E+02
 MRCHDU: Convergence failed at  70  side 2    Res =  0.3591E+02
 MRCHDU: Convergence failed at  71  side 2    Res =  0.3619E+02
 MRCHDU: Convergence failed at  72  side 2    Res =  0.3719E+02
 MRCHDU: Convergence failed at  73  side 2    Res =  0.3888E+02
 MRCHDU: Convergence failed at  74  side 2    Res =  0.4391E+02
 MRCHDU: Convergence failed at  75  side 2    Res =  0.4746E+02
 MRCHDU: Convergence failed at  76  side 2    Res =  0.5192E+02
 MRCHDU: Convergence failed at  77  side 2    Res =  0.5955E+02
 MRCHDU: Convergence failed at  78  side 2    Res =  0.6792E+02
 MRCHDU: Convergence failed at  79  side 2    Res =  0.8719E+02
 MRCHDU: Convergence failed at  80  side 2    Res =  0.1569E+03
 MRCHDU: Convergence failed at  81  side 2    Res =  0.1131E+03
 MRCHDU: Convergence failed at  82  side 2    Res =  0.8311E+02
 MRCHDU: Convergence failed at  83  side 2    Res =  0.5012E+02
 MRCHDU: Convergence failed at  84  side 2    Res =  0.5611E+02
 MRCHDU: Convergence failed at  85  side 2    Res =  0.7256E+02
 MRCHDU: Convergence failed at  86  side 2    Res =  0.5195E+02
 MRCHDU: Convergence failed at  87  side 2    Res =  0.1835E+03
 Side 1  free  transition at x/c =  0.6591   53
 Side 2  free  transition at x/c =  0.0449   26

   1   rms: 0.1478E+01   max: 0.1633E+01   D at   90  2   RLX: 0.359
       a = -4.000      CL = -1.3429
      Cm =  0.3073     CD =  0.00507   =>   CDf =  0.00301    CDp =  0.00207

 MRCHDU: Convergence failed at  35  side 2    Res =  0.3512E-01
 MRCHDU: Convergence failed at  44  side 2    Res =  0.2781E-01
 MRCHDU: Convergence failed at  56  side 2    Res =  0.4500E-01
 MRCHDU: Convergence failed at  76  side 2    Res =  0.2017E+01
 Side 1  free  transition at x/c =  0.6682   53
 Side 2  free  transition at x/c =  0.0393   25

   2   rms: 0.5418E+00   max: 0.7698E+00   D at   94  2   RLX: 0.391
       a = -4.000      CL = -0.6142
      Cm =  0.0943     CD =  0.01956   =>   CDf =  0.00588    CDp =  0.01368

 MRCHDU: Convergence failed at  55  side 1    Res =  0.2235E+01
 MRCHDU: Convergence failed at  35  side 2    Res =  0.5858E-01
 MRCHDU: Convergence failed at  44  side 2    Res =  0.8943E-01
 MRCHDU: Convergence failed at  56  side 2    Res =  0.1278E+00
 MRCHDU: Convergence failed at  57  side 2    Res =  0.3729E+00
 Side 1  free  transition at x/c =  0.6822   54
 Side 2  free  transition at x/c =  0.0387   25

   3   rms: 0.5687E+00   max: -.2613E+01   D at   31  2   RLX: 0.191
       a = -4.000      CL = -0.4046
      Cm =  0.0258     CD =  0.01810   =>   CDf =  0.00521    CDp =  0.01290

 MRCHDU: Convergence failed at  35  side 2    Res =  0.3478E-01
 MRCHDU: Convergence failed at  44  side 2    Res =  0.6883E-01
 MRCHDU: Convergence failed at  74  side 2    Res =  0.2231E-02
 MRCHDU: Convergence failed at  75  side 2    Res =  0.1362E-02
 Side 1  free  transition at x/c =  0.6846   54
 Side 2  free  transition at x/c =  0.0387   25

   4   rms: 0.2301E+01   max: -.1587E+02   D at   31  2   RLX: 0.031
       a = -4.000      CL = -0.3726
      Cm =  0.0132     CD =  0.01830   =>   CDf =  0.00561    CDp =  0.01269

 MRCHDU: Convergence failed at  30  side 2    Res =  0.7630E+01
 MRCHDU: Convergence failed at  31  side 2    Res =  0.1476E+01
 MRCHDU: Convergence failed at  32  side 2    Res =  0.7340E+00
 MRCHDU: Convergence failed at  33  side 2    Res =  0.8795E+01
 MRCHDU: Convergence failed at  34  side 2    Res =  0.8099E+01
 MRCHDU: Convergence failed at  75  side 2    Res =  0.3833E-02
 Side 1  free  transition at x/c =  0.6854   55
 Side 2  free  transition at x/c =  0.0388   25

   5   rms: 0.8389E+00   max: -.4120E+01   D at   74  2   RLX: 0.121
       a = -4.000      CL = -0.4205
      Cm = -0.0140     CD =  0.01724   =>   CDf =  0.00678    CDp =  0.01046

 MRCHDU: Convergence failed at  73  side 2    Res =  0.1202E+00
 MRCHDU: Convergence failed at  74  side 2    Res =  0.8355E+00
 MRCHDU: Convergence failed at  75  side 2    Res =  0.6209E+00
 MRCHDU: Convergence failed at  76  side 2    Res =  0.6432E+00
 MRCHDU: Convergence failed at  77  side 2    Res =  0.3010E+00
 MRCHDU: Convergence failed at  78  side 2    Res =  0.2913E+00
 MRCHDU: Convergence failed at  79  side 2    Res =  0.2793E+00
 MRCHDU: Convergence failed at  80  side 2    Res =  0.2668E+00
 MRCHDU: Convergence failed at  81  side 2    Res =  0.2548E+00
 MRCHDU: Convergence failed at  82  side 2    Res =  0.2438E+00
 MRCHDU: Convergence failed at  83  side 2    Res =  0.2342E+00
 MRCHDU: Convergence failed at  84  side 2    Res =  0.2257E+00
 MRCHDU: Convergence failed at  85  side 2    Res =  0.2184E+00
 MRCHDU: Convergence failed at  86  side 2    Res =  0.2172E+00
 Side 1  free  transition at x/c =  0.6872   56
 Side 2  free  transition at x/c =  0.0389   24
 idif Ue xi dudx           1  0.14539620      2.99870968E-03   48.486256    
 Uenew xinew           2  2.41315514E-02  4.97698784E-04

   6   rms: 0.2090E+01   max: -.8062E+01   D at   61  2   RLX: 0.062
       a = -4.000      CL = -0.3416
      Cm = -0.0886     CD =  0.02050   =>   CDf =  0.00556    CDp =  0.01495

 Side 1  free  transition at x/c =  0.6877   55
 Side 2  free  transition at x/c =  0.0385   25

   7   rms: 0.2321E+01   max: -.8438E+01   D at   69  2   RLX: 0.059
       a = -4.000      CL = -0.3718
      Cm = -0.0919     CD =  0.02003   =>   CDf =  0.00592    CDp =  0.01411

 Side 1  free  transition at x/c =  0.6880   55
 Side 2  free  transition at x/c =  0.0381   25

   8   rms: 0.1376E+01   max: 0.4316E+01   D at   51  2   RLX: 0.143
       a = -4.000      CL = -0.2821
      Cm = -0.0751     CD =  0.02693   =>   CDf =  0.00616    CDp =  0.02076

 Side 1  free  transition at x/c =  0.6907   55
 Side 2  free  transition at x/c =  0.0385   25

   9   rms: 0.1330E+01   max: -.4822E+01   D at   64  2   RLX: 0.104
       a = -4.000      CL = -0.2804
      Cm = -0.0890     CD =  0.02141   =>   CDf =  0.00560    CDp =  0.01581

 Side 1  free  transition at x/c =  0.6917   55
 Side 2  free  transition at x/c =  0.0381   25

  10   rms: 0.1181E+01   max: -.7037E+01   D at   39  2   RLX: 0.071
       a = -4.000      CL = -0.2999
      Cm = -0.0795     CD =  0.02129   =>   CDf =  0.00570    CDp =  0.01559

 MRCHDU: Convergence failed at  37  side 2    Res =  0.1842E+02
 MRCHDU: Convergence failed at  38  side 2    Res =  0.4120E+00
 MRCHDU: Convergence failed at  39  side 2    Res =  0.1220E+01
 MRCHDU: Convergence failed at  40  side 2    Res =  0.7750E+00
 MRCHDU: Convergence failed at  41  side 2    Res =  0.8321E+00
 MRCHDU: Convergence failed at  42  side 2    Res =  0.2513E+01
 MRCHDU: Convergence failed at  43  side 2    Res =  0.1317E+01
 Side 1  free  transition at x/c =  0.6924   55
 Side 2  free  transition at x/c =  0.0380   25

  11   rms: 0.1138E+01   max: -.3953E+01   D at   71  2   RLX: 0.126
       a = -4.000      CL = -0.4390
      Cm = -0.0672     CD =  0.01764   =>   CDf =  0.00665    CDp =  0.01100

 Side 1  free  transition at x/c =  0.6932   55
 Side 2  free  transition at x/c =  0.0377   25

  12   rms: 0.7170E+00   max: -.2456E+01   D at   72  2   RLX: 0.204
       a = -4.000      CL = -0.4031
      Cm = -0.0601     CD =  0.01493   =>   CDf =  0.00656    CDp =  0.00838

 Side 1  free  transition at x/c =  0.6947   55
 Side 2  free  transition at x/c =  0.0377   25

  13   rms: 0.8578E+00   max: -.3186E+01   D at   49  2   RLX: 0.157
       a = -4.000      CL = -0.3710
      Cm = -0.0594     CD =  0.01357   =>   CDf =  0.00666    CDp =  0.00691

 MRCHDU: Convergence failed at  47  side 2    Res =  0.3150E+01
 Side 1  free  transition at x/c =  0.6957   55
 Side 2  free  transition at x/c =  0.0376   25

  14   rms: 0.3317E+00   max: -.1164E+01   D at   79  2   RLX: 0.430
       a = -4.000      CL = -0.2879
      Cm = -0.0545     CD =  0.01391   =>   CDf =  0.00720    CDp =  0.00671

 Side 1  free  transition at x/c =  0.6981   55
 Side 2  free  transition at x/c =  0.0377   25

  15   rms: 0.1765E+00   max: -.5915E+00   D at   81  2   RLX: 0.845
       a = -4.000      CL = -0.1633
      Cm = -0.0502     CD =  0.01430   =>   CDf =  0.00710    CDp =  0.00720

 Side 1  free  transition at x/c =  0.7007   55
 Side 2  free  transition at x/c =  0.0380   25

  16   rms: 0.4145E-01   max: -.2105E+00   D at   87  2
       a = -4.000      CL = -0.1275
      Cm = -0.0509     CD =  0.01458   =>   CDf =  0.00691    CDp =  0.00767

 Side 1  free  transition at x/c =  0.7010   56
 Side 2  free  transition at x/c =  0.0382   25

  17   rms: 0.6683E-02   max: -.8523E-01   D at   55  1
       a = -4.000      CL = -0.1252
      Cm = -0.0514     CD =  0.01454   =>   CDf =  0.00688    CDp =  0.00765

 Side 1  free  transition at x/c =  0.7018   56
 Side 2  free  transition at x/c =  0.0382   25

  18   rms: 0.1015E-02   max: -.1291E-01   D at   57  1
       a = -4.000      CL = -0.1251
      Cm = -0.0514     CD =  0.01454   =>   CDf =  0.00684    CDp =  0.00770

 Side 1  free  transition at x/c =  0.7015   56
 Side 2  free  transition at x/c =  0.0382   25

  19   rms: 0.1713E-04   max: -.3246E-03   D at   57  1
       a = -4.000      CL = -0.1251
      Cm = -0.0514     CD =  0.01455   =>   CDf =  0.00685    CDp =  0.00770
 plradd ia,ip,cpol            1           0  1.21827694E-02

 Point added to stored polar  1
 Point written to save file  m15_Re600k.base.pol                             
 Dump file unspecified or not available
 Calculating wake trajectory ...
 Calculating source influence matrix ...

 Solving BL system ...

 Side 1  free  transition at x/c =  0.7015   56
 Side 2  free  transition at x/c =  0.0382   25

   1   rms: 0.9834E-01   max: -.2227E+00   D at   29  2
       a = -3.500      CL = -0.0709
      Cm = -0.0510     CD =  0.01328   =>   CDf =  0.00691    CDp =  0.00637

 Side 1  free  transition at x/c =  0.6908   56
 Side 2  free  transition at x/c =  0.0386   24

   2   rms: 0.1434E-01   max: -.1821E+00   D at   56  1
       a = -3.500      CL = -0.0700
      Cm = -0.0512     CD =  0.01334   =>   CDf =  0.00703    CDp =  0.00630

 Side 1  free  transition at x/c =  0.6901   56
 Side 2  free  transition at x/c =  0.0386   24

   3   rms: 0.1182E-02   max: 0.1557E-01   C at   56  1
       a = -3.500      CL = -0.0701
      Cm = -0.0511     CD =  0.01336   =>   CDf =  0.00702    CDp =  0.00633

 Side 1  free  transition at x/c =  0.6897   56
 Side 2  free  transition at x/c =  0.0386   24

   4   rms: 0.8442E-05   max: -.1558E-03   D at   57  1
       a = -3.500      CL = -0.0701
      Cm = -0.0511     CD =  0.01336   =>   CDf =  0.00703    CDp =  0.00633
 plradd ia,ip,cpol            2           0  1.21827694E-02

 Point added to stored polar  1
 Point written to save file  m15_Re600k.base.pol                             
 Dump file unspecified or not available
 Calculating wake trajectory ...
 Calculating source influence matrix ...

 Solving BL system ...

 Side 1  free  transition at x/c =  0.6897   56
 Side 2  free  transition at x/c =  0.0386   24

   1   rms: 0.9368E-01   max: -.2017E+00   D at   27  2
       a = -3.000      CL = -0.0151
      Cm = -0.0509     CD =  0.01236   =>   CDf =  0.00708    CDp =  0.00527

 Side 1  free  transition at x/c =  0.6792   56
 Side 2  free  transition at x/c =  0.0391   23

   2   rms: 0.9006E-02   max: -.1019E+00   D at   56  1
       a = -3.000      CL = -0.0149
      Cm = -0.0509     CD =  0.01248   =>   CDf =  0.00718    CDp =  0.00530

 Side 1  free  transition at x/c =  0.6791   56
 Side 2  free  transition at x/c =  0.0391   23

   3   rms: 0.5497E-03   max: 0.5057E-02   D at    4  1
       a = -3.000      CL = -0.0149
      Cm = -0.0509     CD =  0.01248   =>   CDf =  0.00716    CDp =  0.00532

 Side 1  free  transition at x/c =  0.6790   56
 Side 2  free  transition at x/c =  0.0391   23

   4   rms: 0.1406E-05   max: -.1803E-04   D at   58  1
       a = -3.000      CL = -0.0149
      Cm = -0.0509     CD =  0.01248   =>   CDf =  0.00716    CDp =  0.00532
 plradd ia,ip,cpol            3           0  1.21827694E-02

 Point added to stored polar  1
 Point written to save file  m15_Re600k.base.pol                             
 Dump file unspecified or not available
 Calculating wake trajectory ...
 Calculating source influence matrix ...

 Solving BL system ...

 Side 1  free  transition at x/c =  0.6790   56
 Side 2  free  transition at x/c =  0.0391   23

   1   rms: 0.8852E-01   max: -.1690E+00   D at   26  2
       a = -2.500      CL =  0.0407
      Cm = -0.0508     CD =  0.01173   =>   CDf =  0.00716    CDp =  0.00457

 Side 1  free  transition at x/c =  0.6675   55
 Side 2  free  transition at x/c =  0.0405   24

   2   rms: 0.1630E-01   max: 0.1590E+00   D at   24  2
       a = -2.500      CL =  0.0385
      Cm = -0.0504     CD =  0.01139   =>   CDf =  0.00731    CDp =  0.00408

 Side 1  free  transition at x/c =  0.6680   55
 Side 2  free  transition at x/c =  0.0407   24

   3   rms: 0.7440E-02   max: -.1127E+00   C at   55  1
       a = -2.500      CL =  0.0385
      Cm = -0.0504     CD =  0.01140   =>   CDf =  0.00732    CDp =  0.00408

 Side 1  free  transition at x/c =  0.6681   55
 Side 2  free  transition at x/c =  0.0407   24

   4   rms: 0.6801E-02   max: -.1121E+00   C at   55  1
       a = -2.500      CL =  0.0385
      Cm = -0.0504     CD =  0.01140   =>   CDf =  0.00732    CDp =  0.00408

 Side 1  free  transition at x/c =  0.6681   55
 Side 2  free  transition at x/c =  0.0407   24

   5   rms: 0.6823E-02   max: -.1121E+00   C at   55  1
       a = -2.500      CL =  0.0385
      Cm = -0.0504     CD =  0.01140   =>   CDf =  0.00732    CDp =  0.00408

 Side 1  free  transition at x/c =  0.6681   55
 Side 2  free  transition at x/c =  0.0407   24

   6   rms: 0.6821E-02   max: -.1121E+00   C at   55  1
       a = -2.500      CL =  0.0385
      Cm = -0.0504     CD =  0.01140   =>   CDf =  0.00732    CDp =  0.00408

 Side 1  free  transition at x/c =  0.6681   55
 Side 2  free  transition at x/c =  0.0407   24

   7   rms: 0.6821E-02   max: -.1121E+00   C at   55  1
       a = -2.500      CL =  0.0385
      Cm = -0.0504     CD =  0.01140   =>   CDf =  0.00732    CDp =  0.00408

 Side 1  free  transition at x/c =  0.6681   55
 Side 2  free  transition at x/c =  0.0407   24

   8   rms: 0.6822E-02   max: -.1122E+00   C at   55  1
       a = -2.500      CL =  0.0385
      Cm = -0.0504     CD =  0.01140   =>   CDf =  0.00732    CDp =  0.00408

 Side 1  free  transition at x/c =  0.6681   55
 Side 2  free  transition at x/c =  0.0407   24

   9   rms: 0.6821E-02   max: -.1121E+00   C at   55  1
       a = -2.500      CL =  0.0385
      Cm = -0.0504     CD =  0.01140   =>   CDf =  0.00732    CDp =  0.00408

 Side 1  free  transition at x/c =  0.6681   55
 Side 2  free  transition at x/c =  0.0407   24

  10   rms: 0.6821E-02   max: -.1121E+00   C at   55  1
       a = -2.500      CL =  0.0385
      Cm = -0.0504     CD =  0.01140   =>   CDf =  0.00732    CDp =  0.00408

 Side 1  free  transition at x/c =  0.6681   55
 Side 2  free  transition at x/c =  0.0407   24

  11   rms: 0.6821E-02   max: -.1121E+00   C at   55  1
       a = -2.500      CL =  0.0385
      Cm = -0.0504     CD =  0.01140   =>   CDf =  0.00732    CDp =  0.00408

 Side 1  free  transition at x/c =  0.6681   55
 Side 2  free  transition at x/c =  0.0407   24

  12   rms: 0.6821E-02   max: -.1122E+00   C at   55  1
       a = -2.500      CL =  0.0385
      Cm = -0.0504     CD =  0.01140   =>   CDf =  0.00732    CDp =  0.00408

 Side 1  free  transition at x/c =  0.6681   55
 Side 2  free  transition at x/c =  0.0407   24

  13   rms: 0.6821E-02   max: -.1121E+00   C at   55  1
       a = -2.500      CL =  0.0385
      Cm = -0.0504     CD =  0.01140   =>   CDf =  0.00732    CDp =  0.00408

 Side 1  free  transition at x/c =  0.6681   55
 Side 2  free  transition at x/c =  0.0407   24

  14   rms: 0.6821E-02   max: -.1122E+00   C at   55  1
       a = -2.500      CL =  0.0385
      Cm = -0.0504     CD =  0.01140   =>   CDf =  0.00732    CDp =  0.00408

 Side 1  free  transition at x/c =  0.6681   55
 Side 2  free  transition at x/c =  0.0407   24

  15   rms: 0.6821E-02   max: -.1122E+00   C at   55  1
       a = -2.500      CL =  0.0385
      Cm = -0.0504     CD =  0.01140   =>   CDf =  0.00732    CDp =  0.00408

 Side 1  free  transition at x/c =  0.6681   55
 Side 2  free  transition at x/c =  0.0407   24

  16   rms: 0.6821E-02   max: -.1121E+00   C at   55  1
       a = -2.500      CL =  0.0385
      Cm = -0.0504     CD =  0.01140   =>   CDf =  0.00732    CDp =  0.00408

 Side 1  free  transition at x/c =  0.6681   55
 Side 2  free  transition at x/c =  0.0407   24

  17   rms: 0.6821E-02   max: -.1121E+00   C at   55  1
       a = -2.500      CL =  0.0385
      Cm = -0.0504     CD =  0.01140   =>   CDf =  0.00732    CDp =  0.00408

 Side 1  free  transition at x/c =  0.6681   55
 Side 2  free  transition at x/c =  0.0407   24

  18   rms: 0.6821E-02   max: -.1121E+00   C at   55  1
       a = -2.500      CL =  0.0385
      Cm = -0.0504     CD =  0.01140   =>   CDf =  0.00732    CDp =  0.00408

 Side 1  free  transition at x/c =  0.6681   55
 Side 2  free  transition at x/c =  0.0407   24

  19   rms: 0.6821E-02   max: -.1121E+00   C at   55  1
       a = -2.500      CL =  0.0385
      Cm = -0.0504     CD =  0.01140   =>   CDf =  0.00732    CDp =  0.00408

 Side 1  free  transition at x/c =  0.6681   55
 Side 2  free  transition at x/c =  0.0407   24

  20   rms: 0.6821E-02   max: -.1121E+00   C at   55  1
       a = -2.500      CL =  0.0385
      Cm = -0.0504     CD =  0.01140   =>   CDf =  0.00732    CDp =  0.00408

 Side 1  free  transition at x/c =  0.6681   55
 Side 2  free  transition at x/c =  0.0407   24

  21   rms: 0.6821E-02   max: -.1121E+00   C at   55  1
       a = -2.500      CL =  0.0385
      Cm = -0.0504     CD =  0.01140   =>   CDf =  0.00732    CDp =  0.00408

 Side 1  free  transition at x/c =  0.6681   55
 Side 2  free  transition at x/c =  0.0407   24

  22   rms: 0.6821E-02   max: -.1121E+00   C at   55  1
       a = -2.500      CL =  0.0385
      Cm = -0.0504     CD =  0.01140   =>   CDf =  0.00732    CDp =  0.00408

 Side 1  free  transition at x/c =  0.6681   55
 Side 2  free  transition at x/c =  0.0407   24

  23   rms: 0.6821E-02   max: -.1122E+00   C at   55  1
       a = -2.500      CL =  0.0385
      Cm = -0.0504     CD =  0.01140   =>   CDf =  0.00732    CDp =  0.00408

 Side 1  free  transition at x/c =  0.6681   55
 Side 2  free  transition at x/c =  0.0407   24

  24   rms: 0.6821E-02   max: -.1121E+00   C at   55  1
       a = -2.500      CL =  0.0385
      Cm = -0.0504     CD =  0.01140   =>   CDf =  0.00732    CDp =  0.00408

 Side 1  free  transition at x/c =  0.6681   55
 Side 2  free  transition at x/c =  0.0407   24

  25   rms: 0.6821E-02   max: -.1122E+00   C at   55  1
       a = -2.500      CL =  0.0385
      Cm = -0.0504     CD =  0.01140   =>   CDf =  0.00732    CDp =  0.00408

 Side 1  free  transition at x/c =  0.6681   55
 Side 2  free  transition at x/c =  0.0407   24

  26   rms: 0.6821E-02   max: -.1122E+00   C at   55  1
       a = -2.500      CL =  0.0385
      Cm = -0.0504     CD =  0.01140   =>   CDf =  0.00732    CDp =  0.00408

 Side 1  free  transition at x/c =  0.6681   55
 Side 2  free  transition at x/c =  0.0407   24

  27   rms: 0.6821E-02   max: -.1122E+00   C at   55  1
       a = -2.500      CL =  0.0385
      Cm = -0.0504     CD =  0.01140   =>   CDf =  0.00732    CDp =  0.00408

 Side 1  free  transition at x/c =  0.6681   55
 Side 2  free  transition at x/c =  0.0407   24

  28   rms: 0.6821E-02   max: -.1122E+00   C at   55  1
       a = -2.500      CL =  0.0385
      Cm = -0.0504     CD =  0.01140   =>   CDf =  0.00732    CDp =  0.00408

 Side 1  free  transition at x/c =  0.6681   55
 Side 2  free  transition at x/c =  0.0407   24

  29   rms: 0.6821E-02   max: -.1121E+00   C at   55  1
       a = -2.500      CL =  0.0385
      Cm = -0.0504     CD =  0.01140   =>   CDf =  0.00732    CDp =  0.00408

 Side 1  free  transition at x/c =  0.6681   55
 Side 2  free  transition at x/c =  0.0407   24

  30   rms: 0.6821E-02   max: -.1121E+00   C at   55  1
       a = -2.500      CL =  0.0385
      Cm = -0.0504     CD =  0.01140   =>   CDf =  0.00732    CDp =  0.00408

 Side 1  free  transition at x/c =  0.6681   55
 Side 2  free  transition at x/c =  0.0407   24

  31   rms: 0.6821E-02   max: -.1122E+00   C at   55  1
       a = -2.500      CL =  0.0385
      Cm = -0.0504     CD =  0.01140   =>   CDf =  0.00732    CDp =  0.00408

 Side 1  free  transition at x/c =  0.6681   55
 Side 2  free  transition at x/c =  0.0407   24

  32   rms: 0.6821E-02   max: -.1121E+00   C at   55  1
       a = -2.500      CL =  0.0385
      Cm = -0.0504     CD =  0.01140   =>   CDf =  0.00732    CDp =  0.00408

 Side 1  free  transition at x/c =  0.6681   55
 Side 2  free  transition at x/c =  0.0407   24

  33   rms: 0.6821E-02   max: -.1122E+00   C at   55  1
       a = -2.500      CL =  0.0385
      Cm = -0.0504     CD =  0.01140   =>   CDf =  0.00732    CDp =  0.00408

 Side 1  free  transition at x/c =  0.6681   55
 Side 2  free  transition at x/c =  0.0407   24

  34   rms: 0.6821E-02   max: -.1121E+00   C at   55  1
       a = -2.500      CL =  0.0385
      Cm = -0.0504     CD =  0.01140   =>   CDf =  0.00732    CDp =  0.00408

 Side 1  free  transition at x/c =  0.6681   55
 Side 2  free  transition at x/c =  0.0407   24

  35   rms: 0.6821E-02   max: -.1122E+00   C at   55  1
       a = -2.500      CL =  0.0385
      Cm = -0.0504     CD =  0.01140   =>   CDf =  0.00732    CDp =  0.00408

 Side 1  free  transition at x/c =  0.6681   55
 Side 2  free  transition at x/c =  0.0407   24

  36   rms: 0.6821E-02   max: -.1121E+00   C at   55  1
       a = -2.500      CL =  0.0385
      Cm = -0.0504     CD =  0.01140   =>   CDf =  0.00732    CDp =  0.00408

 Side 1  free  transition at x/c =  0.6681   55
 Side 2  free  transition at x/c =  0.0407   24

  37   rms: 0.6821E-02   max: -.1122E+00   C at   55  1
       a = -2.500      CL =  0.0385
      Cm = -0.0504     CD =  0.01140   =>   CDf =  0.00732    CDp =  0.00408

 Side 1  free  transition at x/c =  0.6681   55
 Side 2  free  transition at x/c =  0.0407   24

  38   rms: 0.6821E-02   max: -.1121E+00   C at   55  1
       a = -2.500      CL =  0.0385
      Cm = -0.0504     CD =  0.01140   =>   CDf =  0.00732    CDp =  0.00408

 Side 1  free  transition at x/c =  0.6681   55
 Side 2  free  transition at x/c =  0.0407   24

  39   rms: 0.6821E-02   max: -.1121E+00   C at   55  1
       a = -2.500      CL =  0.0385
      Cm = -0.0504     CD =  0.01140   =>   CDf =  0.00732    CDp =  0.00408

 Side 1  free  transition at x/c =  0.6681   55
 Side 2  free  transition at x/c =  0.0407   24

  40   rms: 0.6821E-02   max: -.1121E+00   C at   55  1
       a = -2.500      CL =  0.0385
      Cm = -0.0504     CD =  0.01140   =>   CDf =  0.00732    CDp =  0.00408

 Side 1  free  transition at x/c =  0.6681   55
 Side 2  free  transition at x/c =  0.0407   24

  41   rms: 0.6821E-02   max: -.1121E+00   C at   55  1
       a = -2.500      CL =  0.0385
      Cm = -0.0504     CD =  0.01140   =>   CDf =  0.00732    CDp =  0.00408

 Side 1  free  transition at x/c =  0.6681   55
 Side 2  free  transition at x/c =  0.0407   24

  42   rms: 0.6821E-02   max: -.1122E+00   C at   55  1
       a = -2.500      CL =  0.0385
      Cm = -0.0504     CD =  0.01140   =>   CDf =  0.00732    CDp =  0.00408

 Side 1  free  transition at x/c =  0.6681   55
 Side 2  free  transition at x/c =  0.0407   24

  43   rms: 0.6821E-02   max: -.1122E+00   C at   55  1
       a = -2.500      CL =  0.0385
      Cm = -0.0504     CD =  0.01140   =>   CDf =  0.00732    CDp =  0.00408

 Side 1  free  transition at x/c =  0.6681   55
 Side 2  free  transition at x/c =  0.0407   24

  44   rms: 0.6821E-02   max: -.1121E+00   C at   55  1
       a = -2.500      CL =  0.0385
      Cm = -0.0504     CD =  0.01140   =>   CDf =  0.00732    CDp =  0.00408

 Side 1  free  transition at x/c =  0.6681   55
 Side 2  free  transition at x/c =  0.0407   24

  45   rms: 0.6821E-02   max: -.1122E+00   C at   55  1
       a = -2.500      CL =  0.0385
      Cm = -0.0504     CD =  0.01140   =>   CDf =  0.00732    CDp =  0.00408

 Side 1  free  transition at x/c =  0.6681   55
 Side 2  free  transition at x/c =  0.0407   24

  46   rms: 0.6821E-02   max: -.1121E+00   C at   55  1
       a = -2.500      CL =  0.0385
      Cm = -0.0504     CD =  0.01140   =>   CDf =  0.00732    CDp =  0.00408

 Side 1  free  transition at x/c =  0.6681   55
 Side 2  free  transition at x/c =  0.0407   24

  47   rms: 0.6821E-02   max: -.1121E+00   C at   55  1
       a = -2.500      CL =  0.0385
      Cm = -0.0504     CD =  0.01140   =>   CDf =  0.00732    CDp =  0.00408

 Side 1  free  transition at x/c =  0.6681   55
 Side 2  free  transition at x/c =  0.0407   24

  48   rms: 0.6821E-02   max: -.1122E+00   C at   55  1
       a = -2.500      CL =  0.0385
      Cm = -0.0504     CD =  0.01140   =>   CDf =  0.00732    CDp =  0.00408

 Side 1  free  transition at x/c =  0.6681   55
 Side 2  free  transition at x/c =  0.0407   24

  49   rms: 0.6821E-02   max: -.1121E+00   C at   55  1
       a = -2.500      CL =  0.0385
      Cm = -0.0504     CD =  0.01140   =>   CDf =  0.00732    CDp =  0.00408

 Side 1  free  transition at x/c =  0.6681   55
 Side 2  free  transition at x/c =  0.0407   24

  50   rms: 0.6821E-02   max: -.1122E+00   C at   55  1
       a = -2.500      CL =  0.0385
      Cm = -0.0504     CD =  0.01140   =>   CDf =  0.00732    CDp =  0.00408

 Side 1  free  transition at x/c =  0.6681   55
 Side 2  free  transition at x/c =  0.0407   24

  51   rms: 0.6821E-02   max: -.1121E+00   C at   55  1
       a = -2.500      CL =  0.0385
      Cm = -0.0504     CD =  0.01140   =>   CDf =  0.00732    CDp =  0.00408

 Side 1  free  transition at x/c =  0.6681   55
 Side 2  free  transition at x/c =  0.0407   24

  52   rms: 0.6821E-02   max: -.1122E+00   C at   55  1
       a = -2.500      CL =  0.0385
      Cm = -0.0504     CD =  0.01140   =>   CDf =  0.00732    CDp =  0.00408

 Side 1  free  transition at x/c =  0.6681   55
 Side 2  free  transition at x/c =  0.0407   24

  53   rms: 0.6821E-02   max: -.1121E+00   C at   55  1
       a = -2.500      CL =  0.0385
      Cm = -0.0504     CD =  0.01140   =>   CDf =  0.00732    CDp =  0.00408

 Side 1  free  transition at x/c =  0.6681   55
 Side 2  free  transition at x/c =  0.0407   24

  54   rms: 0.6821E-02   max: -.1122E+00   C at   55  1
       a = -2.500      CL =  0.0385
      Cm = -0.0504     CD =  0.01140   =>   CDf =  0.00732    CDp =  0.00408

 Side 1  free  transition at x/c =  0.6681   55
 Side 2  free  transition at x/c =  0.0407   24

  55   rms: 0.6821E-02   max: -.1121E+00   C at   55  1
       a = -2.500      CL =  0.0385
      Cm = -0.0504     CD =  0.01140   =>   CDf =  0.00732    CDp =  0.00408

 Side 1  free  transition at x/c =  0.6681   55
 Side 2  free  transition at x/c =  0.0407   24

  56   rms: 0.6821E-02   max: -.1121E+00   C at   55  1
       a = -2.500      CL =  0.0385
      Cm = -0.0504     CD =  0.01140   =>   CDf =  0.00732    CDp =  0.00408

 Side 1  free  transition at x/c =  0.6681   55
 Side 2  free  transition at x/c =  0.0407   24

  57   rms: 0.6821E-02   max: -.1121E+00   C at   55  1
       a = -2.500      CL =  0.0385
      Cm = -0.0504     CD =  0.01140   =>   CDf =  0.00732    CDp =  0.00408

 Side 1  free  transition at x/c =  0.6681   55
 Side 2  free  transition at x/c =  0.0407   24

  58   rms: 0.6821E-02   max: -.1121E+00   C at   55  1
       a = -2.500      CL =  0.0385
      Cm = -0.0504     CD =  0.01140   =>   CDf =  0.00732    CDp =  0.00408

 Side 1  free  transition at x/c =  0.6681   55
 Side 2  free  transition at x/c =  0.0407   24

  59   rms: 0.6821E-02   max: -.1122E+00   C at   55  1
       a = -2.500      CL =  0.0385
      Cm = -0.0504     CD =  0.01140   =>   CDf =  0.00732    CDp =  0.00408

 Side 1  free  transition at x/c =  0.6681   55
 Side 2  free  transition at x/c =  0.0407   24

  60   rms: 0.6821E-02   max: -.1121E+00   C at   55  1
       a = -2.500      CL =  0.0385
      Cm = -0.0504     CD =  0.01140   =>   CDf =  0.00732    CDp =  0.00408

 Side 1  free  transition at x/c =  0.6681   55
 Side 2  free  transition at x/c =  0.0407   24

  61   rms: 0.6821E-02   max: -.1121E+00   C at   55  1
       a = -2.500      CL =  0.0385
      Cm = -0.0504     CD =  0.01140   =>   CDf =  0.00732    CDp =  0.00408

 Side 1  free  transition at x/c =  0.6681   55
 Side 2  free  transition at x/c =  0.0407   24

  62   rms: 0.6821E-02   max: -.1122E+00   C at   55  1
       a = -2.500      CL =  0.0385
      Cm = -0.0504     CD =  0.01140   =>   CDf =  0.00732    CDp =  0.00408

 Side 1  free  transition at x/c =  0.6681   55
 Side 2  free  transition at x/c =  0.0407   24

  63   rms: 0.6821E-02   max: -.1121E+00   C at   55  1
       a = -2.500      CL =  0.0385
      Cm = -0.0504     CD =  0.01140   =>   CDf =  0.00732    CDp =  0.00408

 Side 1  free  transition at x/c =  0.6681   55
 Side 2  free  transition at x/c =  0.0407   24

  64   rms: 0.6822E-02   max: -.1122E+00   C at   55  1
       a = -2.500      CL =  0.0385
      Cm = -0.0504     CD =  0.01140   =>   CDf =  0.00732    CDp =  0.00408

 Side 1  free  transition at x/c =  0.6681   55
 Side 2  free  transition at x/c =  0.0407   24

  65   rms: 0.6821E-02   max: -.1121E+00   C at   55  1
       a = -2.500      CL =  0.0385
      Cm = -0.0504     CD =  0.01140   =>   CDf =  0.00732    CDp =  0.00408

 Side 1  free  transition at x/c =  0.6681   55
 Side 2  free  transition at x/c =  0.0407   24

  66   rms: 0.6821E-02   max: -.1121E+00   C at   55  1
       a = -2.500      CL =  0.0385
      Cm = -0.0504     CD =  0.01140   =>   CDf =  0.00732    CDp =  0.00408

 Side 1  free  transition at x/c =  0.6681   55
 Side 2  free  transition at x/c =  0.0407   24

  67   rms: 0.6821E-02   max: -.1121E+00   C at   55  1
       a = -2.500      CL =  0.0385
      Cm = -0.0504     CD =  0.01140   =>   CDf =  0.00732    CDp =  0.00408

 Side 1  free  transition at x/c =  0.6681   55
 Side 2  free  transition at x/c =  0.0407   24

  68   rms: 0.6821E-02   max: -.1121E+00   C at   55  1
       a = -2.500      CL =  0.0385
      Cm = -0.0504     CD =  0.01140   =>   CDf =  0.00732    CDp =  0.00408

 Side 1  free  transition at x/c =  0.6681   55
 Side 2  free  transition at x/c =  0.0407   24

  69   rms: 0.6821E-02   max: -.1121E+00   C at   55  1
       a = -2.500      CL =  0.0385
      Cm = -0.0504     CD =  0.01140   =>   CDf =  0.00732    CDp =  0.00408

 Side 1  free  transition at x/c =  0.6681   55
 Side 2  free  transition at x/c =  0.0407   24

  70   rms: 0.6821E-02   max: -.1122E+00   C at   55  1
       a = -2.500      CL =  0.0385
      Cm = -0.0504     CD =  0.01140   =>   CDf =  0.00732    CDp =  0.00408

 Side 1  free  transition at x/c =  0.6681   55
 Side 2  free  transition at x/c =  0.0407   24

  71   rms: 0.6821E-02   max: -.1121E+00   C at   55  1
       a = -2.500      CL =  0.0385
      Cm = -0.0504     CD =  0.01140   =>   CDf =  0.00732    CDp =  0.00408

 Side 1  free  transition at x/c =  0.6681   55
 Side 2  free  transition at x/c =  0.0407   24

  72   rms: 0.6821E-02   max: -.1121E+00   C at   55  1
       a = -2.500      CL =  0.0385
      Cm = -0.0504     CD =  0.01140   =>   CDf =  0.00732    CDp =  0.00408

 Side 1  free  transition at x/c =  0.6681   55
 Side 2  free  transition at x/c =  0.0407   24

  73   rms: 0.6821E-02   max: -.1122E+00   C at   55  1
       a = -2.500      CL =  0.0385
      Cm = -0.0504     CD =  0.01140   =>   CDf =  0.00732    CDp =  0.00408

 Side 1  free  transition at x/c =  0.6681   55
 Side 2  free  transition at x/c =  0.0407   24

  74   rms: 0.6821E-02   max: -.1121E+00   C at   55  1
       a = -2.500      CL =  0.0385
      Cm = -0.0504     CD =  0.01140   =>   CDf =  0.00732    CDp =  0.00408

 Side 1  free  transition at x/c =  0.6681   55
 Side 2  free  transition at x/c =  0.0407   24

  75   rms: 0.6821E-02   max: -.1121E+00   C at   55  1
       a = -2.500      CL =  0.0385
      Cm = -0.0504     CD =  0.01140   =>   CDf =  0.00732    CDp =  0.00408

 Side 1  free  transition at x/c =  0.6681   55
 Side 2  free  transition at x/c =  0.0407   24

  76   rms: 0.6821E-02   max: -.1121E+00   C at   55  1
       a = -2.500      CL =  0.0385
      Cm = -0.0504     CD =  0.01140   =>   CDf =  0.00732    CDp =  0.00408

 Side 1  free  transition at x/c =  0.6681   55
 Side 2  free  transition at x/c =  0.0407   24

  77   rms: 0.6821E-02   max: -.1121E+00   C at   55  1
       a = -2.500      CL =  0.0385
      Cm = -0.0504     CD =  0.01140   =>   CDf =  0.00732    CDp =  0.00408

 Side 1  free  transition at x/c =  0.6681   55
 Side 2  free  transition at x/c =  0.0407   24

  78   rms: 0.6821E-02   max: -.1121E+00   C at   55  1
       a = -2.500      CL =  0.0385
      Cm = -0.0504     CD =  0.01140   =>   CDf =  0.00732    CDp =  0.00408

 Side 1  free  transition at x/c =  0.6681   55
 Side 2  free  transition at x/c =  0.0407   24

  79   rms: 0.6821E-02   max: -.1122E+00   C at   55  1
       a = -2.500      CL =  0.0385
      Cm = -0.0504     CD =  0.01140   =>   CDf =  0.00732    CDp =  0.00408

 Side 1  free  transition at x/c =  0.6681   55
 Side 2  free  transition at x/c =  0.0407   24

  80   rms: 0.6821E-02   max: -.1121E+00   C at   55  1
       a = -2.500      CL =  0.0385
      Cm = -0.0504     CD =  0.01140   =>   CDf =  0.00732    CDp =  0.00408

 Side 1  free  transition at x/c =  0.6681   55
 Side 2  free  transition at x/c =  0.0407   24

  81   rms: 0.6821E-02   max: -.1121E+00   C at   55  1
       a = -2.500      CL =  0.0385
      Cm = -0.0504     CD =  0.01140   =>   CDf =  0.00732    CDp =  0.00408

 Side 1  free  transition at x/c =  0.6681   55
 Side 2  free  transition at x/c =  0.0407   24

  82   rms: 0.6821E-02   max: -.1122E+00   C at   55  1
       a = -2.500      CL =  0.0385
      Cm = -0.0504     CD =  0.01140   =>   CDf =  0.00732    CDp =  0.00408

 Side 1  free  transition at x/c =  0.6681   55
 Side 2  free  transition at x/c =  0.0407   24

  83   rms: 0.6821E-02   max: -.1121E+00   C at   55  1
       a = -2.500      CL =  0.0385
      Cm = -0.0504     CD =  0.01140   =>   CDf =  0.00732    CDp =  0.00408

 Side 1  free  transition at x/c =  0.6681   55
 Side 2  free  transition at x/c =  0.0407   24

  84   rms: 0.6821E-02   max: -.1121E+00   C at   55  1
       a = -2.500      CL =  0.0385
      Cm = -0.0504     CD =  0.01140   =>   CDf =  0.00732    CDp =  0.00408

 Side 1  free  transition at x/c =  0.6681   55
 Side 2  free  transition at x/c =  0.0407   24

  85   rms: 0.6821E-02   max: -.1122E+00   C at   55  1
       a = -2.500      CL =  0.0385
      Cm = -0.0504     CD =  0.01140   =>   CDf =  0.00732    CDp =  0.00408

 Side 1  free  transition at x/c =  0.6681   55
 Side 2  free  transition at x/c =  0.0407   24

  86   rms: 0.6821E-02   max: -.1121E+00   C at   55  1
       a = -2.500      CL =  0.0385
      Cm = -0.0504     CD =  0.01140   =>   CDf =  0.00732    CDp =  0.00408

 Side 1  free  transition at x/c =  0.6681   55
 Side 2  free  transition at x/c =  0.0407   24

  87   rms: 0.6821E-02   max: -.1122E+00   C at   55  1
       a = -2.500      CL =  0.0385
      Cm = -0.0504     CD =  0.01140   =>   CDf =  0.00732    CDp =  0.00408

 Side 1  free  transition at x/c =  0.6681   55
 Side 2  free  transition at x/c =  0.0407   24

  88   rms: 0.6821E-02   max: -.1121E+00   C at   55  1
       a = -2.500      CL =  0.0385
      Cm = -0.0504     CD =  0.01140   =>   CDf =  0.00732    CDp =  0.00408

 Side 1  free  transition at x/c =  0.6681   55
 Side 2  free  transition at x/c =  0.0407   24

  89   rms: 0.6821E-02   max: -.1122E+00   C at   55  1
       a = -2.500      CL =  0.0385
      Cm = -0.0504     CD =  0.01140   =>   CDf =  0.00732    CDp =  0.00408

 Side 1  free  transition at x/c =  0.6681   55
 Side 2  free  transition at x/c =  0.0407   24

  90   rms: 0.6821E-02   max: -.1121E+00   C at   55  1
       a = -2.500      CL =  0.0385
      Cm = -0.0504     CD =  0.01140   =>   CDf =  0.00732    CDp =  0.00408

 Side 1  free  transition at x/c =  0.6681   55
 Side 2  free  transition at x/c =  0.0407   24

  91   rms: 0.6821E-02   max: -.1121E+00   C at   55  1
       a = -2.500      CL =  0.0385
      Cm = -0.0504     CD =  0.01140   =>   CDf =  0.00732    CDp =  0.00408

 Side 1  free  transition at x/c =  0.6681   55
 Side 2  free  transition at x/c =  0.0407   24

  92   rms: 0.6821E-02   max: -.1121E+00   C at   55  1
       a = -2.500      CL =  0.0385
      Cm = -0.0504     CD =  0.01140   =>   CDf =  0.00732    CDp =  0.00408

 Side 1  free  transition at x/c =  0.6681   55
 Side 2  free  transition at x/c =  0.0407   24

  93   rms: 0.6821E-02   max: -.1122E+00   C at   55  1
       a = -2.500      CL =  0.0385
      Cm = -0.0504     CD =  0.01140   =>   CDf =  0.00732    CDp =  0.00408

 Side 1  free  transition at x/c =  0.6681   55
 Side 2  free  transition at x/c =  0.0407   24

  94   rms: 0.6821E-02   max: -.1122E+00   C at   55  1
       a = -2.500      CL =  0.0385
      Cm = -0.0504     CD =  0.01140   =>   CDf =  0.00732    CDp =  0.00408

 Side 1  free  transition at x/c =  0.6681   55
 Side 2  free  transition at x/c =  0.0407   24

  95   rms: 0.6821E-02   max: -.1121E+00   C at   55  1
       a = -2.500      CL =  0.0385
      Cm = -0.0504     CD =  0.01140   =>   CDf =  0.00732    CDp =  0.00408

 Side 1  free  transition at x/c =  0.6681   55
 Side 2  free  transition at x/c =  0.0407   24

  96   rms: 0.6821E-02   max: -.1122E+00   C at   55  1
       a = -2.500      CL =  0.0385
      Cm = -0.0504     CD =  0.01140   =>   CDf =  0.00732    CDp =  0.00408

 Side 1  free  transition at x/c =  0.6681   55
 Side 2  free  transition at x/c =  0.0407   24

  97   rms: 0.6821E-02   max: -.1122E+00   C at   55  1
       a = -2.500      CL =  0.0385
      Cm = -0.0504     CD =  0.01140   =>   CDf =  0.00732    CDp =  0.00408

 Side 1  free  transition at x/c =  0.6681   55
 Side 2  free  transition at x/c =  0.0407   24

  98   rms: 0.6821E-02   max: -.1121E+00   C at   55  1
       a = -2.500      CL =  0.0385
      Cm = -0.0504     CD =  0.01140   =>   CDf =  0.00732    CDp =  0.00408

 Side 1  free  transition at x/c =  0.6681   55
 Side 2  free  transition at x/c =  0.0407   24

  99   rms: 0.6821E-02   max: -.1121E+00   C at   55  1
       a = -2.500      CL =  0.0385
      Cm = -0.0504     CD =  0.01140   =>   CDf =  0.00732    CDp =  0.00408

 Side 1  free  transition at x/c =  0.6681   55
 Side 2  free  transition at x/c =  0.0407   24

 100   rms: 0.6822E-02   max: -.1122E+00   C at   55  1
       a = -2.500      CL =  0.0385
      Cm = -0.0504     CD =  0.01140   =>   CDf =  0.00732    CDp =  0.00408

 Side 1  free  transition at x/c =  0.6681   55
 Side 2  free  transition at x/c =  0.0407   24

 101   rms: 0.6821E-02   max: -.1121E+00   C at   55  1
       a = -2.500      CL =  0.0385
      Cm = -0.0504     CD =  0.01140   =>   CDf =  0.00732    CDp =  0.00408

 Side 1  free  transition at x/c =  0.6681   55
 Side 2  free  transition at x/c =  0.0407   24

 102   rms: 0.6821E-02   max: -.1121E+00   C at   55  1
       a = -2.500      CL =  0.0385
      Cm = -0.0504     CD =  0.01140   =>   CDf =  0.00732    CDp =  0.00408

 Side 1  free  transition at x/c =  0.6681   55
 Side 2  free  transition at x/c =  0.0407   24

 103   rms: 0.6821E-02   max: -.1122E+00   C at   55  1
       a = -2.500      CL =  0.0385
      Cm = -0.0504     CD =  0.01140   =>   CDf =  0.00732    CDp =  0.00408

 Side 1  free  transition at x/c =  0.6681   55
 Side 2  free  transition at x/c =  0.0407   24

 104   rms: 0.6821E-02   max: -.1121E+00   C at   55  1
       a = -2.500      CL =  0.0385
      Cm = -0.0504     CD =  0.01140   =>   CDf =  0.00732    CDp =  0.00408

 Side 1  free  transition at x/c =  0.6681   55
 Side 2  free  transition at x/c =  0.0407   24

 105   rms: 0.6821E-02   max: -.1121E+00   C at   55  1
       a = -2.500      CL =  0.0385
      Cm = -0.0504     CD =  0.01140   =>   CDf =  0.00732    CDp =  0.00408

 Side 1  free  transition at x/c =  0.6681   55
 Side 2  free  transition at x/c =  0.0407   24

 106   rms: 0.6821E-02   max: -.1121E+00   C at   55  1
       a = -2.500      CL =  0.0385
      Cm = -0.0504     CD =  0.01140   =>   CDf =  0.00732    CDp =  0.00408

 Side 1  free  transition at x/c =  0.6681   55
 Side 2  free  transition at x/c =  0.0407   24

 107   rms: 0.6821E-02   max: -.1121E+00   C at   55  1
       a = -2.500      CL =  0.0385
      Cm = -0.0504     CD =  0.01140   =>   CDf =  0.00732    CDp =  0.00408

 Side 1  free  transition at x/c =  0.6681   55
 Side 2  free  transition at x/c =  0.0407   24

 108   rms: 0.6821E-02   max: -.1122E+00   C at   55  1
       a = -2.500      CL =  0.0385
      Cm = -0.0504     CD =  0.01140   =>   CDf =  0.00732    CDp =  0.00408

 Side 1  free  transition at x/c =  0.6681   55
 Side 2  free  transition at x/c =  0.0407   24

 109   rms: 0.6821E-02   max: -.1121E+00   C at   55  1
       a = -2.500      CL =  0.0385
      Cm = -0.0504     CD =  0.01140   =>   CDf =  0.00732    CDp =  0.00408

 Side 1  free  transition at x/c =  0.6681   55
 Side 2  free  transition at x/c =  0.0407   24

 110   rms: 0.6821E-02   max: -.1121E+00   C at   55  1
       a = -2.500      CL =  0.0385
      Cm = -0.0504     CD =  0.01140   =>   CDf =  0.00732    CDp =  0.00408

 Side 1  free  transition at x/c =  0.6681   55
 Side 2  free  transition at x/c =  0.0407   24

 111   rms: 0.6821E-02   max: -.1122E+00   C at   55  1
       a = -2.500      CL =  0.0385
      Cm = -0.0504     CD =  0.01140   =>   CDf =  0.00732    CDp =  0.00408

 Side 1  free  transition at x/c =  0.6681   55
 Side 2  free  transition at x/c =  0.0407   24

 112   rms: 0.6821E-02   max: -.1121E+00   C at   55  1
       a = -2.500      CL =  0.0385
      Cm = -0.0504     CD =  0.01140   =>   CDf =  0.00732    CDp =  0.00408

 Side 1  free  transition at x/c =  0.6681   55
 Side 2  free  transition at x/c =  0.0407   24

 113   rms: 0.6821E-02   max: -.1121E+00   C at   55  1
       a = -2.500      CL =  0.0385
      Cm = -0.0504     CD =  0.01140   =>   CDf =  0.00732    CDp =  0.00408

 Side 1  free  transition at x/c =  0.6681   55
 Side 2  free  transition at x/c =  0.0407   24

 114   rms: 0.6821E-02   max: -.1122E+00   C at   55  1
       a = -2.500      CL =  0.0385
      Cm = -0.0504     CD =  0.01140   =>   CDf =  0.00732    CDp =  0.00408

 Side 1  free  transition at x/c =  0.6681   55
 Side 2  free  transition at x/c =  0.0407   24

 115   rms: 0.6821E-02   max: -.1121E+00   C at   55  1
       a = -2.500      CL =  0.0385
      Cm = -0.0504     CD =  0.01140   =>   CDf =  0.00732    CDp =  0.00408

 Side 1  free  transition at x/c =  0.6681   55
 Side 2  free  transition at x/c =  0.0407   24

 116   rms: 0.6821E-02   max: -.1121E+00   C at   55  1
       a = -2.500      CL =  0.0385
      Cm = -0.0504     CD =  0.01140   =>   CDf =  0.00732    CDp =  0.00408

 Side 1  free  transition at x/c =  0.6681   55
 Side 2  free  transition at x/c =  0.0407   24

 117   rms: 0.6821E-02   max: -.1122E+00   C at   55  1
       a = -2.500      CL =  0.0385
      Cm = -0.0504     CD =  0.01140   =>   CDf =  0.00732    CDp =  0.00408

 Side 1  free  transition at x/c =  0.6681   55
 Side 2  free  transition at x/c =  0.0407   24

 118   rms: 0.6821E-02   max: -.1121E+00   C at   55  1
       a = -2.500      CL =  0.0385
      Cm = -0.0504     CD =  0.01140   =>   CDf =  0.00732    CDp =  0.00408

 Side 1  free  transition at x/c =  0.6681   55
 Side 2  free  transition at x/c =  0.0407   24

 119   rms: 0.6821E-02   max: -.1122E+00   C at   55  1
       a = -2.500      CL =  0.0385
      Cm = -0.0504     CD =  0.01140   =>   CDf =  0.00732    CDp =  0.00408

 Side 1  free  transition at x/c =  0.6681   55
 Side 2  free  transition at x/c =  0.0407   24

 120   rms: 0.6821E-02   max: -.1121E+00   C at   55  1
       a = -2.500      CL =  0.0385
      Cm = -0.0504     CD =  0.01140   =>   CDf =  0.00732    CDp =  0.00408

 Side 1  free  transition at x/c =  0.6681   55
 Side 2  free  transition at x/c =  0.0407   24

 121   rms: 0.6821E-02   max: -.1121E+00   C at   55  1
       a = -2.500      CL =  0.0385
      Cm = -0.0504     CD =  0.01140   =>   CDf =  0.00732    CDp =  0.00408

 Side 1  free  transition at x/c =  0.6681   55
 Side 2  free  transition at x/c =  0.0407   24

 122   rms: 0.6821E-02   max: -.1121E+00   C at   55  1
       a = -2.500      CL =  0.0385
      Cm = -0.0504     CD =  0.01140   =>   CDf =  0.00732    CDp =  0.00408

 Side 1  free  transition at x/c =  0.6681   55
 Side 2  free  transition at x/c =  0.0407   24

 123   rms: 0.6821E-02   max: -.1122E+00   C at   55  1
       a = -2.500      CL =  0.0385
      Cm = -0.0504     CD =  0.01140   =>   CDf =  0.00732    CDp =  0.00408

 Side 1  free  transition at x/c =  0.6681   55
 Side 2  free  transition at x/c =  0.0407   24

 124   rms: 0.6821E-02   max: -.1121E+00   C at   55  1
       a = -2.500      CL =  0.0385
      Cm = -0.0504     CD =  0.01140   =>   CDf =  0.00732    CDp =  0.00408

 Side 1  free  transition at x/c =  0.6681   55
 Side 2  free  transition at x/c =  0.0407   24

 125   rms: 0.6821E-02   max: -.1121E+00   C at   55  1
       a = -2.500      CL =  0.0385
      Cm = -0.0504     CD =  0.01140   =>   CDf =  0.00732    CDp =  0.00408

 Side 1  free  transition at x/c =  0.6681   55
 Side 2  free  transition at x/c =  0.0407   24

 126   rms: 0.6821E-02   max: -.1122E+00   C at   55  1
       a = -2.500      CL =  0.0385
      Cm = -0.0504     CD =  0.01140   =>   CDf =  0.00732    CDp =  0.00408

 Side 1  free  transition at x/c =  0.6681   55
 Side 2  free  transition at x/c =  0.0407   24

 127   rms: 0.6821E-02   max: -.1121E+00   C at   55  1
       a = -2.500      CL =  0.0385
      Cm = -0.0504     CD =  0.01140   =>   CDf =  0.00732    CDp =  0.00408

 Side 1  free  transition at x/c =  0.6681   55
 Side 2  free  transition at x/c =  0.0407   24

 128   rms: 0.6821E-02   max: -.1121E+00   C at   55  1
       a = -2.500      CL =  0.0385
      Cm = -0.0504     CD =  0.01140   =>   CDf =  0.00732    CDp =  0.00408

 Side 1  free  transition at x/c =  0.6681   55
 Side 2  free  transition at x/c =  0.0407   24

 129   rms: 0.6822E-02   max: -.1122E+00   C at   55  1
       a = -2.500      CL =  0.0385
      Cm = -0.0504     CD =  0.01140   =>   CDf =  0.00732    CDp =  0.00408

 Side 1  free  transition at x/c =  0.6681   55
 Side 2  free  transition at x/c =  0.0407   24

 130   rms: 0.6821E-02   max: -.1121E+00   C at   55  1
       a = -2.500      CL =  0.0385
      Cm = -0.0504     CD =  0.01140   =>   CDf =  0.00732    CDp =  0.00408

 Side 1  free  transition at x/c =  0.6681   55
 Side 2  free  transition at x/c =  0.0407   24

 131   rms: 0.6821E-02   max: -.1121E+00   C at   55  1
       a = -2.500      CL =  0.0385
      Cm = -0.0504     CD =  0.01140   =>   CDf =  0.00732    CDp =  0.00408

 Side 1  free  transition at x/c =  0.6681   55
 Side 2  free  transition at x/c =  0.0407   24

 132   rms: 0.6821E-02   max: -.1121E+00   C at   55  1
       a = -2.500      CL =  0.0385
      Cm = -0.0504     CD =  0.01140   =>   CDf =  0.00732    CDp =  0.00408

 Side 1  free  transition at x/c =  0.6681   55
 Side 2  free  transition at x/c =  0.0407   24

 133   rms: 0.6821E-02   max: -.1122E+00   C at   55  1
       a = -2.500      CL =  0.0385
      Cm = -0.0504     CD =  0.01140   =>   CDf =  0.00732    CDp =  0.00408

 Side 1  free  transition at x/c =  0.6681   55
 Side 2  free  transition at x/c =  0.0407   24

 134   rms: 0.6821E-02   max: -.1122E+00   C at   55  1
       a = -2.500      CL =  0.0385
      Cm = -0.0504     CD =  0.01140   =>   CDf =  0.00732    CDp =  0.00408

 Side 1  free  transition at x/c =  0.6681   55
 Side 2  free  transition at x/c =  0.0407   24

 135   rms: 0.6821E-02   max: -.1122E+00   C at   55  1
       a = -2.500      CL =  0.0385
      Cm = -0.0504     CD =  0.01140   =>   CDf =  0.00732    CDp =  0.00408

 Side 1  free  transition at x/c =  0.6681   55
 Side 2  free  transition at x/c =  0.0407   24

 136   rms: 0.6821E-02   max: -.1121E+00   C at   55  1
       a = -2.500      CL =  0.0385
      Cm = -0.0504     CD =  0.01140   =>   CDf =  0.00732    CDp =  0.00408

 Side 1  free  transition at x/c =  0.6681   55
 Side 2  free  transition at x/c =  0.0407   24

 137   rms: 0.6821E-02   max: -.1121E+00   C at   55  1
       a = -2.500      CL =  0.0385
      Cm = -0.0504     CD =  0.01140   =>   CDf =  0.00732    CDp =  0.00408

 Side 1  free  transition at x/c =  0.6681   55
 Side 2  free  transition at x/c =  0.0407   24

 138   rms: 0.6821E-02   max: -.1121E+00   C at   55  1
       a = -2.500      CL =  0.0385
      Cm = -0.0504     CD =  0.01140   =>   CDf =  0.00732    CDp =  0.00408

 Side 1  free  transition at x/c =  0.6681   55
 Side 2  free  transition at x/c =  0.0407   24

 139   rms: 0.6821E-02   max: -.1122E+00   C at   55  1
       a = -2.500      CL =  0.0385
      Cm = -0.0504     CD =  0.01140   =>   CDf =  0.00732    CDp =  0.00408

 Side 1  free  transition at x/c =  0.6681   55
 Side 2  free  transition at x/c =  0.0407   24

 140   rms: 0.6821E-02   max: -.1121E+00   C at   55  1
       a = -2.500      CL =  0.0385
      Cm = -0.0504     CD =  0.01140   =>   CDf =  0.00732    CDp =  0.00408

 Side 1  free  transition at x/c =  0.6681   55
 Side 2  free  transition at x/c =  0.0407   24

 141   rms: 0.6821E-02   max: -.1121E+00   C at   55  1
       a = -2.500      CL =  0.0385
      Cm = -0.0504     CD =  0.01140   =>   CDf =  0.00732    CDp =  0.00408

 Side 1  free  transition at x/c =  0.6681   55
 Side 2  free  transition at x/c =  0.0407   24

 142   rms: 0.6821E-02   max: -.1122E+00   C at   55  1
       a = -2.500      CL =  0.0385
      Cm = -0.0504     CD =  0.01140   =>   CDf =  0.00732    CDp =  0.00408

 Side 1  free  transition at x/c =  0.6681   55
 Side 2  free  transition at x/c =  0.0407   24

 143   rms: 0.6821E-02   max: -.1121E+00   C at   55  1
       a = -2.500      CL =  0.0385
      Cm = -0.0504     CD =  0.01140   =>   CDf =  0.00732    CDp =  0.00408

 Side 1  free  transition at x/c =  0.6681   55
 Side 2  free  transition at x/c =  0.0407   24

 144   rms: 0.6822E-02   max: -.1122E+00   C at   55  1
       a = -2.500      CL =  0.0385
      Cm = -0.0504     CD =  0.01140   =>   CDf =  0.00732    CDp =  0.00408

 Side 1  free  transition at x/c =  0.6681   55
 Side 2  free  transition at x/c =  0.0407   24

 145   rms: 0.6821E-02   max: -.1121E+00   C at   55  1
       a = -2.500      CL =  0.0385
      Cm = -0.0504     CD =  0.01140   =>   CDf =  0.00732    CDp =  0.00408

 Side 1  free  transition at x/c =  0.6681   55
 Side 2  free  transition at x/c =  0.0407   24

 146   rms: 0.6821E-02   max: -.1121E+00   C at   55  1
       a = -2.500      CL =  0.0385
      Cm = -0.0504     CD =  0.01140   =>   CDf =  0.00732    CDp =  0.00408

 Side 1  free  transition at x/c =  0.6681   55
 Side 2  free  transition at x/c =  0.0407   24

 147   rms: 0.6821E-02   max: -.1121E+00   C at   55  1
       a = -2.500      CL =  0.0385
      Cm = -0.0504     CD =  0.01140   =>   CDf =  0.00732    CDp =  0.00408

 Side 1  free  transition at x/c =  0.6681   55
 Side 2  free  transition at x/c =  0.0407   24

 148   rms: 0.6821E-02   max: -.1121E+00   C at   55  1
       a = -2.500      CL =  0.0385
      Cm = -0.0504     CD =  0.01140   =>   CDf =  0.00732    CDp =  0.00408

 Side 1  free  transition at x/c =  0.6681   55
 Side 2  free  transition at x/c =  0.0407   24

 149   rms: 0.6821E-02   max: -.1121E+00   C at   55  1
       a = -2.500      CL =  0.0385
      Cm = -0.0504     CD =  0.01140   =>   CDf =  0.00732    CDp =  0.00408

 Side 1  free  transition at x/c =  0.6681   55
 Side 2  free  transition at x/c =  0.0407   24

 150   rms: 0.6821E-02   max: -.1122E+00   C at   55  1
       a = -2.500      CL =  0.0385
      Cm = -0.0504     CD =  0.01140   =>   CDf =  0.00732    CDp =  0.00408

 Side 1  free  transition at x/c =  0.6681   55
 Side 2  free  transition at x/c =  0.0407   24

 151   rms: 0.6821E-02   max: -.1122E+00   C at   55  1
       a = -2.500      CL =  0.0385
      Cm = -0.0504     CD =  0.01140   =>   CDf =  0.00732    CDp =  0.00408

 Side 1  free  transition at x/c =  0.6681   55
 Side 2  free  transition at x/c =  0.0407   24

 152   rms: 0.6821E-02   max: -.1121E+00   C at   55  1
       a = -2.500      CL =  0.0385
      Cm = -0.0504     CD =  0.01140   =>   CDf =  0.00732    CDp =  0.00408

 Side 1  free  transition at x/c =  0.6681   55
 Side 2  free  transition at x/c =  0.0407   24

 153   rms: 0.6821E-02   max: -.1121E+00   C at   55  1
       a = -2.500      CL =  0.0385
      Cm = -0.0504     CD =  0.01140   =>   CDf =  0.00732    CDp =  0.00408

 Side 1  free  transition at x/c =  0.6681   55
 Side 2  free  transition at x/c =  0.0407   24

 154   rms: 0.6821E-02   max: -.1122E+00   C at   55  1
       a = -2.500      CL =  0.0385
      Cm = -0.0504     CD =  0.01140   =>   CDf =  0.00732    CDp =  0.00408

 Side 1  free  transition at x/c =  0.6681   55
 Side 2  free  transition at x/c =  0.0407   24

 155   rms: 0.6821E-02   max: -.1121E+00   C at   55  1
       a = -2.500      CL =  0.0385
      Cm = -0.0504     CD =  0.01140   =>   CDf =  0.00732    CDp =  0.00408
 VISCAL:  Convergence failed
 Calculating wake trajectory ...
 Calculating source influence matrix ...

 Solving BL system ...

 Side 1  free  transition at x/c =  0.6681   55
 Side 2  free  transition at x/c =  0.0407   24

   1   rms: 0.1019E+00   max: -.2878E+00   T at   24  2
       a = -2.000      CL =  0.0931
      Cm = -0.0502     CD =  0.01047   =>   CDf =  0.00736    CDp =  0.00311

 Side 1  free  transition at x/c =  0.6572   56
 Side 2  free  transition at x/c =  0.0425   23

   2   rms: 0.8302E-02   max: -.7636E-01   D at   56  1
       a = -2.000      CL =  0.0935
      Cm = -0.0502     CD =  0.01076   =>   CDf =  0.00731    CDp =  0.00345

 Side 1  free  transition at x/c =  0.6586   56
 Side 2  free  transition at x/c =  0.0423   23

   3   rms: 0.4582E-03   max: -.5192E-02   D at   57  1
       a = -2.000      CL =  0.0935
      Cm = -0.0502     CD =  0.01076   =>   CDf =  0.00729    CDp =  0.00347

 Side 1  free  transition at x/c =  0.6585   56
 Side 2  free  transition at x/c =  0.0423   23

   4   rms: 0.1209E-05   max: -.2115E-04   D at   57  1
       a = -2.000      CL =  0.0935
      Cm = -0.0502     CD =  0.01076   =>   CDf =  0.00729    CDp =  0.00347
 plradd ia,ip,cpol            4           0  1.21827694E-02

 Point added to stored polar  1
 Point written to save file  m15_Re600k.base.pol                             
 Dump file unspecified or not available
 Calculating wake trajectory ...
 Calculating source influence matrix ...

 Solving BL system ...

 Side 1  free  transition at x/c =  0.6585   56
 Side 2  free  transition at x/c =  0.0423   23

   1   rms: 0.8994E-01   max: -.2710E+00   T at   23  2
       a = -1.500      CL =  0.1485
      Cm = -0.0500     CD =  0.01031   =>   CDf =  0.00732    CDp =  0.00298

 Side 1  free  transition at x/c =  0.6485   56
 Side 2  free  transition at x/c =  0.0445   22

   2   rms: 0.1089E-01   max: -.8110E-01   D at   56  1
       a = -1.500      CL =  0.1488
      Cm = -0.0500     CD =  0.01037   =>   CDf =  0.00736    CDp =  0.00301

 Side 1  free  transition at x/c =  0.6485   56
 Side 2  free  transition at x/c =  0.0445   22

   3   rms: 0.4129E-03   max: 0.3728E-02   D at    4  1
       a = -1.500      CL =  0.1488
      Cm = -0.0500     CD =  0.01037   =>   CDf =  0.00734    CDp =  0.00303

 Side 1  free  transition at x/c =  0.6484   56
 Side 2  free  transition at x/c =  0.0445   22

   4   rms: 0.8918E-06   max: -.5811E-05   D at   58  1
       a = -1.500      CL =  0.1488
      Cm = -0.0500     CD =  0.01037   =>   CDf =  0.00734    CDp =  0.00303
 plradd ia,ip,cpol            5           0  1.21827694E-02

 Point added to stored polar  1
 Point written to save file  m15_Re600k.base.pol                             
 Dump file unspecified or not available
 Calculating wake trajectory ...
 Calculating source influence matrix ...

 Solving BL system ...

 Side 1  free  transition at x/c =  0.6484   56
 Side 2  free  transition at x/c =  0.0445   22

   1   rms: 0.8877E-01   max: -.2596E+00   T at   22  2
       a = -1.000      CL =  0.2047
      Cm = -0.0500     CD =  0.00997   =>   CDf =  0.00736    CDp =  0.00261

 Side 1  free  transition at x/c =  0.6371   57
 Side 2  free  transition at x/c =  0.0469   21

   2   rms: 0.8290E-02   max: -.1035E+00   D at   57  1
       a = -1.000      CL =  0.2046
      Cm = -0.0500     CD =  0.01008   =>   CDf =  0.00743    CDp =  0.00265

 Side 1  free  transition at x/c =  0.6384   57
 Side 2  free  transition at x/c =  0.0470   21

   3   rms: 0.4592E-03   max: -.4679E-02   D at   58  1
       a = -1.000      CL =  0.2047
      Cm = -0.0500     CD =  0.01008   =>   CDf =  0.00740    CDp =  0.00268

 Side 1  free  transition at x/c =  0.6383   57
 Side 2  free  transition at x/c =  0.0470   21

   4   rms: 0.3032E-05   max: -.3097E-04   D at    4  1
       a = -1.000      CL =  0.2047
      Cm = -0.0500     CD =  0.01008   =>   CDf =  0.00740    CDp =  0.00268
 plradd ia,ip,cpol            6           0  1.50555493E-02

 Point added to stored polar  1
 Point written to save file  m15_Re600k.base.pol                             
 Dump file unspecified or not available
 Calculating wake trajectory ...
 Calculating source influence matrix ...

 Solving BL system ...

 Side 1  free  transition at x/c =  0.6383   57
 Side 2  free  transition at x/c =  0.0470   21

   1   rms: 0.8804E-01   max: -.3423E+00   T at   21  2
       a = -0.500      CL =  0.2604
      Cm = -0.0499     CD =  0.00993   =>   CDf =  0.00740    CDp =  0.00253

 Side 1  free  transition at x/c =  0.6284   56
 Side 2  free  transition at x/c =  0.0530   22

   2   rms: 0.2043E-01   max: 0.3422E+00   D at   22  2
       a = -0.500      CL =  0.2603
      Cm = -0.0499     CD =  0.00971   =>   CDf =  0.00742    CDp =  0.00230

 Side 1  free  transition at x/c =  0.6278   56
 Side 2  free  transition at x/c =  0.0553   22

   3   rms: 0.1535E-02   max: 0.2140E-01   C at   22  2
       a = -0.500      CL =  0.2604
      Cm = -0.0499     CD =  0.00974   =>   CDf =  0.00738    CDp =  0.00236

 Side 1  free  transition at x/c =  0.6277   56
 Side 2  free  transition at x/c =  0.0553   22

   4   rms: 0.1667E-04   max: 0.2595E-03   C at   22  2
       a = -0.500      CL =  0.2604
      Cm = -0.0499     CD =  0.00974   =>   CDf =  0.00738    CDp =  0.00236
 plradd ia,ip,cpol            7           0  1.50555493E-02

 Point added to stored polar  1
 Point written to save file  m15_Re600k.base.pol                             
 Dump file unspecified or not available
 Calculating wake trajectory ...
 Calculating source influence matrix ...

 Solving BL system ...

 Side 1  free  transition at x/c =  0.6277   56
 Side 2  free  transition at x/c =  0.0553   22

   1   rms: 0.9455E-01   max: -.5848E+00   T at   22  2   RLX: 0.855
       a =  0.000      CL =  0.3085
      Cm = -0.0499     CD =  0.00956   =>   CDf =  0.00737    CDp =  0.00219

 MRCHDU: Convergence failed at  22  side 2    Res =  0.1152E+02
 MRCHDU: Convergence failed at  23  side 2    Res =  0.1069E+01
 MRCHDU: Convergence failed at  24  side 2    Res =  0.1289E+01
 MRCHDU: Convergence failed at  25  side 2    Res =  0.1430E+01
 MRCHDU: Convergence failed at  26  side 2    Res =  0.1686E+01
 MRCHDU: Convergence failed at  27  side 2    Res =  0.1915E+01
 MRCHDU: Convergence failed at  28  side 2    Res =  0.2209E+01
 MRCHDU: Convergence failed at  29  side 2    Res =  0.2480E+01
 MRCHDU: Convergence failed at  30  side 2    Res =  0.2772E+01
 MRCHDU: Convergence failed at  31  side 2    Res =  0.3071E+01
 MRCHDU: Convergence failed at  32  side 2    Res =  0.3375E+01
 MRCHDU: Convergence failed at  33  side 2    Res =  0.3691E+01
 MRCHDU: Convergence failed at  34  side 2    Res =  0.4010E+01
 MRCHDU: Convergence failed at  35  side 2    Res =  0.4294E+01
 MRCHDU: Convergence failed at  36  side 2    Res =  0.4538E+01
 MRCHDU: Convergence failed at  37  side 2    Res =  0.4709E+01
 MRCHDU: Convergence failed at  38  side 2    Res =  0.4810E+01
 MRCHDU: Convergence failed at  39  side 2    Res =  0.4866E+01
 MRCHDU: Convergence failed at  40  side 2    Res =  0.4919E+01
 MRCHDU: Convergence failed at  41  side 2    Res =  0.4992E+01
 MRCHDU: Convergence failed at  42  side 2    Res =  0.5084E+01
 MRCHDU: Convergence failed at  43  side 2    Res =  0.5228E+01
 MRCHDU: Convergence failed at  44  side 2    Res =  0.5439E+01
 MRCHDU: Convergence failed at  45  side 2    Res =  0.5803E+01
 MRCHDU: Convergence failed at  46  side 2    Res =  0.6118E+01
 MRCHDU: Convergence failed at  47  side 2    Res =  0.6468E+01
 MRCHDU: Convergence failed at  48  side 2    Res =  0.6984E+01
 MRCHDU: Convergence failed at  49  side 2    Res =  0.7387E+01
 MRCHDU: Convergence failed at  50  side 2    Res =  0.7765E+01
 MRCHDU: Convergence failed at  51  side 2    Res =  0.8408E+01
 MRCHDU: Convergence failed at  52  side 2    Res =  0.9008E+01
 MRCHDU: Convergence failed at  53  side 2    Res =  0.9807E+01
 MRCHDU: Convergence failed at  54  side 2    Res =  0.1100E+02
 MRCHDU: Convergence failed at  55  side 2    Res =  0.1291E+02
 MRCHDU: Convergence failed at  56  side 2    Res =  0.1622E+02
 MRCHDU: Convergence failed at  57  side 2    Res =  0.2212E+02
 MRCHDU: Convergence failed at  58  side 2    Res =  0.3409E+02
 MRCHDU: Convergence failed at  59  side 2    Res =  0.9269E+02
 MRCHDU: Convergence failed at  60  side 2    Res =  0.4570E+03
 MRCHDU: Convergence failed at  61  side 2    Res =  0.7920E+02
 MRCHDU: Convergence failed at  62  side 2    Res =  0.4932E+02
 MRCHDU: Convergence failed at  63  side 2    Res =  0.3250E+02
 MRCHDU: Convergence failed at  64  side 2    Res =  0.2618E+02
 MRCHDU: Convergence failed at  65  side 2    Res =  0.2159E+02
 MRCHDU: Convergence failed at  66  side 2    Res =  0.1783E+02
 MRCHDU: Convergence failed at  67  side 2    Res =  0.1485E+02
 MRCHDU: Convergence failed at  68  side 2    Res =  0.1240E+02
 MRCHDU: Convergence failed at  69  side 2    Res =  0.1063E+02
 MRCHDU: Convergence failed at  70  side 2    Res =  0.9373E+01
 MRCHDU: Convergence failed at  71  side 2    Res =  0.8463E+01
 MRCHDU: Convergence failed at  72  side 2    Res =  0.7479E+01
 MRCHDU: Convergence failed at  73  side 2    Res =  0.7015E+01
 MRCHDU: Convergence failed at  74  side 2    Res =  0.6427E+01
 MRCHDU: Convergence failed at  75  side 2    Res =  0.6143E+01
 MRCHDU: Convergence failed at  76  side 2    Res =  0.5868E+01
 MRCHDU: Convergence failed at  77  side 2    Res =  0.5433E+01
 MRCHDU: Convergence failed at  78  side 2    Res =  0.4918E+01
 MRCHDU: Convergence failed at  79  side 2    Res =  0.4582E+01
 MRCHDU: Convergence failed at  80  side 2    Res =  0.4201E+01
 MRCHDU: Convergence failed at  81  side 2    Res =  0.2143E+02
 Side 1  free  transition at x/c =  0.6184   56
 Side 2 forced transition at x/c =  1.0000   81

   2   rms: 0.2982E+00   max: -.3304E+00   U at   81  2   RLX: 0.958
       a =  0.000      CL =  0.2804
      Cm = -0.0415     CD =  0.00605   =>   CDf =  0.00715    CDp = -0.00110

 Side 1  free  transition at x/c =  0.6179   56
 Side 2  free  transition at x/c =  0.2424   34

   3   rms: 0.7326E-01   max: 0.1192E+01   C at   34  2   RLX: 0.699
       a =  0.000      CL =  0.3010
      Cm = -0.0479     CD =  0.00910   =>   CDf =  0.00685    CDp =  0.00225

 Side 1  free  transition at x/c =  0.6173   56
 Side 2  free  transition at x/c =  0.1807   30

   4   rms: 0.3643E-01   max: 0.7338E+00   C at   30  2
       a =  0.000      CL =  0.3147
      Cm = -0.0497     CD =  0.00924   =>   CDf =  0.00699    CDp =  0.00226

 Side 1  free  transition at x/c =  0.6171   56
 Side 2  free  transition at x/c =  0.1531   28

   5   rms: 0.4783E-02   max: -.8105E-01   C at   28  2
       a =  0.000      CL =  0.3148
      Cm = -0.0497     CD =  0.00926   =>   CDf =  0.00705    CDp =  0.00221

 Side 1  free  transition at x/c =  0.6171   56
 Side 2  free  transition at x/c =  0.1537   28

   6   rms: 0.2904E-03   max: 0.6707E-02   C at   28  2
       a =  0.000      CL =  0.3148
      Cm = -0.0497     CD =  0.00926   =>   CDf =  0.00704    CDp =  0.00222

 Side 1  free  transition at x/c =  0.6171   56
 Side 2  free  transition at x/c =  0.1536   28

   7   rms: 0.1169E-05   max: -.8261E-05   D at   29  2
       a =  0.000      CL =  0.3148
      Cm = -0.0497     CD =  0.00926   =>   CDf =  0.00705    CDp =  0.00221
 plradd ia,ip,cpol            8           0  1.50555493E-02

 Point added to stored polar  1
 Point written to save file  m15_Re600k.base.pol                             
 Dump file unspecified or not available
 Calculating wake trajectory ...
 Calculating source influence matrix ...

 Solving BL system ...

 Side 1  free  transition at x/c =  0.6171   56
 Side 2  free  transition at x/c =  0.1536   28

   1   rms: 0.2364E+00   max: -.5155E+01   C at   28  2   RLX: 0.097
       a =  0.500      CL =  0.3202
      Cm = -0.0497     CD =  0.00922   =>   CDf =  0.00705    CDp =  0.00217

 Side 1  free  transition at x/c =  0.6159   56
 Side 2  free  transition at x/c =  0.1662   29

   2   rms: 0.2365E+00   max: -.5130E+01   C at   29  2   RLX: 0.097
       a =  0.500      CL =  0.3250
      Cm = -0.0497     CD =  0.00916   =>   CDf =  0.00700    CDp =  0.00217

 Side 1  free  transition at x/c =  0.6149   56
 Side 2  free  transition at x/c =  0.1769   30

   3   rms: 0.2242E+00   max: -.4497E+01   C at   30  2   RLX: 0.111
       a =  0.500      CL =  0.3300
      Cm = -0.0497     CD =  0.00911   =>   CDf =  0.00696    CDp =  0.00215

 Side 1  free  transition at x/c =  0.6138   56
 Side 2  free  transition at x/c =  0.1884   30

   4   rms: 0.1945E+00   max: -.4298E+01   C at   30  2   RLX: 0.116
       a =  0.500      CL =  0.3349
      Cm = -0.0497     CD =  0.00910   =>   CDf =  0.00693    CDp =  0.00217

 Side 1  free  transition at x/c =  0.6127   56
 Side 2  free  transition at x/c =  0.2031   31

   5   rms: 0.2393E+00   max: -.5380E+01   C at   31  2   RLX: 0.093
       a =  0.500      CL =  0.3379
      Cm = -0.0497     CD =  0.00904   =>   CDf =  0.00688    CDp =  0.00217

 Side 1  free  transition at x/c =  0.6120   56
 Side 2  free  transition at x/c =  0.2138   32

   6   rms: 0.2202E+00   max: -.4873E+01   C at   32  2   RLX: 0.103
       a =  0.500      CL =  0.3412
      Cm = -0.0497     CD =  0.00900   =>   CDf =  0.00684    CDp =  0.00216

 Side 1  free  transition at x/c =  0.6113   56
 Side 2  free  transition at x/c =  0.2250   33

   7   rms: 0.2065E+00   max: -.4321E+01   C at   33  2   RLX: 0.116
       a =  0.500      CL =  0.3444
      Cm = -0.0497     CD =  0.00895   =>   CDf =  0.00681    CDp =  0.00214

 Side 1  free  transition at x/c =  0.6105   56
 Side 2  free  transition at x/c =  0.2376   33

   8   rms: 0.2280E+00   max: -.5061E+01   C at   33  2   RLX: 0.099
       a =  0.500      CL =  0.3469
      Cm = -0.0496     CD =  0.00893   =>   CDf =  0.00674    CDp =  0.00220

 Side 1  free  transition at x/c =  0.6100   57
 Side 2  free  transition at x/c =  0.2495   33

   9   rms: 0.2237E+00   max: -.4913E+01   C at   33  2   RLX: 0.102
       a =  0.500      CL =  0.3491
      Cm = -0.0496     CD =  0.00889   =>   CDf =  0.00674    CDp =  0.00215

 Side 1  free  transition at x/c =  0.6095   57
 Side 2  free  transition at x/c =  0.2615   34

  10   rms: 0.2091E+00   max: -.4586E+01   C at   34  2   RLX: 0.109
       a =  0.500      CL =  0.3511
      Cm = -0.0496     CD =  0.00885   =>   CDf =  0.00671    CDp =  0.00214

 Side 1  free  transition at x/c =  0.6090   57
 Side 2  free  transition at x/c =  0.2736   35

  11   rms: 0.1924E+00   max: -.4099E+01   C at   35  2   RLX: 0.122
       a =  0.500      CL =  0.3532
      Cm = -0.0496     CD =  0.00880   =>   CDf =  0.00667    CDp =  0.00213

 Side 1  free  transition at x/c =  0.6085   57
 Side 2  free  transition at x/c =  0.2866   35

  12   rms: 0.2243E+00   max: -.4848E+01   C at   35  2   RLX: 0.103
       a =  0.500      CL =  0.3548
      Cm = -0.0496     CD =  0.00878   =>   CDf =  0.00664    CDp =  0.00215

 Side 1  free  transition at x/c =  0.6082   57
 Side 2  free  transition at x/c =  0.2985   36

  13   rms: 0.2133E+00   max: -.4646E+01   C at   36  2   RLX: 0.108
       a =  0.500      CL =  0.3561
      Cm = -0.0496     CD =  0.00874   =>   CDf =  0.00660    CDp =  0.00214

 Side 1  free  transition at x/c =  0.6078   57
 Side 2  free  transition at x/c =  0.3110   37

  14   rms: 0.2084E+00   max: -.4531E+01   C at   37  2   RLX: 0.110
       a =  0.500      CL =  0.3572
      Cm = -0.0496     CD =  0.00870   =>   CDf =  0.00657    CDp =  0.00213

 Side 1  free  transition at x/c =  0.6075   57
 Side 2  free  transition at x/c =  0.3242   38

  15   rms: 0.2391E+00   max: -.5188E+01   C at   38  2   RLX: 0.096
       a =  0.500      CL =  0.3581
      Cm = -0.0495     CD =  0.00865   =>   CDf =  0.00653    CDp =  0.00212

 Side 1  free  transition at x/c =  0.6073   57
 Side 2  free  transition at x/c =  0.3364   38

  16   rms: 0.2904E+00   max: -.6021E+01   C at   38  2   RLX: 0.083
       a =  0.500      CL =  0.3588
      Cm = -0.0495     CD =  0.00862   =>   CDf =  0.00649    CDp =  0.00213

 Side 1  free  transition at x/c =  0.6071   57
 Side 2  free  transition at x/c =  0.3460   39

  17   rms: 0.2220E+00   max: -.4739E+01   C at   39  2   RLX: 0.106
       a =  0.500      CL =  0.3596
      Cm = -0.0495     CD =  0.00859   =>   CDf =  0.00646    CDp =  0.00213

 Side 1  free  transition at x/c =  0.6069   57
 Side 2  free  transition at x/c =  0.3745   41

  18   rms: 0.5058E+00   max: -.1080E+02   C at   41  2   RLX: 0.046
       a =  0.500      CL =  0.3594
      Cm = -0.0494     CD =  0.00849   =>   CDf =  0.00638    CDp =  0.00211

 Side 1  free  transition at x/c =  0.6069   57
 Side 2  free  transition at x/c =  0.3899   42

  19   rms: 0.5559E+00   max: -.1184E+02   C at   42  2   RLX: 0.042
       a =  0.500      CL =  0.3594
      Cm = -0.0494     CD =  0.00844   =>   CDf =  0.00633    CDp =  0.00211

 Side 1  free  transition at x/c =  0.6068   57
 Side 2  free  transition at x/c =  0.4058   43

  20   rms: 0.5968E+00   max: -.1266E+02   C at   43  2   RLX: 0.039
       a =  0.500      CL =  0.3594
      Cm = -0.0494     CD =  0.00839   =>   CDf =  0.00629    CDp =  0.00211

 Side 1  free  transition at x/c =  0.6068   57
 Side 2  free  transition at x/c =  0.4217   44

  21   rms: 0.6245E+00   max: -.1321E+02   C at   44  2   RLX: 0.038
       a =  0.500      CL =  0.3593
      Cm = -0.0493     CD =  0.00834   =>   CDf =  0.00624    CDp =  0.00210

 Side 1  free  transition at x/c =  0.6067   57
 Side 2  free  transition at x/c =  0.4374   44

  22   rms: 0.8565E+00   max: -.1666E+02   C at   44  2   RLX: 0.030
       a =  0.500      CL =  0.3593
      Cm = -0.0493     CD =  0.00830   =>   CDf =  0.00619    CDp =  0.00211

 Side 1  free  transition at x/c =  0.6067   57
 Side 2  free  transition at x/c =  0.4507   45

  23   rms: 0.8148E+00   max: -.1614E+02   C at   45  2   RLX: 0.031
       a =  0.500      CL =  0.3592
      Cm = -0.0492     CD =  0.00826   =>   CDf =  0.00615    CDp =  0.00211

 Side 1  free  transition at x/c =  0.6067   57
 Side 2  free  transition at x/c =  0.4647   46

  24   rms: 0.7663E+00   max: -.1537E+02   C at   46  2   RLX: 0.033
       a =  0.500      CL =  0.3590
      Cm = -0.0492     CD =  0.00821   =>   CDf =  0.00611    CDp =  0.00210

 Side 1  free  transition at x/c =  0.6066   57
 Side 2  free  transition at x/c =  0.4794   47

  25   rms: 0.7190E+00   max: -.1448E+02   C at   47  2   RLX: 0.035
       a =  0.500      CL =  0.3589
      Cm = -0.0492     CD =  0.00816   =>   CDf =  0.00607    CDp =  0.00209

 Side 1  free  transition at x/c =  0.6066   57
 Side 2  free  transition at x/c =  0.4944   48

  26   rms: 0.6844E+00   max: -.1383E+02   C at   48  2   RLX: 0.036
       a =  0.500      CL =  0.3587
      Cm = -0.0491     CD =  0.00811   =>   CDf =  0.00602    CDp =  0.00209

 Side 1  free  transition at x/c =  0.6066   57
 Side 2  free  transition at x/c =  0.5097   49

  27   rms: 0.6538E+00   max: -.1321E+02   C at   49  2   RLX: 0.038
[...]

 Side 1  free  transition at x/c =  0.0209   28
 Side 2 forced transition at x/c =  1.0000   66

   2   rms: 0.3899E-02   max: 0.2513E-01   D at   77  1
       a = 12.750      CL =  1.3830
      Cm = -0.0177     CD =  0.03267   =>   CDf =  0.00660    CDp =  0.02607

 Side 1  free  transition at x/c =  0.0209   28
 Side 2 forced transition at x/c =  1.0000   66

   3   rms: 0.1391E-03   max: 0.1679E-02   D at   77  1
       a = 12.750      CL =  1.3829
      Cm = -0.0176     CD =  0.03266   =>   CDf =  0.00660    CDp =  0.02607

 Side 1  free  transition at x/c =  0.0209   28
 Side 2 forced transition at x/c =  1.0000   66

   4   rms: 0.3751E-05   max: 0.1564E-04   D at   77  2
       a = 12.750      CL =  1.3829
      Cm = -0.0176     CD =  0.03266   =>   CDf =  0.00660    CDp =  0.02607
 plradd ia,ip,cpol           39           0  8.00450041E-04

 Point added to stored polar  1
 Point written to save file  m15_Re600k.base.pol                             
 Dump file unspecified or not available
 Calculating wake trajectory ...
 Calculating source influence matrix ...

 Solving BL system ...

 Side 1  free  transition at x/c =  0.0209   28
 Side 2 forced transition at x/c =  1.0000   66

   1   rms: 0.3774E-01   max: 0.1278E+00   T at   28  1
       a = 13.000      CL =  1.3900
      Cm = -0.0171     CD =  0.03477   =>   CDf =  0.00660    CDp =  0.02817

 Side 1  free  transition at x/c =  0.0200   28
 Side 2 forced transition at x/c =  1.0000   66

   2   rms: 0.5193E-02   max: 0.3786E-01   D at   76  1
       a = 13.000      CL =  1.3864
      Cm = -0.0169     CD =  0.03486   =>   CDf =  0.00655    CDp =  0.02832

 Side 1  free  transition at x/c =  0.0201   28
 Side 2 forced transition at x/c =  1.0000   66

   3   rms: 0.1925E-03   max: 0.1729E-02   D at   77  2
       a = 13.000      CL =  1.3862
      Cm = -0.0169     CD =  0.03484   =>   CDf =  0.00654    CDp =  0.02830

 Side 1  free  transition at x/c =  0.0201   28
 Side 2 forced transition at x/c =  1.0000   66

   4   rms: 0.3117E-05   max: 0.3265E-04   D at   77  2
       a = 13.000      CL =  1.3862
      Cm = -0.0169     CD =  0.03484   =>   CDf =  0.00654    CDp =  0.02830
 plradd ia,ip,cpol           40           0  8.00450041E-04

 Point added to stored polar  1
 Point written to save file  m15_Re600k.base.pol                             
 Dump file unspecified or not available
 Calculating wake trajectory ...
 Calculating source influence matrix ...

 Solving BL system ...

 Side 1  free  transition at x/c =  0.0201   28
 Side 2 forced transition at x/c =  1.0000   66

   1   rms: 0.3968E-01   max: 0.1329E+00   D at   74  1   RLX: 0.994
       a = 13.250      CL =  1.3900
      Cm = -0.0165     CD =  0.03738   =>   CDf =  0.00654    CDp =  0.03084

 Side 1  free  transition at x/c =  0.0193   28
 Side 2 forced transition at x/c =  1.0000   66

   2   rms: 0.8201E-02   max: 0.4804E-01   D at   75  1
       a = 13.250      CL =  1.3845
      Cm = -0.0162     CD =  0.03764   =>   CDf =  0.00647    CDp =  0.03116

 Side 1  free  transition at x/c =  0.0193   28
 Side 2 forced transition at x/c =  1.0000   66

   3   rms: 0.4355E-03   max: 0.4693E-02   D at   74  1
       a = 13.250      CL =  1.3842
      Cm = -0.0162     CD =  0.03759   =>   CDf =  0.00646    CDp =  0.03112

 Side 1  free  transition at x/c =  0.0193   28
 Side 2 forced transition at x/c =  1.0000   66

   4   rms: 0.8771E-05   max: 0.5011E-04   D at   77  2
       a = 13.250      CL =  1.3842
      Cm = -0.0162     CD =  0.03758   =>   CDf =  0.00646    CDp =  0.03112
 plradd ia,ip,cpol           41           0  8.00450041E-04

 Point added to stored polar  1
 Point written to save file  m15_Re600k.base.pol                             
 Dump file unspecified or not available
 Calculating wake trajectory ...
 Calculating source influence matrix ...

 Solving BL system ...

 Side 1  free  transition at x/c =  0.0193   28
 Side 2 forced transition at x/c =  1.0000   66

   1   rms: 0.4558E-01   max: 0.1707E+00   D at   72  1   RLX: 0.925
       a = 13.500      CL =  1.3816
      Cm = -0.0158     CD =  0.04079   =>   CDf =  0.00647    CDp =  0.03433

 Side 1  free  transition at x/c =  0.0187   27
 Side 2 forced transition at x/c =  1.0000   66

   2   rms: 0.7951E-02   max: -.7749E-01   D at   27  1
       a = 13.500      CL =  1.3822
      Cm = -0.0156     CD =  0.04041   =>   CDf =  0.00637    CDp =  0.03404

 Side 1  free  transition at x/c =  0.0187   27
 Side 2 forced transition at x/c =  1.0000   66

   3   rms: 0.3100E-03   max: -.1851E-02   D at   73  1
       a = 13.500      CL =  1.3823
      Cm = -0.0155     CD =  0.04039   =>   CDf =  0.00637    CDp =  0.03403

 Side 1  free  transition at x/c =  0.0187   27
 Side 2 forced transition at x/c =  1.0000   66

   4   rms: 0.1757E-04   max: -.1048E-03   D at   78  2
       a = 13.500      CL =  1.3823
      Cm = -0.0156     CD =  0.04040   =>   CDf =  0.00637    CDp =  0.03403
 plradd ia,ip,cpol           42           0  3.08112270E-04

 Point added to stored polar  1
 Point written to save file  m15_Re600k.base.pol                             
 Dump file unspecified or not available
 Calculating wake trajectory ...
 Calculating source influence matrix ...

 Solving BL system ...

 Side 1  free  transition at x/c =  0.0187   27
 Side 2 forced transition at x/c =  1.0000   66

   1   rms: 0.3495E-01   max: 0.1130E+00   T at   27  1   RLX: 0.889
       a = 13.750      CL =  1.3883
      Cm = -0.0154     CD =  0.04253   =>   CDf =  0.00602    CDp =  0.03651

 Side 1  free  transition at x/c =  0.0183   28
 Side 2 forced transition at x/c =  1.0000   65

   2   rms: 0.6449E-02   max: 0.3168E-01   D at   72  1
       a = 13.750      CL =  1.3858
      Cm = -0.0152     CD =  0.04281   =>   CDf =  0.00628    CDp =  0.03653

 Side 1  free  transition at x/c =  0.0183   28
 Side 2 forced transition at x/c =  1.0000   65

   3   rms: 0.1170E-02   max: -.9234E-02   D at    4  1
       a = 13.750      CL =  1.3852
      Cm = -0.0152     CD =  0.04278   =>   CDf =  0.00627    CDp =  0.03651

 Side 1  free  transition at x/c =  0.0183   28
 Side 2 forced transition at x/c =  1.0000   65

   4   rms: 0.5514E-04   max: 0.3601E-03   D at   77  2
       a = 13.750      CL =  1.3851
      Cm = -0.0152     CD =  0.04277   =>   CDf =  0.00626    CDp =  0.03651
 plradd ia,ip,cpol           43           0  3.08112270E-04

 Point added to stored polar  1
 Point written to save file  m15_Re600k.base.pol                             
 Dump file unspecified or not available
 Calculating wake trajectory ...
 Calculating source influence matrix ...

 Solving BL system ...

 Side 1  free  transition at x/c =  0.0183   28
 Side 2 forced transition at x/c =  1.0000   65

   1   rms: 0.3483E-01   max: 0.1178E+00   D at   71  1   RLX: 0.847
       a = 14.000      CL =  1.3889
      Cm = -0.0151     CD =  0.04505   =>   CDf =  0.00627    CDp =  0.03879

 Side 1  free  transition at x/c =  0.0178   28
 Side 2 forced transition at x/c =  1.0000   65

   2   rms: 0.6687E-02   max: 0.3655E-01   D at   71  1
       a = 14.000      CL =  1.3868
      Cm = -0.0148     CD =  0.04540   =>   CDf =  0.00619    CDp =  0.03921

 Side 1  free  transition at x/c =  0.0178   28
 Side 2 forced transition at x/c =  1.0000   65

   3   rms: 0.8537E-03   max: 0.5547E-02   D at   71  1
       a = 14.000      CL =  1.3862
      Cm = -0.0148     CD =  0.04537   =>   CDf =  0.00617    CDp =  0.03919

 Side 1  free  transition at x/c =  0.0178   28
 Side 2 forced transition at x/c =  1.0000   65

   4   rms: 0.5250E-04   max: 0.2749E-03   D at   77  2
       a = 14.000      CL =  1.3861
      Cm = -0.0148     CD =  0.04536   =>   CDf =  0.00617    CDp =  0.03919
 plradd ia,ip,cpol           44           0  3.08112270E-04

 Point added to stored polar  1
 Point written to save file  m15_Re600k.base.pol                             
 Dump file unspecified or not available
 Calculating wake trajectory ...
 Calculating source influence matrix ...

 Solving BL system ...

 Side 1  free  transition at x/c =  0.0178   28
 Side 2 forced transition at x/c =  1.0000   65

   1   rms: 0.3480E-01   max: 0.1221E+00   D at   69  1   RLX: 0.807
       a = 14.250      CL =  1.3888
      Cm = -0.0148     CD =  0.04772   =>   CDf =  0.00618    CDp =  0.04154

 Side 1  free  transition at x/c =  0.0173   28
 Side 2 forced transition at x/c =  1.0000   65

   2   rms: 0.7673E-02   max: 0.4135E-01   D at   70  1
       a = 14.250      CL =  1.3869
      Cm = -0.0146     CD =  0.04817   =>   CDf =  0.00611    CDp =  0.04206

 Side 1  free  transition at x/c =  0.0173   28
 Side 2 forced transition at x/c =  1.0000   65

   3   rms: 0.9533E-03   max: 0.5448E-02   D at   70  1
       a = 14.250      CL =  1.3861
      Cm = -0.0145     CD =  0.04812   =>   CDf =  0.00609    CDp =  0.04203

 Side 1  free  transition at x/c =  0.0173   28
 Side 2 forced transition at x/c =  1.0000   65

   4   rms: 0.5782E-04   max: 0.3256E-03   D at   78  2
       a = 14.250      CL =  1.3861
      Cm = -0.0145     CD =  0.04811   =>   CDf =  0.00609    CDp =  0.04203
 plradd ia,ip,cpol           45           0  3.08112270E-04

 Point added to stored polar  1
 Point written to save file  m15_Re600k.base.pol                             
 Dump file unspecified or not available
 Calculating wake trajectory ...
 Calculating source influence matrix ...

 Solving BL system ...

 Side 1  free  transition at x/c =  0.0173   28
 Side 2 forced transition at x/c =  1.0000   65

   1   rms: 0.3443E-01   max: 0.1240E+00   D at   68  1   RLX: 0.770
       a = 14.500      CL =  1.3881
      Cm = -0.0146     CD =  0.05049   =>   CDf =  0.00609    CDp =  0.04440

 Side 1  free  transition at x/c =  0.0169   28
 Side 2 forced transition at x/c =  1.0000   65

   2   rms: 0.8719E-02   max: 0.4573E-01   D at   69  1
       a = 14.500      CL =  1.3863
      Cm = -0.0145     CD =  0.05109   =>   CDf =  0.00603    CDp =  0.04506

 Side 1  free  transition at x/c =  0.0168   28
 Side 2 forced transition at x/c =  1.0000   65

   3   rms: 0.1197E-02   max: 0.7568E-02   D at   78  2
       a = 14.500      CL =  1.3854
      Cm = -0.0144     CD =  0.05103   =>   CDf =  0.00601    CDp =  0.04502

 Side 1  free  transition at x/c =  0.0168   28
 Side 2 forced transition at x/c =  1.0000   65

   4   rms: 0.7302E-04   max: 0.6348E-03   D at   78  2
       a = 14.500      CL =  1.3854
      Cm = -0.0144     CD =  0.05102   =>   CDf =  0.00601    CDp =  0.04501
 plradd ia,ip,cpol           46           0  3.08112270E-04

 Point added to stored polar  1
 Point written to save file  m15_Re600k.base.pol                             
 Dump file unspecified or not available
 Calculating wake trajectory ...
 Calculating source influence matrix ...

 Solving BL system ...

 Side 1  free  transition at x/c =  0.0168   28
 Side 2 forced transition at x/c =  1.0000   65

   1   rms: 0.3420E-01   max: 0.1259E+00   D at   67  1   RLX: 0.735
       a = 14.750      CL =  1.3869
      Cm = -0.0146     CD =  0.05343   =>   CDf =  0.00601    CDp =  0.04742

 Side 1  free  transition at x/c =  0.0165   28
 Side 2 forced transition at x/c =  1.0000   65

   2   rms: 0.1002E-01   max: 0.5106E-01   D at   68  1
       a = 14.750      CL =  1.3847
      Cm = -0.0144     CD =  0.05420   =>   CDf =  0.00595    CDp =  0.04824

 Side 1  free  transition at x/c =  0.0164   28
 Side 2 forced transition at x/c =  1.0000   65

   3   rms: 0.1370E-02   max: 0.6401E-02   D at   68  1
       a = 14.750      CL =  1.3837
      Cm = -0.0144     CD =  0.05411   =>   CDf =  0.00593    CDp =  0.04818

 Side 1  free  transition at x/c =  0.0164   28
 Side 2 forced transition at x/c =  1.0000   65

   4   rms: 0.8596E-04   max: 0.4771E-03   D at   78  2
       a = 14.750      CL =  1.3836
      Cm = -0.0144     CD =  0.05410   =>   CDf =  0.00593    CDp =  0.04817
 plradd ia,ip,cpol           47           0  3.08112270E-04

 Point added to stored polar  1
 Point written to save file  m15_Re600k.base.pol                             
 Dump file unspecified or not available
 Calculating wake trajectory ...
 Calculating source influence matrix ...

 Solving BL system ...

 Side 1  free  transition at x/c =  0.0164   28
 Side 2 forced transition at x/c =  1.0000   65

   1   rms: 0.3413E-01   max: 0.1290E+00   D at   66  1   RLX: 0.703
       a = 15.000      CL =  1.3845
      Cm = -0.0146     CD =  0.05657   =>   CDf =  0.00593    CDp =  0.05064

 Side 1  free  transition at x/c =  0.0161   28
 Side 2 forced transition at x/c =  1.0000   65

   2   rms: 0.1197E-01   max: 0.6041E-01   D at   67  1
       a = 15.000      CL =  1.3816
      Cm = -0.0146     CD =  0.05762   =>   CDf =  0.00588    CDp =  0.05173

 Side 1  free  transition at x/c =  0.0160   28
 Side 2 forced transition at x/c =  1.0000   65

   3   rms: 0.1679E-02   max: 0.8028E-02   D at   79  2
       a = 15.000      CL =  1.3803
      Cm = -0.0145     CD =  0.05749   =>   CDf =  0.00586    CDp =  0.05163

 Side 1  free  transition at x/c =  0.0160   28
 Side 2 forced transition at x/c =  1.0000   65

   4   rms: 0.9387E-04   max: 0.6114E-03   D at   79  2
       a = 15.000      CL =  1.3802
      Cm = -0.0145     CD =  0.05747   =>   CDf =  0.00585    CDp =  0.05161
 plradd ia,ip,cpol           48           0  3.08112270E-04

 Point added to stored polar  1
 Point written to save file  m15_Re600k.base.pol                             
 Dump file unspecified or not available
 Calculating wake trajectory ...
 Calculating source influence matrix ...

 Solving BL system ...

 Side 1  free  transition at x/c =  0.0160   28
 Side 2 forced transition at x/c =  1.0000   65

   1   rms: 0.3554E-01   max: 0.1440E+00   D at   65  1   RLX: 0.670
       a = 15.250      CL =  1.3793
      Cm = -0.0148     CD =  0.06016   =>   CDf =  0.00586    CDp =  0.05431

 Side 1  free  transition at x/c =  0.0157   28
 Side 2 forced transition at x/c =  1.0000   65

   2   rms: 0.1475E-01   max: 0.7561E-01   D at   66  1
       a = 15.250      CL =  1.3748
      Cm = -0.0149     CD =  0.06158   =>   CDf =  0.00581    CDp =  0.05577

 Side 1  free  transition at x/c =  0.0156   28
 Side 2 forced transition at x/c =  1.0000   65

   3   rms: 0.1905E-02   max: 0.1053E-01   D at   79  2
       a = 15.250      CL =  1.3733
      Cm = -0.0147     CD =  0.06138   =>   CDf =  0.00578    CDp =  0.05560

 Side 1  free  transition at x/c =  0.0156   28
 Side 2 forced transition at x/c =  1.0000   65

   4   rms: 0.1038E-03   max: 0.1367E-02   D at   79  2
       a = 15.250      CL =  1.3733
      Cm = -0.0147     CD =  0.06135   =>   CDf =  0.00577    CDp =  0.05558

 Side 1  free  transition at x/c =  0.0156   28
 Side 2 forced transition at x/c =  1.0000   65

   5   rms: 0.1679E-05   max: 0.1193E-04   D at   79  2
       a = 15.250      CL =  1.3733
      Cm = -0.0147     CD =  0.06135   =>   CDf =  0.00577    CDp =  0.05558
 plradd ia,ip,cpol           49           0  3.08112270E-04

 Point added to stored polar  1
 Point written to save file  m15_Re600k.base.pol                             
 Dump file unspecified or not available
 Calculating wake trajectory ...
 Calculating source influence matrix ...

 Solving BL system ...

 Side 1  free  transition at x/c =  0.0156   28
 Side 2 forced transition at x/c =  1.0000   65

   1   rms: 0.3769E-01   max: 0.1604E+00   D at   64  1   RLX: 0.637
       a = 15.500      CL =  1.3703
      Cm = -0.0152     CD =  0.06433   =>   CDf =  0.00578    CDp =  0.05855

 Side 1  free  transition at x/c =  0.0154   28
 Side 2 forced transition at x/c =  1.0000   65

   2   rms: 0.1744E-01   max: 0.9041E-01   D at   65  1
       a = 15.500      CL =  1.3641
      Cm = -0.0153     CD =  0.06610   =>   CDf =  0.00573    CDp =  0.06037

 Side 1  free  transition at x/c =  0.0153   28
 Side 2 forced transition at x/c =  1.0000   65

   3   rms: 0.2038E-02   max: 0.1127E-01   D at   79  2
       a = 15.500      CL =  1.3626
      Cm = -0.0151     CD =  0.06577   =>   CDf =  0.00569    CDp =  0.06008

 Side 1  free  transition at x/c =  0.0153   28
 Side 2 forced transition at x/c =  1.0000   65

   4   rms: 0.4841E-04   max: 0.3166E-03   D at   79  2
       a = 15.500      CL =  1.3626
      Cm = -0.0151     CD =  0.06574   =>   CDf =  0.00568    CDp =  0.06006
 plradd ia,ip,cpol           50           0  3.08112270E-04

 Point added to stored polar  1
 Point written to save file  m15_Re600k.base.pol                             
 Dump file unspecified or not available
 Calculating wake trajectory ...
 Calculating source influence matrix ...

 Solving BL system ...

 Side 1  free  transition at x/c =  0.0153   28
 Side 2 forced transition at x/c =  1.0000   65

   1   rms: 0.4161E-01   max: 0.1802E+00   D at   63  1   RLX: 0.603
       a = 15.750      CL =  1.3573
      Cm = -0.0156     CD =  0.06904   =>   CDf =  0.00569    CDp =  0.06335

 Side 1  free  transition at x/c =  0.0151   27
 Side 2 forced transition at x/c =  1.0000   65

   2   rms: 0.1219E-01   max: 0.4865E-01   D at   63  1
       a = 15.750      CL =  1.3575
      Cm = -0.0156     CD =  0.06992   =>   CDf =  0.00563    CDp =  0.06430

 Side 1  free  transition at x/c =  0.0150   27
 Side 2 forced transition at x/c =  1.0000   65

   3   rms: 0.1995E-02   max: 0.8859E-02   D at   80  2
       a = 15.750      CL =  1.3559
      Cm = -0.0155     CD =  0.06979   =>   CDf =  0.00559    CDp =  0.06420

 Side 1  free  transition at x/c =  0.0150   27
 Side 2 forced transition at x/c =  1.0000   65

   4   rms: 0.2105E-03   max: 0.1031E-02   D at   80  2
       a = 15.750      CL =  1.3558
      Cm = -0.0155     CD =  0.06977   =>   CDf =  0.00559    CDp =  0.06418

 Side 1  free  transition at x/c =  0.0150   27
 Side 2 forced transition at x/c =  1.0000   65

   5   rms: 0.1849E-04   max: 0.9432E-04   D at   80  2
       a = 15.750      CL =  1.3558
      Cm = -0.0155     CD =  0.06977   =>   CDf =  0.00559    CDp =  0.06418
 plradd ia,ip,cpol           51           0  3.08112270E-04

 Point added to stored polar  1
 Point written to save file  m15_Re600k.base.pol                             
 Dump file unspecified or not available
 Calculating wake trajectory ...
 Calculating source influence matrix ...

 Solving BL system ...

 Side 1  free  transition at x/c =  0.0150   27
 Side 2 forced transition at x/c =  1.0000   65

   1   rms: 0.3005E-01   max: 0.1080E+00   D at   62  1   RLX: 0.587
       a = 16.000      CL =  1.3581
      Cm = -0.0159     CD =  0.07188   =>   CDf =  0.00521    CDp =  0.06667

 Side 1  free  transition at x/c =  0.0149   28
 Side 2 forced transition at x/c =  1.0000   64

   2   rms: 0.1454E-01   max: 0.9959E-01   D at    2  1
       a = 16.000      CL =  1.3571
      Cm = -0.0161     CD =  0.07332   =>   CDf =  0.00553    CDp =  0.06779

 Side 1  free  transition at x/c =  0.0148   28
 Side 2 forced transition at x/c =  1.0000   64

   3   rms: 0.2255E-02   max: 0.1062E-01   D at   79  2
       a = 16.000      CL =  1.3553
      Cm = -0.0160     CD =  0.07315   =>   CDf =  0.00549    CDp =  0.06766

 Side 1  free  transition at x/c =  0.0148   28
 Side 2 forced transition at x/c =  1.0000   64

   4   rms: 0.2091E-03   max: 0.1238E-02   D at   79  2
       a = 16.000      CL =  1.3552
      Cm = -0.0160     CD =  0.07311   =>   CDf =  0.00548    CDp =  0.06763

 Side 1  free  transition at x/c =  0.0148   28
 Side 2 forced transition at x/c =  1.0000   64

   5   rms: 0.1548E-04   max: 0.9251E-04   D at   79  2
       a = 16.000      CL =  1.3551
      Cm = -0.0160     CD =  0.07311   =>   CDf =  0.00548    CDp =  0.06763
 plradd ia,ip,cpol           52           0  3.08112270E-04

 Point added to stored polar  1
 Point written to save file  m15_Re600k.base.pol                             
 Dump file unspecified or not available

.OPERva   c>  
 Polar accumulation disabled

.OPERv   c>  
 XFOIL   c>  
 XFOIL   c>  