
 ===================================================
  XFOIL Version 6.99
  Copyright (C) 2000   Mark Drela, Harold Youngren

  This software comes with ABSOLUTELY NO WARRANTY,
    subject to the GNU General Public License.

  Caveat computor
 ===================================================

 File  xfoil.def  not found

   QUIT    Exit program

  .OPER    Direct operating point(s)
  .MDES    Complex mapping design routine
  .QDES    Surface speed design routine
  .GDES    Geometry design routine

   SAVE f  Write airfoil to labeled coordinate file
   PSAV f  Write airfoil to plain coordinate file
   ISAV f  Write airfoil to ISES coordinate file
   MSAV f  Write airfoil to MSES coordinate file
   REVE    Reverse written-airfoil node ordering

   LOAD f  Read buffer airfoil from coordinate file
   NACA i  Set NACA 4,5-digit airfoil and buffer airfoil
   INTE    Set buffer airfoil by interpolating two airfoils
   NORM    Buffer airfoil normalization toggle
   XYCM rr Change CM reference location, currently  0.25000 0.00000

   BEND    Display structural properties of current airfoil

   PCOP    Set current-airfoil panel nodes directly from buffer airfoil points
   PANE    Set current-airfoil panel nodes ( 160 ) based on curvature
  .PPAR    Show/change paneling

  .PLOP    Plotting options

   WDEF f  Write  current-settings file
   RDEF f  Reread current-settings file
   NAME s  Specify new airfoil name
   NINC    Increment name version number

   Z       Zoom    | (available in all menus)
   U       Unzoom  | 

 XFOIL   c>  
 Labeled airfoil file.  Name:  NACA M19 AIRFOIL                                

 Number of input coordinate points:  33
 Counterclockwise ordering
 Max thickness =     0.061705  at x =   0.300
 Max camber    =     0.059796  at x =   0.300

  LE  x,y  =  -0.00009   0.00078  |   Chord =   1.00009
  TE  x,y  =   1.00000   0.00000  |

 Current airfoil nodes set from buffer airfoil nodes (  33 )

 WARNING: Poor input coordinate distribution
          Excessive panel angle   75.8  at i =  17
          Repaneling with PANE and/or PPAR suggested
           (doing GDES,CADD before repaneling _may_
            improve excessively coarse LE spacing

 XFOIL   c>  
 XFOIL   c>  
 Blunt trailing edge.  Gap =  0.00380

 Paneling parameters used...
   Number of panel nodes       160
   Panel bunching parameter    1.000
   TE/LE panel density ratio   0.150
   Refined-area/LE panel density ratio    0.200
   Top    side refined area x/c limits  1.000 1.000
   Bottom side refined area x/c limits  1.000 1.000

 XFOIL   c>  
.OPERi   c>  
 Xtr/c     =  1.0000    top    side
 Xtr/c     =  1.0000    bottom side
 Ncrit     =    9.00   ( 0.070 % turb. level )
 Vacc      =  0.0100

 Klag  =  5.6000     Uxwt  =    1.00
 A     =  6.7000     B     =  0.7500       KCt = 0.01485
 CtiniK=  1.8000     CtiniX=  3.3000

..VPAR   c>  
..VPAR   c>  
.OPERi   c>  
 M  =    0.0000
 Re =    500000

.OPERv   c>  
.OPERv   c>  
.OPERv   c>  
 Polar  1 newly created for accumulation
 Airfoil archived with polar: NACA M19 AIRFOIL                                

Enter  polar save filename  OR  <return> for no file   s>  
 New polar save file available

Enter  polar dump filename  OR  <return> for no file   s>  
 Polar dump file will NOT be written

 Polar accumulation enabled

.OPERva   c>   Calculating unit vorticity distributions ...
 Calculating wake trajectory ...
 Calculating source influence matrix ...

 Solving BL system ...

 Initializing BL ...
    side            1  ...
 MRCHUE: Inverse mode at  39     Hk =   3.984
 MRCHUE: Inverse mode at  40     Hk =   4.682
 MRCHUE: Inverse mode at  41     Hk =   5.364
 MRCHUE: Inverse mode at  42     Hk =   6.033
 MRCHUE: Inverse mode at  43     Hk =   6.692
 MRCHUE: Inverse mode at  44     Hk =   7.343
 MRCHUE: Inverse mode at  45     Hk =   7.987
 MRCHUE: Inverse mode at  46     Hk =   8.625
 MRCHUE: Inverse mode at  47     Hk =   7.887
 MRCHUE: Inverse mode at  48     Hk =   5.321
 MRCHUE: Inverse mode at  49     Hk =   3.764
 MRCHUE: Inverse mode at  50     Hk =   2.658
    side            2  ...
 MRCHUE: Inverse mode at  16     Hk =   4.563
 MRCHUE: Convergence failed at  17  side 2    Res =  0.1141E+02
 MRCHUE: Inverse mode at  18     Hk =   7.087
 MRCHUE: Inverse mode at  19     Hk =   2.500
 MRCHUE: Inverse mode at  20     Hk =   2.500
 MRCHUE: Inverse mode at  21     Hk =   2.500
 MRCHUE: Inverse mode at  22     Hk =   2.500
 MRCHUE: Inverse mode at  23     Hk =   2.500
 MRCHUE: Inverse mode at  24     Hk =   2.500
 MRCHUE: Inverse mode at  25     Hk =   2.500
 MRCHUE: Inverse mode at  26     Hk =   2.500
 MRCHUE: Inverse mode at  27     Hk =   2.500
 MRCHUE: Inverse mode at  28     Hk =   2.500
 MRCHUE: Inverse mode at  29     Hk =   2.500
 MRCHUE: Inverse mode at  30     Hk =   2.500
 MRCHUE: Inverse mode at  31     Hk =   2.500

 MRCHDU: Convergence failed at  17  side 2    Res =  0.3355E+01
 MRCHDU: Convergence failed at  18  side 2    Res =  0.3994E+01
 MRCHDU: Convergence failed at  19  side 2    Res =  0.7584E+01
 MRCHDU: Convergence failed at  20  side 2    Res =  0.2666E+02
 MRCHDU: Convergence failed at  21  side 2    Res =  0.4418E+02
 MRCHDU: Convergence failed at  22  side 2    Res =  0.7072E+02
 MRCHDU: Convergence failed at  23  side 2    Res =  0.3169E+03
 MRCHDU: Convergence failed at  24  side 2    Res =  0.5566E+02
 MRCHDU: Convergence failed at  25  side 2    Res =  0.3813E+02
 MRCHDU: Convergence failed at  26  side 2    Res =  0.1276E+03
 MRCHDU: Convergence failed at  27  side 2    Res =  0.6036E+02
 MRCHDU: Convergence failed at  28  side 2    Res =  0.6030E+02
 MRCHDU: Convergence failed at  29  side 2    Res =  0.9992E+02
 MRCHDU: Convergence failed at  30  side 2    Res =  0.2468E+03
 MRCHDU: Convergence failed at  31  side 2    Res =  0.1470E+02
 MRCHDU: Convergence failed at  32  side 2    Res =  0.1460E+02
 MRCHDU: Convergence failed at  33  side 2    Res =  0.2477E+02
 MRCHDU: Convergence failed at  34  side 2    Res =  0.1593E+03
 MRCHDU: Convergence failed at  35  side 2    Res =  0.2596E+03
 MRCHDU: Convergence failed at  36  side 2    Res =  0.6186E+03
 MRCHDU: Convergence failed at  37  side 2    Res =  0.2377E+04
 MRCHDU: Convergence failed at  38  side 2    Res =  0.1890E+04
 MRCHDU: Convergence failed at  39  side 2    Res =  0.4421E+03
 MRCHDU: Convergence failed at  40  side 2    Res =  0.1845E+03
 MRCHDU: Convergence failed at  41  side 2    Res =  0.4682E+02
 MRCHDU: Convergence failed at  42  side 2    Res =  0.4768E+02
 MRCHDU: Convergence failed at  43  side 2    Res =  0.4883E+02
 MRCHDU: Convergence failed at  44  side 2    Res =  0.1345E+02
 MRCHDU: Convergence failed at  45  side 2    Res =  0.1373E+02
 MRCHDU: Convergence failed at  46  side 2    Res =  0.8678E+03
 MRCHDU: Convergence failed at  47  side 2    Res =  0.2065E+04
 MRCHDU: Convergence failed at  48  side 2    Res =  0.3362E+03
 MRCHDU: Convergence failed at  49  side 2    Res =  0.1895E+03
 MRCHDU: Convergence failed at  50  side 2    Res =  0.1386E+02
 MRCHDU: Convergence failed at  51  side 2    Res =  0.1425E+02
 MRCHDU: Convergence failed at  52  side 2    Res =  0.2810E+04
 MRCHDU: Convergence failed at  53  side 2    Res =  0.6338E+03
 MRCHDU: Convergence failed at  54  side 2    Res =  0.2813E+03
 MRCHDU: Convergence failed at  55  side 2    Res =  0.1483E+02
 MRCHDU: Convergence failed at  56  side 2    Res =  0.1523E+02
 MRCHDU: Convergence failed at  57  side 2    Res =  0.1402E+04
 MRCHDU: Convergence failed at  58  side 2    Res =  0.4438E+03
 MRCHDU: Convergence failed at  59  side 2    Res =  0.1590E+02
 MRCHDU: Convergence failed at  60  side 2    Res =  0.1623E+02
 MRCHDU: Convergence failed at  61  side 2    Res =  0.1112E+04
 MRCHDU: Convergence failed at  62  side 2    Res =  0.1708E+02
 MRCHDU: Convergence failed at  63  side 2    Res =  0.5756E+05
 MRCHDU: Convergence failed at  64  side 2    Res =  0.1842E+02
 MRCHDU: Convergence failed at  65  side 2    Res =  0.1864E+02
 MRCHDU: Convergence failed at  66  side 2    Res =  0.8291E+03
 MRCHDU: Convergence failed at  67  side 2    Res =  0.5265E+03
 MRCHDU: Convergence failed at  68  side 2    Res =  0.2520E+02
 MRCHDU: Convergence failed at  69  side 2    Res =  0.2540E+02
 MRCHDU: Convergence failed at  70  side 2    Res =  0.2549E+02
 MRCHDU: Convergence failed at  71  side 2    Res =  0.2549E+02
 MRCHDU: Convergence failed at  72  side 2    Res =  0.2558E+02
 MRCHDU: Convergence failed at  73  side 2    Res =  0.2530E+02
 MRCHDU: Convergence failed at  74  side 2    Res =  0.2514E+02
 MRCHDU: Convergence failed at  75  side 2    Res =  0.2035E+02
 MRCHDU: Convergence failed at  76  side 2    Res =  0.1814E+04
 MRCHDU: Convergence failed at  77  side 2    Res =  0.1880E+02
 MRCHDU: Convergence failed at  78  side 2    Res =  0.1796E+05
 MRCHDU: Convergence failed at  79  side 2    Res =  0.1758E+02
 MRCHDU: Convergence failed at  80  side 2    Res =  0.1660E+02
 MRCHDU: Convergence failed at  81  side 2    Res =  0.1589E+02
 MRCHDU: Convergence failed at  82  side 2    Res =  0.9661E+03
 MRCHDU: Convergence failed at  83  side 2    Res =  0.1423E+02
 MRCHDU: Convergence failed at  84  side 2    Res =  0.9791E+03
 MRCHDU: Convergence failed at  85  side 2    Res =  0.4957E+02
 MRCHDU: Convergence failed at  86  side 2    Res =  0.2826E+02
 MRCHDU: Convergence failed at  87  side 2    Res =  0.1677E+02
 Side 1  free  transition at x/c =  0.6190   47
 Side 2  free  transition at x/c =  0.0352   19

   1   rms: 0.1993E+01   max: -.1414E+01   U at   87  2   RLX: 0.097
       a = -4.000      CL = -4.1317
      Cm =  1.0261     CD =  0.00560   =>   CDf =  0.00262    CDp =  0.00298

 Side 1  free  transition at x/c =  0.6216   47
 Side 2  free  transition at x/c =  0.0338   18

   2   rms: 0.1594E+01   max: -.1297E+01   U at   87  2   RLX: 0.124
       a = -4.000      CL = -3.4181
      Cm =  0.8393     CD =  0.00777   =>   CDf =  0.02242    CDp = -0.01465

 Side 1  free  transition at x/c =  0.6256   48
 Side 2  free  transition at x/c =  0.0309   18

   3   rms: 0.1429E+01   max: -.1135E+01   U at   87  2   RLX: 0.150
       a = -4.000      CL = -2.7710
      Cm =  0.6657     CD =  0.00761   =>   CDf =  0.01975    CDp = -0.01214

 Side 1  free  transition at x/c =  0.6283   48
 Side 2  free  transition at x/c =  0.0292   18

   4   rms: 0.1270E+01   max: -.9645E+00   U at   87  2   RLX: 0.186
       a = -4.000      CL = -2.1454
      Cm =  0.4985     CD =  0.00816   =>   CDf =  0.01710    CDp = -0.00894

 Side 1  free  transition at x/c =  0.6320   48
 Side 2  free  transition at x/c =  0.0282   18

   5   rms: 0.1108E+01   max: -.7836E+00   U at   87  2   RLX: 0.242
       a = -4.000      CL = -1.5451
      Cm =  0.3385     CD =  0.00930   =>   CDf =  0.01455    CDp = -0.00525

 Side 1  free  transition at x/c =  0.6367   48
 Side 2  free  transition at x/c =  0.0269   18

   6   rms: 0.9482E+00   max: 0.7126E+00   D at  104  2   RLX: 0.339
       a = -4.000      CL = -0.9761
      Cm =  0.1871     CD =  0.01207   =>   CDf =  0.01211    CDp = -0.00004

 MRCHDU: Convergence failed at  18  side 2    Res =  0.1459E+02
 MRCHDU: Convergence failed at  19  side 2    Res =  0.6124E+03
 MRCHDU: Convergence failed at  20  side 2    Res =  0.3668E+04
 MRCHDU: Convergence failed at  21  side 2    Res =  0.3774E+04
 MRCHDU: Convergence failed at  22  side 2    Res =  0.2309E+04
 MRCHDU: Convergence failed at  23  side 2    Res =  0.2470E+03
 MRCHDU: Convergence failed at  24  side 2    Res =  0.8288E+02
 MRCHDU: Convergence failed at  25  side 2    Res =  0.7685E+02
 MRCHDU: Convergence failed at  26  side 2    Res =  0.9381E+02
 MRCHDU: Convergence failed at  27  side 2    Res =  0.4422E+02
 MRCHDU: Convergence failed at  28  side 2    Res =  0.4585E+02
 MRCHDU: Convergence failed at  29  side 2    Res =  0.4486E+02
 MRCHDU: Convergence failed at  30  side 2    Res =  0.4167E+02
 MRCHDU: Convergence failed at  31  side 2    Res =  0.6035E+02
 MRCHDU: Convergence failed at  32  side 2    Res =  0.6551E+02
 MRCHDU: Convergence failed at  33  side 2    Res =  0.6703E+02
 MRCHDU: Convergence failed at  34  side 2    Res =  0.1267E+03
 MRCHDU: Convergence failed at  35  side 2    Res =  0.1243E+03
 MRCHDU: Convergence failed at  36  side 2    Res =  0.1224E+03
 MRCHDU: Convergence failed at  37  side 2    Res =  0.1208E+03
 MRCHDU: Convergence failed at  38  side 2    Res =  0.1195E+03
 MRCHDU: Convergence failed at  39  side 2    Res =  0.1185E+03
 MRCHDU: Convergence failed at  40  side 2    Res =  0.1179E+03
 MRCHDU: Convergence failed at  41  side 2    Res =  0.1171E+03
 MRCHDU: Convergence failed at  42  side 2    Res =  0.1167E+03
 MRCHDU: Convergence failed at  43  side 2    Res =  0.1164E+03
 MRCHDU: Convergence failed at  44  side 2    Res =  0.1520E+03
 MRCHDU: Convergence failed at  45  side 2    Res =  0.2357E+04
 MRCHDU: Convergence failed at  46  side 2    Res =  0.2208E+04
 MRCHDU: Convergence failed at  47  side 2    Res =  0.2022E+04
 MRCHDU: Convergence failed at  48  side 2    Res =  0.1435E+03
 MRCHDU: Convergence failed at  49  side 2    Res =  0.1121E+03
 MRCHDU: Convergence failed at  50  side 2    Res =  0.1090E+03
 MRCHDU: Convergence failed at  51  side 2    Res =  0.1063E+03
 MRCHDU: Convergence failed at  52  side 2    Res =  0.1038E+03
 MRCHDU: Convergence failed at  53  side 2    Res =  0.1018E+03
 MRCHDU: Convergence failed at  54  side 2    Res =  0.9971E+02
 MRCHDU: Convergence failed at  55  side 2    Res =  0.9811E+02
 MRCHDU: Convergence failed at  56  side 2    Res =  0.9665E+02
 MRCHDU: Convergence failed at  57  side 2    Res =  0.9530E+02
 MRCHDU: Convergence failed at  58  side 2    Res =  0.9422E+02
 MRCHDU: Convergence failed at  59  side 2    Res =  0.9323E+02
 MRCHDU: Convergence failed at  60  side 2    Res =  0.9242E+02
 MRCHDU: Convergence failed at  61  side 2    Res =  0.1040E+03
 MRCHDU: Convergence failed at  62  side 2    Res =  0.1111E+03
 MRCHDU: Convergence failed at  63  side 2    Res =  0.1577E+03
 MRCHDU: Convergence failed at  64  side 2    Res =  0.1442E+03
 MRCHDU: Convergence failed at  65  side 2    Res =  0.3105E+03
 MRCHDU: Convergence failed at  66  side 2    Res =  0.4651E+03
 MRCHDU: Convergence failed at  67  side 2    Res =  0.9997E+03
 MRCHDU: Convergence failed at  68  side 2    Res =  0.7869E+04
 MRCHDU: Convergence failed at  69  side 2    Res =  0.1702E+04
 MRCHDU: Convergence failed at  70  side 2    Res =  0.4823E+03
 MRCHDU: Convergence failed at  71  side 2    Res =  0.1392E+03
 MRCHDU: Convergence failed at  72  side 2    Res =  0.6476E+03
 MRCHDU: Convergence failed at  73  side 2    Res =  0.3638E+04
 MRCHDU: Convergence failed at  74  side 2    Res =  0.6452E+03
 MRCHDU: Convergence failed at  75  side 2    Res =  0.1377E+03
 MRCHDU: Convergence failed at  76  side 2    Res =  0.2378E+03
 MRCHDU: Convergence failed at  77  side 2    Res =  0.1916E+03
 MRCHDU: Convergence failed at  78  side 2    Res =  0.2415E+03
 MRCHDU: Convergence failed at  79  side 2    Res =  0.2589E+03
 MRCHDU: Convergence failed at  80  side 2    Res =  0.1183E+03
 MRCHDU: Convergence failed at  81  side 2    Res =  0.1034E+03
 MRCHDU: Convergence failed at  82  side 2    Res =  0.8754E+02
 MRCHDU: Convergence failed at  83  side 2    Res =  0.5471E+02
 MRCHDU: Convergence failed at  84  side 2    Res =  0.6069E+02
 MRCHDU: Convergence failed at  85  side 2    Res =  0.1026E+03
 MRCHDU: Convergence failed at  86  side 2    Res =  0.6572E+03
 MRCHDU: Convergence failed at  87  side 2    Res =  0.2014E+04
 Side 1  free  transition at x/c =  0.6445   49
 Side 2  free  transition at x/c =  0.0246   17

   7   rms: 0.2326E+01   max: 0.2399E+02   T at   17  2   RLX: 0.024
       a = -4.000      CL = -3.6761
      Cm =  0.9189     CD =  0.00479   =>   CDf =  0.00232    CDp =  0.00247

 Side 1  free  transition at x/c =  0.6448   49
 Side 2  free  transition at x/c =  0.0241   17

   8   rms: 0.8450E+01   max: -.1438E+03   T at   18  2   RLX: 0.003
       a = -4.000      CL = -2.6668
      Cm =  0.6096     CD =  0.06698   =>   CDf =  0.00302    CDp =  0.06396

 Side 1  free  transition at x/c =  0.6452   49
 Side 2  free  transition at x/c =  0.0233   17

   9   rms: 0.1712E+01   max: 0.1466E+02   T at   17  2   RLX: 0.039
       a = -4.000      CL = -2.6392
      Cm =  0.5997     CD =  0.06925   =>   CDf =  0.00301    CDp =  0.06624

 Side 1  free  transition at x/c =  0.6497   49
 Side 2  free  transition at x/c =  0.0201   17

  10   rms: 0.1381E+01   max: 0.8617E+01   T at   17  2   RLX: 0.174
       a = -4.000      CL = -2.4188
      Cm =  0.5244     CD =  0.07160   =>   CDf =  0.00298    CDp =  0.06861

 MRCHDU: Convergence failed at  17  side 2    Res =  0.3447E+02
 MRCHDU: Convergence failed at  98  side 2    Res =  0.9051E+00
 MRCHDU: Convergence failed at  99  side 2    Res =  0.1120E+01
 MRCHDU: Convergence failed at 100  side 2    Res =  0.2156E+01
 Side 1  free  transition at x/c =  0.6691   51
 Side 2  free  transition at x/c =  0.0139   16

  11   rms: 0.1567E+01   max: 0.3425E+01   D at   94  2   RLX: 0.170
       a = -4.000      CL = -3.4321
      Cm =  0.7863     CD =  0.09512   =>   CDf =  0.00297    CDp =  0.09215

 Side 1  free  transition at x/c =  0.6806   51
 Side 2  free  transition at x/c =  0.0137   16

  12   rms: 0.1383E+01   max: -.2862E+01   C at  102  2   RLX: 0.147
       a = -4.000      CL = -2.6169
      Cm =  0.5893     CD =  0.12314   =>   CDf =  0.00303    CDp =  0.12012

 Side 1  free  transition at x/c =  0.6815   52
 Side 2  free  transition at x/c =  0.0148   16

  13   rms: 0.1119E+01   max: -.3327E+01   D at  109  2   RLX: 0.150
       a = -4.000      CL = -2.1823
      Cm =  0.4831     CD =  0.12835   =>   CDf =  0.00327    CDp =  0.12508

 Side 1  free  transition at x/c =  0.6893   52
 Side 2  free  transition at x/c =  0.0156   16

  14   rms: 0.9806E+00   max: 0.5761E+01   T at   18  2   RLX: 0.125
       a = -4.000      CL = -1.9030
      Cm =  0.4148     CD =  0.16242   =>   CDf =  0.00326    CDp =  0.15917

 Side 1  free  transition at x/c =  0.6952   52
 Side 2  free  transition at x/c =  0.0159   16

  15   rms: 0.8828E+00   max: -.4882E+01   D at  109  2   RLX: 0.102
       a = -4.000      CL = -1.7530
      Cm =  0.3799     CD =  0.18458   =>   CDf =  0.00353    CDp =  0.18105

 Side 1  free  transition at x/c =  0.6981   54
 Side 2  free  transition at x/c =  0.0153   15

  16   rms: 0.8378E+00   max: -.5166E+01   D at    2  1   RLX: 0.097
       a = -4.000      CL = -1.3933
      Cm =  0.2811     CD =  0.17692   =>   CDf =  0.00346    CDp =  0.17346

 Side 1  free  transition at x/c =  0.6996   54
 Side 2  free  transition at x/c =  0.0157   15

  17   rms: 0.8163E+00   max: -.3917E+01   D at  108  2   RLX: 0.128
       a = -4.000      CL = -1.2176
      Cm =  0.2391     CD =  0.15100   =>   CDf =  0.00346    CDp =  0.14754

 MRCHDU: Convergence failed at 108  side 2    Res =  0.9903E-01
 Side 1  free  transition at x/c =  0.7004   54
 Side 2  free  transition at x/c =  0.0159   15

  18   rms: 0.8940E+00   max: -.4906E+01   T at   15  2   RLX: 0.102
       a = -4.000      CL = -0.9505
      Cm =  0.1703     CD =  0.15636   =>   CDf =  0.00346    CDp =  0.15290

 MRCHDU: Convergence failed at 108  side 2    Res =  0.2316E+00
 Side 1  free  transition at x/c =  0.6980   54
 Side 2  free  transition at x/c =  0.0165   16

  19   rms: 0.6702E+00   max: -.1702E+01   T at  107  2   RLX: 0.294
       a = -4.000      CL = -0.4326
      Cm =  0.0416     CD =  0.13781   =>   CDf =  0.00347    CDp =  0.13433

 MRCHDU: Convergence failed at  16  side 2    Res =  0.9942E+01
 MRCHDU: Convergence failed at  17  side 2    Res =  0.7221E+01
 MRCHDU: Convergence failed at  18  side 2    Res =  0.4012E+02
 MRCHDU: Convergence failed at  19  side 2    Res =  0.2144E+02
 MRCHDU: Convergence failed at  20  side 2    Res =  0.2837E+02
 MRCHDU: Convergence failed at  21  side 2    Res =  0.5337E+02
 MRCHDU: Convergence failed at  22  side 2    Res =  0.2645E+02
 MRCHDU: Convergence failed at  23  side 2    Res =  0.7515E+03
 MRCHDU: Convergence failed at  24  side 2    Res =  0.2323E+03
 MRCHDU: Convergence failed at  25  side 2    Res =  0.4781E+02
 MRCHDU: Convergence failed at  26  side 2    Res =  0.4899E+02
 MRCHDU: Convergence failed at  27  side 2    Res =  0.3124E+02
 MRCHDU: Convergence failed at  28  side 2    Res =  0.2689E+02
 MRCHDU: Convergence failed at  29  side 2    Res =  0.2415E+02
 MRCHDU: Convergence failed at  30  side 2    Res =  0.2176E+02
 MRCHDU: Convergence failed at  31  side 2    Res =  0.1609E+02
 MRCHDU: Convergence failed at  32  side 2    Res =  0.1814E+02
 MRCHDU: Convergence failed at  33  side 2    Res =  0.1853E+02
 MRCHDU: Convergence failed at  34  side 2    Res =  0.1886E+02
 MRCHDU: Convergence failed at  35  side 2    Res =  0.1918E+02
 MRCHDU: Convergence failed at  36  side 2    Res =  0.2237E+02
 MRCHDU: Convergence failed at  37  side 2    Res =  0.2649E+02
 MRCHDU: Convergence failed at  38  side 2    Res =  0.2694E+02
 MRCHDU: Convergence failed at  39  side 2    Res =  0.2737E+02
 MRCHDU: Convergence failed at  40  side 2    Res =  0.3941E+02
 MRCHDU: Convergence failed at  41  side 2    Res =  0.4095E+02
 MRCHDU: Convergence failed at  42  side 2    Res =  0.5704E+02
 MRCHDU: Convergence failed at  43  side 2    Res =  0.6175E+02
 MRCHDU: Convergence failed at  44  side 2    Res =  0.1289E+03
 MRCHDU: Convergence failed at  45  side 2    Res =  0.2421E+03
 MRCHDU: Convergence failed at  46  side 2    Res =  0.5666E+03
 MRCHDU: Convergence failed at  47  side 2    Res =  0.1232E+03
 MRCHDU: Convergence failed at  48  side 2    Res =  0.7967E+02
 MRCHDU: Convergence failed at  49  side 2    Res =  0.5494E+02
 MRCHDU: Convergence failed at  50  side 2    Res =  0.4328E+02
 MRCHDU: Convergence failed at  51  side 2    Res =  0.2985E+02
 MRCHDU: Convergence failed at  52  side 2    Res =  0.1595E+02
 MRCHDU: Convergence failed at  53  side 2    Res =  0.1644E+02
 MRCHDU: Convergence failed at  54  side 2    Res =  0.1730E+02
 MRCHDU: Convergence failed at  55  side 2    Res =  0.1915E+02
 MRCHDU: Convergence failed at  56  side 2    Res =  0.2169E+02
 MRCHDU: Convergence failed at  57  side 2    Res =  0.2663E+02
 MRCHDU: Convergence failed at  58  side 2    Res =  0.3591E+02
 MRCHDU: Convergence failed at  59  side 2    Res =  0.4970E+02
 MRCHDU: Convergence failed at  60  side 2    Res =  0.7731E+03
 MRCHDU: Convergence failed at  61  side 2    Res =  0.1627E+03
 MRCHDU: Convergence failed at  62  side 2    Res =  0.6063E+02
 MRCHDU: Convergence failed at  63  side 2    Res =  0.3974E+02
 MRCHDU: Convergence failed at  64  side 2    Res =  0.2597E+02
 MRCHDU: Convergence failed at  65  side 2    Res =  0.2109E+02
 MRCHDU: Convergence failed at  66  side 2    Res =  0.2685E+02
 MRCHDU: Convergence failed at  67  side 2    Res =  0.3452E+02
 MRCHDU: Convergence failed at  68  side 2    Res =  0.4684E+02
 MRCHDU: Convergence failed at  69  side 2    Res =  0.1375E+03
 MRCHDU: Convergence failed at  70  side 2    Res =  0.9048E+02
 MRCHDU: Convergence failed at  71  side 2    Res =  0.4346E+02
 MRCHDU: Convergence failed at  72  side 2    Res =  0.2874E+02
 MRCHDU: Convergence failed at  73  side 2    Res =  0.2118E+02
 MRCHDU: Convergence failed at  74  side 2    Res =  0.3180E+02
 MRCHDU: Convergence failed at  75  side 2    Res =  0.4427E+02
 MRCHDU: Convergence failed at  76  side 2    Res =  0.1015E+03
 MRCHDU: Convergence failed at  77  side 2    Res =  0.8973E+02
 MRCHDU: Convergence failed at  78  side 2    Res =  0.3401E+02
 MRCHDU: Convergence failed at  79  side 2    Res =  0.1920E+02
 MRCHDU: Convergence failed at  80  side 2    Res =  0.2748E+02
 MRCHDU: Convergence failed at  81  side 2    Res =  0.4403E+02
 MRCHDU: Convergence failed at  82  side 2    Res =  0.1052E+03
 MRCHDU: Convergence failed at  83  side 2    Res =  0.9012E+02
 MRCHDU: Convergence failed at  84  side 2    Res =  0.2957E+02
 MRCHDU: Convergence failed at  85  side 2    Res =  0.1615E+02
 MRCHDU: Convergence failed at  86  side 2    Res =  0.2015E+02
 Side 1  free  transition at x/c =  0.6836   53
 Side 2  free  transition at x/c =  0.0179   16

  20   rms: 0.2270E+01   max: 0.6177E+01   D at   31  2   RLX: 0.151
       a = -4.000      CL = -1.9227
      Cm =  0.4719     CD =  0.03865   =>   CDf =  0.00279    CDp =  0.03587

 MRCHDU: Convergence failed at 107  side 2    Res =  0.1059E+02
 Side 1  free  transition at x/c =  0.6825   53
 Side 2  free  transition at x/c =  0.0190   16

  21   rms: 0.5613E+00   max: -.5133E+01   D at  108  2   RLX: 0.097
       a = -4.000      CL = -1.0017
      Cm =  0.1867     CD =  0.17030   =>   CDf =  0.00334    CDp =  0.16696

 Side 1  free  transition at x/c =  0.6861   53
 Side 2  free  transition at x/c =  0.0197   16

  22   rms: 0.6788E+00   max: -.2467E+01   T at   16  2   RLX: 0.203
       a = -4.000      CL = -0.7741
      Cm =  0.1374     CD =  0.14908   =>   CDf =  0.00336    CDp =  0.14571

 Side 1  free  transition at x/c =  0.6795   52
 Side 2  free  transition at x/c =  0.0239   16

  23   rms: 0.6706E+00   max: 0.5236E+01   T at   17  2   RLX: 0.286
       a = -4.000      CL = -0.5092
      Cm =  0.0747     CD =  0.12989   =>   CDf =  0.00337    CDp =  0.12651

 Side 1  free  transition at x/c =  0.6743   52
 Side 2  free  transition at x/c =  0.0231   16

  24   rms: 0.4330E+00   max: -.8648E+00   D at  105  2   RLX: 0.484
       a = -4.000      CL = -0.3096
      Cm =  0.0205     CD =  0.11619   =>   CDf =  0.00342    CDp =  0.11277

 Side 1  free  transition at x/c =  0.6629   52
 Side 2  free  transition at x/c =  0.0205   15

  25   rms: 0.2917E+00   max: 0.9682E+00   D at  107  2   RLX: 0.539
       a = -4.000      CL = -0.2371
      Cm = -0.0032     CD =  0.10058   =>   CDf =  0.00322    CDp =  0.09735

 Side 1  free  transition at x/c =  0.6567   52
 Side 2  free  transition at x/c =  0.0184   15

  26   rms: 0.2773E+00   max: 0.2184E+01   D at  107  2   RLX: 0.530
       a = -4.000      CL = -0.1949
      Cm = -0.0138     CD =  0.05653   =>   CDf =  0.00306    CDp =  0.05347

 MRCHDU: Convergence failed at 105  side 2    Res =  0.2061E+01
 MRCHDU: Convergence failed at 107  side 2    Res =  0.4632E+01
 Side 1  free  transition at x/c =  0.6473   51
 Side 2  free  transition at x/c =  0.0180   15
 idif Ue xi dudx           1  0.22699264      3.56531143E-03   63.666988    
 Uenew xinew           2  5.74084632E-02  9.01699066E-04

  27   rms: 0.5509E+00   max: 0.3420E+01   T at   15  2   RLX: 0.194
       a = -4.000      CL = -0.2177
      Cm = -0.0218     CD =  0.07067   =>   CDf =  0.00286    CDp =  0.06781

 Side 1  free  transition at x/c =  0.6578   51
 Side 2  free  transition at x/c =  0.0165   16

  28   rms: 0.2460E+00   max: -.1255E+01   D at  105  2   RLX: 0.398
       a = -4.000      CL = -0.2176
      Cm = -0.0172     CD =  0.06512   =>   CDf =  0.00298    CDp =  0.06214

 Side 1  free  transition at x/c =  0.6558   51
 Side 2  free  transition at x/c =  0.0166   16

  29   rms: 0.2229E+00   max: -.1183E+01   T at   16  2   RLX: 0.423
       a = -4.000      CL = -0.1744
      Cm = -0.0217     CD =  0.05320   =>   CDf =  0.00307    CDp =  0.05013

 Side 1  free  transition at x/c =  0.6504   50
 Side 2  free  transition at x/c =  0.0172   16

  30   rms: 0.1876E+00   max: -.1030E+01   D at  105  2   RLX: 0.485
       a = -4.000      CL = -0.1535
      Cm = -0.0251     CD =  0.04979   =>   CDf =  0.00312    CDp =  0.04667

 Side 1  free  transition at x/c =  0.6455   51
 Side 2  free  transition at x/c =  0.0178   15

  31   rms: 0.1437E+00   max: -.7856E+00   T at    2  1   RLX: 0.636
       a = -4.000      CL = -0.1085
      Cm = -0.0313     CD =  0.03983   =>   CDf =  0.00312    CDp =  0.03671

 Side 1  free  transition at x/c =  0.6390   51
 Side 2  free  transition at x/c =  0.0199   15

  32   rms: 0.8020E-01   max: -.4357E+00   D at  103  2
       a = -4.000      CL = -0.0788
      Cm = -0.0357     CD =  0.03057   =>   CDf =  0.00320    CDp =  0.02737

 Side 1  free  transition at x/c =  0.6371   50
 Side 2  free  transition at x/c =  0.0219   15

  33   rms: 0.1905E-01   max: -.1259E+00   T at   15  2
       a = -4.000      CL = -0.0754
      Cm = -0.0362     CD =  0.03216   =>   CDf =  0.00330    CDp =  0.02886

 Side 1  free  transition at x/c =  0.6361   50
 Side 2  free  transition at x/c =  0.0226   15

  34   rms: 0.4739E-02   max: -.2357E-01   T at   15  2
       a = -4.000      CL = -0.0746
      Cm = -0.0364     CD =  0.03218   =>   CDf =  0.00330    CDp =  0.02888

 Side 1  free  transition at x/c =  0.6360   50
 Side 2  free  transition at x/c =  0.0226   15

  35   rms: 0.5951E-03   max: 0.6475E-02   D at  106  2
       a = -4.000      CL = -0.0745
      Cm = -0.0364     CD =  0.03219   =>   CDf =  0.00331    CDp =  0.02889

 Side 1  free  transition at x/c =  0.6360   50
 Side 2  free  transition at x/c =  0.0227   15

  36   rms: 0.4952E-04   max: 0.6020E-03   D at  106  2
       a = -4.000      CL = -0.0745
      Cm = -0.0364     CD =  0.03219   =>   CDf =  0.00330    CDp =  0.02889
 plradd ia,ip,cpol            1           0  5.74171368E-04

 Point added to stored polar  1
 Point written to save file  m19_Re500k.base.pol                             
 Dump file unspecified or not available
 Calculating wake trajectory ...
 Calculating source influence matrix ...

 Solving BL system ...

 Side 1  free  transition at x/c =  0.6360   50
 Side 2  free  transition at x/c =  0.0227   15

   1   rms: 0.2333E+00   max: -.3372E+01   T at   15  2   RLX: 0.148
       a = -3.500      CL = -0.0636
      Cm = -0.0374     CD =  0.03169   =>   CDf =  0.00331    CDp =  0.02839

 Side 1  free  transition at x/c =  0.6343   50
 Side 2  free  transition at x/c =  0.0215   15

   2   rms: 0.6040E-01   max: -.5396E+00   D at   15  2   RLX: 0.927
       a = -3.500      CL = -0.0280
      Cm = -0.0402     CD =  0.02652   =>   CDf =  0.00337    CDp =  0.02314

 Side 1  free  transition at x/c =  0.6246   50
 Side 2  free  transition at x/c =  0.0232   15

   3   rms: 0.5259E-01   max: -.3450E+00   D at   15  2
       a = -3.500      CL = -0.0202
      Cm = -0.0405     CD =  0.02637   =>   CDf =  0.00346    CDp =  0.02291

 TRCHEK2: N2 convergence failed.
 x:  0.11348  0.12386  0.12793  N:  8.878  9.000  9.036  Nx:  22.573   dN:-0.784E+00
 TRCHEK2: N2 convergence failed.
 x:  0.11348  0.12573  0.12793  N:  8.878  9.000  9.013  Nx:  19.717   dN:-0.402E+00
 TRCHEK2: N2 convergence failed.
 x:  0.11348  0.12620  0.12793  N:  8.878  9.000  9.009  Nx:  18.443   dN:-0.178E+00
 TRCHEK2: N2 convergence failed.
 x:  0.11348  0.12793  0.12793  N:  8.878  9.000  9.095  Nx:  14.734   dN: 0.950E-01
 TRCHEK2: N2 convergence failed.
 x:  0.11348  0.12333  0.12793  N:  8.878  9.000  9.044  Nx:  23.269   dN:-0.914E-01
 TRCHEK2: N2 convergence failed.
 x:  0.11348  0.12599  0.12793  N:  8.878  9.000  9.011  Nx:  13.552   dN:-0.128E+00
 TRCHEK2: N2 convergence failed.
 x:  0.11348  0.12607  0.12793  N:  8.878  9.000  9.026  Nx:  13.324   dN: 0.850E-01
 TRCHEK2: N2 convergence failed.
 x:  0.11348  0.12600  0.12793  N:  8.878  9.000  9.011  Nx:  13.960   dN:-0.359E-01
 TRCHEK2: N2 convergence failed.
 x:  0.11348  0.12604  0.12793  N:  8.878  9.000  9.010  Nx:  13.435   dN:-0.156E+01
 TRCHEK2: N2 convergence failed.
 x:  0.11348  0.12603  0.12793  N:  8.878  9.000  9.026  Nx:  13.382   dN: 0.905E-01
 TRCHEK2: N2 convergence failed.
 x:  0.11348  0.12600  0.12793  N:  8.878  9.000  9.027  Nx:  13.397   dN: 0.254E+00
 TRCHEK2: N2 convergence failed.
 x:  0.11348  0.12602  0.12793  N:  8.878  9.000  9.010  Nx:  13.450   dN:-0.366E+00
 TRCHEK2: N2 convergence failed.
 x:  0.11348  0.12473  0.12793  N:  8.878  9.000  9.024  Nx:  13.857   dN:-0.361E-01
 TRCHEK2: N2 convergence failed.
 x:  0.11348  0.12471  0.12793  N:  8.878  9.000  9.025  Nx:  14.033   dN:-0.374E-01
 TRCHEK2: N2 convergence failed.
 x:  0.11348  0.12470  0.12793  N:  8.878  9.000  9.025  Nx:  13.860   dN:-0.335E-01
 TRCHEK2: N2 convergence failed.
 x:  0.11348  0.12471  0.12793  N:  8.878  9.000  9.025  Nx:  13.964   dN:-0.365E-01
 TRCHEK2: N2 convergence failed.
 x:  0.11348  0.12470  0.12793  N:  8.878  9.000  9.025  Nx:  13.802   dN:-0.347E-01
 TRCHEK2: N2 convergence failed.
 x:  0.11348  0.12471  0.12793  N:  8.878  9.000  9.025  Nx:  13.896   dN:-0.365E-01
 TRCHEK2: N2 convergence failed.
 x:  0.11348  0.12469  0.12793  N:  8.878  9.000  9.025  Nx:  13.933   dN:-0.273E-01
 TRCHEK2: N2 convergence failed.
 x:  0.11348  0.12469  0.12793  N:  8.878  9.000  9.025  Nx:  14.060   dN:-0.290E-01
 TRCHEK2: N2 convergence failed.
 x:  0.11348  0.12467  0.12793  N:  8.878  9.000  9.025  Nx:  14.163   dN:-0.215E-01
 TRCHEK2: N2 convergence failed.
 x:  0.11348  0.12467  0.12793  N:  8.878  9.000  9.025  Nx:  14.320   dN:-0.236E-01
 TRCHEK2: N2 convergence failed.
 x:  0.11348  0.12466  0.12793  N:  8.878  9.000  9.025  Nx:  14.415   dN:-0.184E-01
 MRCHDU: Convergence failed at  22  side 2    Res =  0.3258E+02
 Side 1  free  transition at x/c =  0.6256   50
 Side 2  free  transition at x/c =  0.1071   22

   4   rms: 0.7009E+01   max: 0.1067E+03   T at   22  2   RLX: 0.014
       a = -3.500      CL = -0.0430
      Cm = -0.0472     CD =  0.01143   =>   CDf =  0.00474    CDp =  0.00669

 MRCHDU: Convergence failed at  40  side 2    Res =  0.1746E+01
 MRCHDU: Convergence failed at  41  side 2    Res =  0.2965E+01
 MRCHDU: Convergence failed at  42  side 2    Res =  0.2300E+01
 MRCHDU: Convergence failed at  43  side 2    Res =  0.2003E+01
 MRCHDU: Convergence failed at  44  side 2    Res =  0.1927E+01
 MRCHDU: Convergence failed at  45  side 2    Res =  0.2298E+01
 MRCHDU: Convergence failed at  46  side 2    Res =  0.2766E+01
 MRCHDU: Convergence failed at  47  side 2    Res =  0.3406E+01
 MRCHDU: Convergence failed at  48  side 2    Res =  0.4007E+01
 MRCHDU: Convergence failed at  49  side 2    Res =  0.4990E+01
 MRCHDU: Convergence failed at  50  side 2    Res =  0.6021E+01
 MRCHDU: Convergence failed at  51  side 2    Res =  0.7283E+01
 MRCHDU: Convergence failed at  52  side 2    Res =  0.8927E+01
 MRCHDU: Convergence failed at  53  side 2    Res =  0.1115E+02
 MRCHDU: Convergence failed at  54  side 2    Res =  0.1443E+02
 MRCHDU: Convergence failed at  55  side 2    Res =  0.2785E+02
 MRCHDU: Convergence failed at  56  side 2    Res =  0.5546E+02
 MRCHDU: Convergence failed at  57  side 2    Res =  0.1138E+04
 MRCHDU: Convergence failed at  58  side 2    Res =  0.4633E+02
 MRCHDU: Convergence failed at  59  side 2    Res =  0.1997E+02
 MRCHDU: Convergence failed at  60  side 2    Res =  0.1206E+02
 MRCHDU: Convergence failed at  61  side 2    Res =  0.1027E+02
 MRCHDU: Convergence failed at  62  side 2    Res =  0.9011E+01
 MRCHDU: Convergence failed at  63  side 2    Res =  0.8041E+01
 MRCHDU: Convergence failed at  64  side 2    Res =  0.7296E+01
 MRCHDU: Convergence failed at  65  side 2    Res =  0.6155E+01
 MRCHDU: Convergence failed at  66  side 2    Res =  0.5595E+01
 MRCHDU: Convergence failed at  67  side 2    Res =  0.5298E+01
 MRCHDU: Convergence failed at  68  side 2    Res =  0.5061E+01
 MRCHDU: Convergence failed at  69  side 2    Res =  0.4873E+01
 MRCHDU: Convergence failed at  70  side 2    Res =  0.4727E+01
 MRCHDU: Convergence failed at  71  side 2    Res =  0.4621E+01
 MRCHDU: Convergence failed at  72  side 2    Res =  0.4550E+01
 MRCHDU: Convergence failed at  73  side 2    Res =  0.4512E+01
 MRCHDU: Convergence failed at  74  side 2    Res =  0.4515E+01
 MRCHDU: Convergence failed at  75  side 2    Res =  0.4554E+01
 MRCHDU: Convergence failed at  76  side 2    Res =  0.4635E+01
 MRCHDU: Convergence failed at  77  side 2    Res =  0.4765E+01
 MRCHDU: Convergence failed at  78  side 2    Res =  0.4969E+01
 MRCHDU: Convergence failed at  79  side 2    Res =  0.5241E+01
 MRCHDU: Convergence failed at  80  side 2    Res =  0.5587E+01
 MRCHDU: Convergence failed at  81  side 2    Res =  0.5994E+01
 MRCHDU: Convergence failed at  82  side 2    Res =  0.7104E+01
 MRCHDU: Convergence failed at  83  side 2    Res =  0.7646E+01
 MRCHDU: Convergence failed at  84  side 2    Res =  0.8202E+01
 MRCHDU: Convergence failed at  85  side 2    Res =  0.8866E+01
 Side 1  free  transition at x/c =  0.6249   50
 Side 2  free  transition at x/c =  0.0812   20

   5   rms: 0.3081E+01   max: 0.7179E+02   T at   20  2   RLX: 0.021
       a = -3.500      CL = -0.2152
      Cm =  0.0215     CD =  0.01410   =>   CDf =  0.00294    CDp =  0.01116

 Side 1  free  transition at x/c =  0.6257   50
 Side 2  free  transition at x/c =  0.0544   18

   6   rms: 0.1194E+01   max: 0.2782E+02   T at   18  2   RLX: 0.054
       a = -3.500      CL = -0.1806
      Cm = -0.0097     CD =  0.02460   =>   CDf =  0.00300    CDp =  0.02160

 Side 1  free  transition at x/c =  0.6264   50
 Side 2  free  transition at x/c =  0.0392   17

   7   rms: 0.6759E+00   max: 0.1298E+02   T at   17  2   RLX: 0.116
       a = -3.500      CL = -0.2120
      Cm = -0.0037     CD =  0.02466   =>   CDf =  0.00299    CDp =  0.02167

 Side 1  free  transition at x/c =  0.6275   50
 Side 2  free  transition at x/c =  0.0324   16

   8   rms: 0.4063E+00   max: 0.5761E+01   T at   16  2   RLX: 0.138
       a = -3.500      CL = -0.2300
      Cm = -0.0037     CD =  0.02542   =>   CDf =  0.00300    CDp =  0.02242

 Side 1  free  transition at x/c =  0.6277   50
 Side 2  free  transition at x/c =  0.0255   16

   9   rms: 0.4651E+00   max: 0.4265E+01   T at   16  2   RLX: 0.352
       a = -3.500      CL = -0.1662
      Cm = -0.0187     CD =  0.02439   =>   CDf =  0.00299    CDp =  0.02140

 Side 1  free  transition at x/c =  0.6294   50
 Side 2  free  transition at x/c =  0.0245   15

  10   rms: 0.3001E+00   max: -.7768E+00   T at   16  2   RLX: 0.644
       a = -3.500      CL = -0.1169
      Cm = -0.0241     CD =  0.03202   =>   CDf =  0.00309    CDp =  0.02894

 Side 1  free  transition at x/c =  0.6288   50
 Side 2  free  transition at x/c =  0.0243   15

  11   rms: 0.2045E+00   max: -.6558E+00   D at   21  2   RLX: 0.762
       a = -3.500      CL = -0.0362
      Cm = -0.0407     CD =  0.03081   =>   CDf =  0.00317    CDp =  0.02765

 Side 1  free  transition at x/c =  0.6273   50
 Side 2  free  transition at x/c =  0.0242   15

  12   rms: 0.6930E-01   max: -.3510E+00   D at   21  2
       a = -3.500      CL = -0.0106
      Cm = -0.0413     CD =  0.02549   =>   CDf =  0.00355    CDp =  0.02195

 Side 1  free  transition at x/c =  0.6252   50
 Side 2  free  transition at x/c =  0.0242   15

  13   rms: 0.3243E-01   max: 0.1391E+00   D at   50  2
       a = -3.500      CL = -0.0100
      Cm = -0.0422     CD =  0.02655   =>   CDf =  0.00369    CDp =  0.02286

 Side 1  free  transition at x/c =  0.6253   50
 Side 2  free  transition at x/c =  0.0242   15

  14   rms: 0.1724E-02   max: 0.1546E-01   D at   46  2
       a = -3.500      CL = -0.0112
      Cm = -0.0419     CD =  0.02646   =>   CDf =  0.00361    CDp =  0.02284

 Side 1  free  transition at x/c =  0.6254   50
 Side 2  free  transition at x/c =  0.0242   15

  15   rms: 0.1109E-03   max: -.1358E-02   D at  106  2
       a = -3.500      CL = -0.0112
      Cm = -0.0420     CD =  0.02646   =>   CDf =  0.00361    CDp =  0.02285

 Side 1  free  transition at x/c =  0.6254   50
 Side 2  free  transition at x/c =  0.0242   15

  16   rms: 0.2433E-05   max: -.2585E-04   T at  107  2
       a = -3.500      CL = -0.0112
      Cm = -0.0420     CD =  0.02646   =>   CDf =  0.00361    CDp =  0.02285
 plradd ia,ip,cpol            2           0  5.74171368E-04

 Point added to stored polar  1
 Point written to save file  m19_Re500k.base.pol                             
 Dump file unspecified or not available
 Calculating wake trajectory ...
 Calculating source influence matrix ...

 Solving BL system ...

 Side 1  free  transition at x/c =  0.6254   50
 Side 2  free  transition at x/c =  0.0242   15

   1   rms: 0.1021E+00   max: -.4013E+00   D at   11  2
       a = -3.000      CL =  0.0390
      Cm = -0.0447     CD =  0.02006   =>   CDf =  0.00361    CDp =  0.01645

 Side 1  free  transition at x/c =  0.6173   49
 Side 2  free  transition at x/c =  0.0347   16

   2   rms: 0.1698E+01   max: 0.1657E+02   T at   16  2   RLX: 0.047
       a = -3.000      CL =  0.0570
      Cm = -0.0451     CD =  0.01270   =>   CDf =  0.00458    CDp =  0.00812

 Side 1  free  transition at x/c =  0.6181   49
 Side 2  free  transition at x/c =  0.0387   17

   3   rms: 0.9400E+00   max: 0.9552E+01   T at   17  2   RLX: 0.157
       a = -3.000      CL =  0.0301
      Cm = -0.0485     CD =  0.01124   =>   CDf =  0.00408    CDp =  0.00715

 MRCHDU: Convergence failed at  17  side 2    Res =  0.6064E+02
 MRCHDU: Convergence failed at  18  side 2    Res =  0.3784E+04
 MRCHDU: Convergence failed at  19  side 2    Res =  0.1764E+03
 MRCHDU: Convergence failed at  20  side 2    Res =  0.1969E+02
 MRCHDU: Convergence failed at  21  side 2    Res =  0.7080E+02
 MRCHDU: Convergence failed at  22  side 2    Res =  0.1403E+03
 MRCHDU: Convergence failed at  23  side 2    Res =  0.5697E+02
 MRCHDU: Convergence failed at  24  side 2    Res =  0.1238E+03
 MRCHDU: Convergence failed at  25  side 2    Res =  0.5849E+02
 MRCHDU: Convergence failed at  26  side 2    Res =  0.2943E+03
 MRCHDU: Convergence failed at  27  side 2    Res =  0.9975E+02
 MRCHDU: Convergence failed at  28  side 2    Res =  0.9434E+04
 MRCHDU: Convergence failed at  29  side 2    Res =  0.2057E+03
 MRCHDU: Convergence failed at  30  side 2    Res =  0.2106E+03
 MRCHDU: Convergence failed at  31  side 2    Res =  0.2295E+03
 MRCHDU: Convergence failed at  32  side 2    Res =  0.8756E+02
 MRCHDU: Convergence failed at  33  side 2    Res =  0.8112E+02
 MRCHDU: Convergence failed at  34  side 2    Res =  0.4138E+03
 MRCHDU: Convergence failed at  35  side 2    Res =  0.2952E+04
 MRCHDU: Convergence failed at  36  side 2    Res =  0.9297E+04
 MRCHDU: Convergence failed at  37  side 2    Res =  0.1921E+03
 MRCHDU: Convergence failed at  38  side 2    Res =  0.7512E+02
 MRCHDU: Convergence failed at  39  side 2    Res =  0.1371E+03
 MRCHDU: Convergence failed at  40  side 2    Res =  0.5962E+03
 MRCHDU: Convergence failed at  41  side 2    Res =  0.1490E+03
 MRCHDU: Convergence failed at  42  side 2    Res =  0.1556E+03
 MRCHDU: Convergence failed at  43  side 2    Res =  0.1528E+03
 MRCHDU: Convergence failed at  44  side 2    Res =  0.1447E+03
 MRCHDU: Convergence failed at  45  side 2    Res =  0.1717E+03
 MRCHDU: Convergence failed at  46  side 2    Res =  0.3898E+03
 MRCHDU: Convergence failed at  47  side 2    Res =  0.1015E+04
 MRCHDU: Convergence failed at  48  side 2    Res =  0.3876E+03
 MRCHDU: Convergence failed at  49  side 2    Res =  0.5442E+03
 MRCHDU: Convergence failed at  50  side 2    Res =  0.8897E+03
 MRCHDU: Convergence failed at  51  side 2    Res =  0.3580E+03
 MRCHDU: Convergence failed at  52  side 2    Res =  0.2603E+03
 MRCHDU: Convergence failed at  53  side 2    Res =  0.2099E+03
 MRCHDU: Convergence failed at  54  side 2    Res =  0.1308E+03
 MRCHDU: Convergence failed at  55  side 2    Res =  0.1118E+03
 MRCHDU: Convergence failed at  56  side 2    Res =  0.1361E+03
 MRCHDU: Convergence failed at  57  side 2    Res =  0.1254E+03
 MRCHDU: Convergence failed at  58  side 2    Res =  0.1172E+03
 MRCHDU: Convergence failed at  59  side 2    Res =  0.1112E+03
 MRCHDU: Convergence failed at  60  side 2    Res =  0.1077E+03
 MRCHDU: Convergence failed at  61  side 2    Res =  0.1900E+03
 MRCHDU: Convergence failed at  62  side 2    Res =  0.1040E+04
 MRCHDU: Convergence failed at  63  side 2    Res =  0.8972E+02
 MRCHDU: Convergence failed at  64  side 2    Res =  0.8751E+02
 MRCHDU: Convergence failed at  65  side 2    Res =  0.8579E+02
 MRCHDU: Convergence failed at  66  side 2    Res =  0.8457E+02
 MRCHDU: Convergence failed at  67  side 2    Res =  0.8381E+02
 MRCHDU: Convergence failed at  68  side 2    Res =  0.8337E+02
 MRCHDU: Convergence failed at  69  side 2    Res =  0.8314E+02
 MRCHDU: Convergence failed at  70  side 2    Res =  0.8289E+02
 MRCHDU: Convergence failed at  71  side 2    Res =  0.8947E+02
 MRCHDU: Convergence failed at  72  side 2    Res =  0.9025E+02
 MRCHDU: Convergence failed at  73  side 2    Res =  0.1026E+03
 MRCHDU: Convergence failed at  74  side 2    Res =  0.9856E+02
 MRCHDU: Convergence failed at  75  side 2    Res =  0.9391E+02
 MRCHDU: Convergence failed at  76  side 2    Res =  0.9550E+02
 MRCHDU: Convergence failed at  77  side 2    Res =  0.9788E+02
 MRCHDU: Convergence failed at  78  side 2    Res =  0.1015E+03
 MRCHDU: Convergence failed at  79  side 2    Res =  0.1065E+03
 MRCHDU: Convergence failed at  80  side 2    Res =  0.1130E+03
 MRCHDU: Convergence failed at  81  side 2    Res =  0.1128E+03
 MRCHDU: Convergence failed at  82  side 2    Res =  0.1172E+03
 MRCHDU: Convergence failed at  83  side 2    Res =  0.1146E+03
 MRCHDU: Convergence failed at  84  side 2    Res =  0.1211E+03
 MRCHDU: Convergence failed at  85  side 2    Res =  0.1262E+03
 Side 1  free  transition at x/c =  0.6206   49
 Side 2  free  transition at x/c =  0.0332   16

   4   rms: 0.2087E+01   max: 0.4021E+02   T at   16  2   RLX: 0.023
       a = -3.000      CL = -1.1448
      Cm =  0.3012     CD =  0.00202   =>   CDf =  0.00284    CDp = -0.00082

 Side 1  free  transition at x/c =  0.6209   49
 Side 2  free  transition at x/c =  0.0315   16

   5   rms: 0.1475E+01   max: -.1924E+02   T at   16  2   RLX: 0.026
       a = -3.000      CL = -0.7891
      Cm =  0.1858     CD =  0.02683   =>   CDf =  0.00310    CDp =  0.02374

 Side 1  free  transition at x/c =  0.6232   49
 Side 2  free  transition at x/c =  0.0452   17

   6   rms: 0.8988E+01   max: 0.1076E+03   T at   18  2   RLX: 0.013
       a = -3.000      CL = -0.7311
      Cm =  0.1652     CD =  0.02623   =>   CDf =  0.00312    CDp =  0.02311

 Side 1  free  transition at x/c =  0.6263   50
 Side 2  free  transition at x/c =  0.0381   17

   7   rms: 0.3326E+01   max: -.6058E+02   T at   17  2   RLX: 0.008
       a = -3.000      CL = -0.8736
      Cm =  0.1992     CD =  0.02662   =>   CDf =  0.00306    CDp =  0.02356

 Side 1  free  transition at x/c =  0.6265   50
 Side 2  free  transition at x/c =  0.0375   17

   8   rms: 0.9881E+00   max: -.1021E+02   T at   17  2   RLX: 0.049
       a = -3.000      CL = -0.9107
      Cm =  0.2095     CD =  0.03071   =>   CDf =  0.00306    CDp =  0.02764

 Side 1  free  transition at x/c =  0.6298   50
 Side 2  free  transition at x/c =  0.0353   17

   9   rms: 0.3148E+01   max: 0.3434E+02   C at   17  2   RLX: 0.044
       a = -3.000      CL = -0.9893
      Cm =  0.2308     CD =  0.03791   =>   CDf =  0.00307    CDp =  0.03484

 Side 1  free  transition at x/c =  0.6331   50
 Side 2  free  transition at x/c =  0.0312   16

  10   rms: 0.5871E+00   max: 0.7844E+01   T at   16  2   RLX: 0.191
       a = -3.000      CL = -0.7354
      Cm =  0.1495     CD =  0.03367   =>   CDf =  0.00308    CDp =  0.03059

 Side 1  free  transition at x/c =  0.6391   51
 Side 2  free  transition at x/c =  0.0242   15

  11   rms: 0.4722E+00   max: -.1424E+01   C at  107  2   RLX: 0.351
       a = -3.000      CL = -0.6446
      Cm =  0.1315     CD =  0.03261   =>   CDf =  0.00321    CDp =  0.02940

 Side 1  free  transition at x/c =  0.6467   51
 Side 2  free  transition at x/c =  0.0235   15

  12   rms: 0.4168E+00   max: 0.1372E+01   T at   17  2   RLX: 0.416
       a = -3.000      CL = -0.4077
      Cm =  0.0683     CD =  0.03090   =>   CDf =  0.00327    CDp =  0.02764

 Side 1  free  transition at x/c =  0.6465   51
 Side 2  free  transition at x/c =  0.0237   15

  13   rms: 0.3463E+00   max: -.1266E+01   D at  104  2   RLX: 0.395
       a = -3.000      CL = -0.2973
      Cm =  0.0358     CD =  0.03594   =>   CDf =  0.00327    CDp =  0.03266

 Side 1  free  transition at x/c =  0.6451   51
 Side 2  free  transition at x/c =  0.0237   15

  14   rms: 0.3204E+00   max: -.1489E+01   D at  104  2   RLX: 0.336
       a = -3.000      CL = -0.2501
      Cm =  0.0168     CD =  0.03734   =>   CDf =  0.00324    CDp =  0.03411

 Side 1  free  transition at x/c =  0.6448   51
 Side 2  free  transition at x/c =  0.0232   15

  15   rms: 0.3227E+00   max: -.1588E+01   D at  103  2   RLX: 0.315
       a = -3.000      CL = -0.2129
      Cm =  0.0009     CD =  0.03097   =>   CDf =  0.00318    CDp =  0.02779

 Side 1  free  transition at x/c =  0.6426   51
 Side 2  free  transition at x/c =  0.0229   15

  16   rms: 0.3201E+00   max: -.1466E+01   D at  103  2   RLX: 0.341
       a = -3.000      CL = -0.1574
      Cm = -0.0162     CD =  0.02431   =>   CDf =  0.00313    CDp =  0.02118

 Side 1  free  transition at x/c =  0.6378   50
 Side 2  free  transition at x/c =  0.0228   15

  17   rms: 0.3130E+00   max: -.1325E+01   D at  101  2   RLX: 0.377
       a = -3.000      CL = -0.0878
      Cm = -0.0382     CD =  0.01956   =>   CDf =  0.00313    CDp =  0.01643

 Side 1  free  transition at x/c =  0.6311   50
 Side 2  free  transition at x/c =  0.0231   15

  18   rms: 0.4008E+00   max: -.1420E+01   D at  101  2   RLX: 0.352
       a = -3.000      CL = -0.0181
      Cm = -0.0668     CD =  0.01501   =>   CDf =  0.00309    CDp =  0.01192

 Side 1  free  transition at x/c =  0.6268   50
 Side 2  free  transition at x/c =  0.0234   15

  19   rms: 0.2745E+00   max: -.1002E+01   D at  102  2   RLX: 0.499
       a = -3.000      CL =  0.0260
      Cm = -0.0696     CD =  0.01583   =>   CDf =  0.00320    CDp =  0.01263

 Side 1  free  transition at x/c =  0.6225   49
 Side 2  free  transition at x/c =  0.0240   15

  20   rms: 0.2082E+00   max: -.8767E+00   D at   75  2   RLX: 0.570
       a = -3.000      CL =  0.0427
      Cm = -0.0651     CD =  0.01929   =>   CDf =  0.00334    CDp =  0.01595

 Side 1  free  transition at x/c =  0.6188   49
 Side 2  free  transition at x/c =  0.0243   15

  21   rms: 0.1312E+00   max: 0.5982E+00   D at  106  2   RLX: 0.939
       a = -3.000      CL =  0.0398
      Cm = -0.0480     CD =  0.01763   =>   CDf =  0.00361    CDp =  0.01402

 Side 1  free  transition at x/c =  0.6144   49
 Side 2  free  transition at x/c =  0.0245   15

  22   rms: 0.5071E-01   max: -.2940E+00   D at   85  2
       a = -3.000      CL =  0.0398
      Cm = -0.0442     CD =  0.02049   =>   CDf =  0.00378    CDp =  0.01671

 Side 1  free  transition at x/c =  0.6153   49
 Side 2  free  transition at x/c =  0.0245   15

  23   rms: 0.6827E-02   max: -.5397E-01   D at   85  2
       a = -3.000      CL =  0.0438
      Cm = -0.0448     CD =  0.02038   =>   CDf =  0.00390    CDp =  0.01648

 Side 1  free  transition at x/c =  0.6152   49
 Side 2  free  transition at x/c =  0.0245   15

  24   rms: 0.7755E-03   max: -.3198E-02   D at   85  2
       a = -3.000      CL =  0.0439
      Cm = -0.0448     CD =  0.02037   =>   CDf =  0.00392    CDp =  0.01645

 Side 1  free  transition at x/c =  0.6152   49
 Side 2  free  transition at x/c =  0.0245   15

  25   rms: 0.4817E-04   max: 0.5834E-03   D at  106  2
       a = -3.000      CL =  0.0439
      Cm = -0.0448     CD =  0.02036   =>   CDf =  0.00392    CDp =  0.01645
 plradd ia,ip,cpol            3           0  5.74171368E-04

 Point added to stored polar  1
 Point written to save file  m19_Re500k.base.pol                             
 Dump file unspecified or not available
 Calculating wake trajectory ...
 Calculating source influence matrix ...

 Solving BL system ...

 Side 1  free  transition at x/c =  0.6152   49
 Side 2  free  transition at x/c =  0.0245   15

   1   rms: 0.1167E+00   max: -.4956E+00   D at   11  2
       a = -2.500      CL =  0.0965
      Cm = -0.0467     CD =  0.01446   =>   CDf =  0.00397    CDp =  0.01050

 MRCHDU: Convergence failed at  19  side 2    Res =  0.1607E+01
 Side 1  free  transition at x/c =  0.6062   49
 Side 2  free  transition at x/c =  0.0321   15
 idif Ue xi dudx           1  0.22528939      2.26855278E-03   99.309738    
 Uenew xinew           2  2.37838347E-02  2.39491463E-04

   2   rms: 0.8252E+00   max: 0.8256E+01   D at    2  1   RLX: 0.121
       a = -2.500      CL =  0.1021
      Cm = -0.0466     CD =  0.00445   =>   CDf =  0.00687    CDp = -0.00243

 Side 1  free  transition at x/c =  0.6075   48
 Side 2  free  transition at x/c =  0.0324   16

   3   rms: 0.7854E+00   max: 0.4163E+01   D at   18  2   RLX: 0.360
       a = -2.500      CL =  0.1030
      Cm = -0.0476     CD =  0.00570   =>   CDf =  0.00686    CDp = -0.00116

 MRCHDU: Convergence failed at  18  side 2    Res =  0.1159E+01
 MRCHDU: Convergence failed at  19  side 2    Res =  0.1283E+02
 MRCHDU: Convergence failed at  20  side 2    Res =  0.2947E+01
 MRCHDU: Convergence failed at  21  side 2    Res =  0.3180E+01
 MRCHDU: Convergence failed at  22  side 2    Res =  0.5857E+01
 MRCHDU: Convergence failed at  23  side 2    Res =  0.5363E+01
 MRCHDU: Convergence failed at  24  side 2    Res =  0.9995E+01
 MRCHDU: Convergence failed at  25  side 2    Res =  0.6460E+01
 MRCHDU: Convergence failed at  26  side 2    Res =  0.6304E+01
 MRCHDU: Convergence failed at  27  side 2    Res =  0.6261E+01
 MRCHDU: Convergence failed at  28  side 2    Res =  0.6121E+01
 MRCHDU: Convergence failed at  29  side 2    Res =  0.1832E+04
 MRCHDU: Convergence failed at  30  side 2    Res =  0.7387E+02
 MRCHDU: Convergence failed at  31  side 2    Res =  0.6570E+02
 MRCHDU: Convergence failed at  32  side 2    Res =  0.6229E+02
 MRCHDU: Convergence failed at  33  side 2    Res =  0.1642E+03
 MRCHDU: Convergence failed at  34  side 2    Res =  0.3158E+02
 MRCHDU: Convergence failed at  35  side 2    Res =  0.3077E+02
 MRCHDU: Convergence failed at  36  side 2    Res =  0.2836E+02
 MRCHDU: Convergence failed at  37  side 2    Res =  0.2625E+02
 MRCHDU: Convergence failed at  38  side 2    Res =  0.2444E+02
 MRCHDU: Convergence failed at  39  side 2    Res =  0.2287E+02
 MRCHDU: Convergence failed at  40  side 2    Res =  0.2211E+02
 MRCHDU: Convergence failed at  41  side 2    Res =  0.6574E+02
 MRCHDU: Convergence failed at  42  side 2    Res =  0.8536E+02
 MRCHDU: Convergence failed at  43  side 2    Res =  0.1273E+03
 MRCHDU: Convergence failed at  44  side 2    Res =  0.2841E+03
 MRCHDU: Convergence failed at  45  side 2    Res =  0.1293E+04
 MRCHDU: Convergence failed at  46  side 2    Res =  0.1837E+03
 MRCHDU: Convergence failed at  47  side 2    Res =  0.9592E+02
 MRCHDU: Convergence failed at  48  side 2    Res =  0.1760E+03
 MRCHDU: Convergence failed at  49  side 2    Res =  0.9192E+03
 MRCHDU: Convergence failed at  50  side 2    Res =  0.1786E+03
 MRCHDU: Convergence failed at  51  side 2    Res =  0.4892E+02
 MRCHDU: Convergence failed at  52  side 2    Res =  0.3938E+02
 MRCHDU: Convergence failed at  53  side 2    Res =  0.2796E+02
 MRCHDU: Convergence failed at  54  side 2    Res =  0.1075E+03
 MRCHDU: Convergence failed at  55  side 2    Res =  0.6885E+02
 MRCHDU: Convergence failed at  56  side 2    Res =  0.3585E+02
 MRCHDU: Convergence failed at  57  side 2    Res =  0.2537E+02
 MRCHDU: Convergence failed at  58  side 2    Res =  0.1997E+02
 MRCHDU: Convergence failed at  59  side 2    Res =  0.1688E+02
 MRCHDU: Convergence failed at  60  side 2    Res =  0.1494E+02
 MRCHDU: Convergence failed at  61  side 2    Res =  0.1358E+02
 MRCHDU: Convergence failed at  62  side 2    Res =  0.2434E+02
 MRCHDU: Convergence failed at  63  side 2    Res =  0.2172E+02
 MRCHDU: Convergence failed at  64  side 2    Res =  0.2023E+02
 MRCHDU: Convergence failed at  65  side 2    Res =  0.1932E+02
 MRCHDU: Convergence failed at  66  side 2    Res =  0.2308E+02
 MRCHDU: Convergence failed at  67  side 2    Res =  0.2223E+02
 MRCHDU: Convergence failed at  68  side 2    Res =  0.2208E+02
 MRCHDU: Convergence failed at  69  side 2    Res =  0.2887E+03
 MRCHDU: Convergence failed at  70  side 2    Res =  0.3650E+03
 MRCHDU: Convergence failed at  71  side 2    Res =  0.3796E+03
 MRCHDU: Convergence failed at  72  side 2    Res =  0.3501E+03
 MRCHDU: Convergence failed at  73  side 2    Res =  0.2504E+02
 MRCHDU: Convergence failed at  74  side 2    Res =  0.1540E+02
 MRCHDU: Convergence failed at  75  side 2    Res =  0.2003E+02
 MRCHDU: Convergence failed at  76  side 2    Res =  0.3031E+02
 MRCHDU: Convergence failed at  77  side 2    Res =  0.6707E+02
 MRCHDU: Convergence failed at  78  side 2    Res =  0.1129E+04
 MRCHDU: Convergence failed at  79  side 2    Res =  0.7551E+02
 MRCHDU: Convergence failed at  80  side 2    Res =  0.5386E+02
 MRCHDU: Convergence failed at  81  side 2    Res =  0.2816E+02
 MRCHDU: Convergence failed at  82  side 2    Res =  0.2241E+02
 MRCHDU: Convergence failed at  83  side 2    Res =  0.9881E+02
 MRCHDU: Convergence failed at  84  side 2    Res =  0.3806E+02
 MRCHDU: Convergence failed at  85  side 2    Res =  0.3890E+02
 Side 1  free  transition at x/c =  0.6099   49
 Side 2  free  transition at x/c =  0.0366   17

   4   rms: 0.6558E+00   max: 0.2028E+01   D at   17  2   RLX: 0.436
       a = -2.500      CL = -0.4053
      Cm =  0.0946     CD =  0.00275   =>   CDf =  0.00316    CDp = -0.00041

 TRCHEK2: N2 convergence failed.
 x:  0.08484  0.09475  0.09893  N:  8.811  9.000  9.061  Nx:  42.251   dN:-0.418E+00
 TRCHEK2: N2 convergence failed.
 x:  0.08484  0.09731  0.09893  N:  8.811  9.000  9.013  Nx:  31.219   dN:-0.117E+00
 TRCHEK2: N2 convergence failed.
 x:  0.08484  0.09893  0.09893  N:  8.811  9.000  9.158  Nx:  24.199   dN: 0.158E+00
 TRCHEK2: N2 convergence failed.
 x:  0.08484  0.09851  0.09893  N:  8.811  9.000  9.016  Nx:  24.124   dN: 0.147E+00
 TRCHEK2: N2 convergence failed.
 x:  0.08484  0.09741  0.09893  N:  8.811  9.000  9.011  Nx:  24.359   dN:-0.604E+00
 TRCHEK2: N2 convergence failed.
 x:  0.08484  0.09742  0.09893  N:  8.811  9.000  9.034  Nx:  24.189   dN: 0.131E+00
 TRCHEK2: N2 convergence failed.
 x:  0.08484  0.09739  0.09893  N:  8.811  9.000  9.011  Nx:  24.350   dN:-0.728E+00
 TRCHEK2: N2 convergence failed.
 x:  0.08484  0.09742  0.09893  N:  8.811  9.000  9.035  Nx:  24.199   dN: 0.131E+00
 TRCHEK2: N2 convergence failed.
 x:  0.08484  0.09738  0.09893  N:  8.811  9.000  9.011  Nx:  24.326   dN:-0.337E+01
 TRCHEK2: N2 convergence failed.
 x:  0.08484  0.09741  0.09893  N:  8.811  9.000  9.035  Nx:  24.208   dN: 0.131E+00
 TRCHEK2: N2 convergence failed.
 x:  0.08484  0.09736  0.09893  N:  8.811  9.000  9.012  Nx:  24.423   dN:-0.213E+00
 TRCHEK2: N2 convergence failed.
 x:  0.08484  0.09738  0.09893  N:  8.811  9.000  9.011  Nx:  24.824   dN:-0.400E-01
 TRCHEK2: N2 convergence failed.
 x:  0.08484  0.09738  0.09893  N:  8.811  9.000  9.011  Nx:  25.099   dN:-0.326E-01
 TRCHEK2: N2 convergence failed.
 x:  0.08484  0.09738  0.09893  N:  8.811  9.000  9.011  Nx:  24.904   dN:-0.352E-01
 TRCHEK2: N2 convergence failed.
 x:  0.08484  0.09738  0.09893  N:  8.811  9.000  9.011  Nx:  25.241   dN:-0.288E-01
 TRCHEK2: N2 convergence failed.
 x:  0.08484  0.09738  0.09893  N:  8.811  9.000  9.011  Nx:  24.993   dN:-0.313E-01
 TRCHEK2: N2 convergence failed.
 x:  0.08484  0.09738  0.09893  N:  8.811  9.000  9.011  Nx:  25.360   dN:-0.264E-01
 TRCHEK2: N2 convergence failed.
 x:  0.08484  0.09737  0.09893  N:  8.811  9.000  9.011  Nx:  25.088   dN:-0.281E-01
 TRCHEK2: N2 convergence failed.
 x:  0.08484  0.09737  0.09893  N:  8.811  9.000  9.011  Nx:  25.516   dN:-0.240E-01
 TRCHEK2: N2 convergence failed.
 x:  0.08484  0.09737  0.09893  N:  8.811  9.000  9.011  Nx:  25.191   dN:-0.255E-01
 TRCHEK2: N2 convergence failed.
 x:  0.08484  0.09737  0.09893  N:  8.811  9.000  9.011  Nx:  25.644   dN:-0.224E-01
 MRCHDU: Convergence failed at  20  side 2    Res =  0.7625E+02
 MRCHDU: Convergence failed at  21  side 2    Res =  0.6792E+03
 MRCHDU: Convergence failed at  22  side 2    Res =  0.2567E+04
 MRCHDU: Convergence failed at  23  side 2    Res =  0.7759E+03
 MRCHDU: Convergence failed at  24  side 2    Res =  0.3259E+03
 MRCHDU: Convergence failed at  25  side 2    Res =  0.1872E+03
 MRCHDU: Convergence failed at  26  side 2    Res =  0.1760E+03
 MRCHDU: Convergence failed at  27  side 2    Res =  0.1408E+03
 MRCHDU: Convergence failed at  28  side 2    Res =  0.1176E+03
 MRCHDU: Convergence failed at  29  side 2    Res =  0.1007E+03
 MRCHDU: Convergence failed at  30  side 2    Res =  0.8652E+02
 MRCHDU: Convergence failed at  31  side 2    Res =  0.9112E+02
 MRCHDU: Convergence failed at  32  side 2    Res =  0.7823E+02
 MRCHDU: Convergence failed at  33  side 2    Res =  0.6704E+02
 MRCHDU: Convergence failed at  34  side 2    Res =  0.6843E+02
 MRCHDU: Convergence failed at  35  side 2    Res =  0.5928E+02
 MRCHDU: Convergence failed at  36  side 2    Res =  0.6064E+02
 MRCHDU: Convergence failed at  37  side 2    Res =  0.5304E+02
 MRCHDU: Convergence failed at  38  side 2    Res =  0.5402E+02
 MRCHDU: Convergence failed at  39  side 2    Res =  0.4739E+02
 MRCHDU: Convergence failed at  40  side 2    Res =  0.4825E+02
 MRCHDU: Convergence failed at  41  side 2    Res =  0.4268E+02
 MRCHDU: Convergence failed at  42  side 2    Res =  0.3772E+02
 MRCHDU: Convergence failed at  43  side 2    Res =  0.3831E+02
 MRCHDU: Convergence failed at  44  side 2    Res =  0.3874E+02
 MRCHDU: Convergence failed at  45  side 2    Res =  0.3441E+02
 MRCHDU: Convergence failed at  46  side 2    Res =  0.3043E+02
 MRCHDU: Convergence failed at  47  side 2    Res =  0.3120E+02
 MRCHDU: Convergence failed at  48  side 2    Res =  0.3173E+02
 MRCHDU: Convergence failed at  49  side 2    Res =  0.4362E+02
 MRCHDU: Convergence failed at  50  side 2    Res =  0.5180E+02
 MRCHDU: Convergence failed at  51  side 2    Res =  0.6525E+02
 MRCHDU: Convergence failed at  52  side 2    Res =  0.6719E+02
 MRCHDU: Convergence failed at  53  side 2    Res =  0.7148E+02
 MRCHDU: Convergence failed at  54  side 2    Res =  0.9678E+02
 MRCHDU: Convergence failed at  55  side 2    Res =  0.9383E+02
 MRCHDU: Convergence failed at  56  side 2    Res =  0.1350E+03
 MRCHDU: Convergence failed at  57  side 2    Res =  0.1319E+03
 MRCHDU: Convergence failed at  58  side 2    Res =  0.1324E+03
 MRCHDU: Convergence failed at  59  side 2    Res =  0.2324E+03
 MRCHDU: Convergence failed at  60  side 2    Res =  0.1151E+04
 MRCHDU: Convergence failed at  61  side 2    Res =  0.1537E+04
 MRCHDU: Convergence failed at  62  side 2    Res =  0.6348E+03
 MRCHDU: Convergence failed at  63  side 2    Res =  0.1055E+04
 MRCHDU: Convergence failed at  64  side 2    Res =  0.2761E+03
 MRCHDU: Convergence failed at  65  side 2    Res =  0.1601E+03
 MRCHDU: Convergence failed at  66  side 2    Res =  0.1126E+03
 MRCHDU: Convergence failed at  67  side 2    Res =  0.1254E+03
 MRCHDU: Convergence failed at  68  side 2    Res =  0.1322E+03
 MRCHDU: Convergence failed at  69  side 2    Res =  0.1106E+03
 MRCHDU: Convergence failed at  70  side 2    Res =  0.9560E+02
 MRCHDU: Convergence failed at  71  side 2    Res =  0.1293E+03
 MRCHDU: Convergence failed at  72  side 2    Res =  0.1223E+03
 MRCHDU: Convergence failed at  73  side 2    Res =  0.1232E+03
 MRCHDU: Convergence failed at  74  side 2    Res =  0.8993E+02
 MRCHDU: Convergence failed at  75  side 2    Res =  0.1022E+03
 MRCHDU: Convergence failed at  76  side 2    Res =  0.9406E+02
 MRCHDU: Convergence failed at  77  side 2    Res =  0.8907E+02
 MRCHDU: Convergence failed at  78  side 2    Res =  0.1298E+03
 MRCHDU: Convergence failed at  79  side 2    Res =  0.2406E+03
 MRCHDU: Convergence failed at  80  side 2    Res =  0.1861E+04
 MRCHDU: Convergence failed at  81  side 2    Res =  0.3401E+03
 MRCHDU: Convergence failed at  82  side 2    Res =  0.1966E+03
 MRCHDU: Convergence failed at  83  side 2    Res =  0.4160E+03
 MRCHDU: Convergence failed at  84  side 2    Res =  0.1450E+04
 MRCHDU: Convergence failed at  85  side 2    Res =  0.1065E+03
 Side 1  free  transition at x/c =  0.6120   49
 Side 2  free  transition at x/c =  0.0785   20

   5   rms: 0.2452E+01   max: 0.3902E+02   T at   20  2   RLX: 0.021
       a = -2.500      CL = -1.2874
      Cm =  0.3401     CD =  0.00161   =>   CDf =  0.00281    CDp = -0.00121

 Side 1  free  transition at x/c =  0.6120   49
 Side 2  free  transition at x/c =  0.0673   19

   6   rms: 0.3456E+01   max: 0.7445E+02   T at   19  2   RLX: 0.020
       a = -2.500      CL = -0.9823
      Cm =  0.2319     CD =  0.02329   =>   CDf =  0.00321    CDp =  0.02007

 Side 1  free  transition at x/c =  0.6157   49
 Side 2  free  transition at x/c =  0.0461   17

   7   rms: 0.1152E+02   max: 0.8192E+02   T at   18  2   RLX: 0.018
       a = -2.500      CL = -1.0653
      Cm =  0.2523     CD =  0.03174   =>   CDf =  0.00322    CDp =  0.02852

 Side 1  free  transition at x/c =  0.6191   49
 Side 2  free  transition at x/c =  0.0459   17
 idif Ue xi dudx           1  0.23479028      3.06475163E-03   76.609886    
 Uenew xinew           2  3.07312328E-02  4.01139259E-04

   8   rms: 0.3134E+02   max: 0.1868E+03   T at   18  2   RLX: 0.008
       a = -2.500      CL = -1.1230
      Cm =  0.2470     CD =  0.02617   =>   CDf =  0.00305    CDp =  0.02312

 Side 1  free  transition at x/c =  0.6199   48
 Side 2  free  transition at x/c =  0.0431   18

   9   rms: 0.9061E+00   max: 0.4223E+01   D at   20  2   RLX: 0.355
       a = -2.500      CL = -0.8800
      Cm =  0.1638     CD =  0.04395   =>   CDf =  0.00314    CDp =  0.04081

 MRCHDU: Convergence failed at  93  side 2    Res =  0.9442E+00
 MRCHDU: Convergence failed at  94  side 2    Res =  0.2360E+01
 MRCHDU: Convergence failed at  95  side 2    Res =  0.1025E+02
 MRCHDU: Convergence failed at  96  side 2    Res =  0.2649E+01
 MRCHDU: Convergence failed at  97  side 2    Res =  0.1753E+01
 MRCHDU: Convergence failed at  98  side 2    Res =  0.2150E+01
 MRCHDU: Convergence failed at  99  side 2    Res =  0.2902E+01
 MRCHDU: Convergence failed at 100  side 2    Res =  0.4318E+01
 MRCHDU: Convergence failed at 101  side 2    Res =  0.9551E+01
 MRCHDU: Convergence failed at 102  side 2    Res =  0.1597E+02
 MRCHDU: Convergence failed at 104  side 2    Res =  0.2565E+01
 MRCHDU: Convergence failed at 105  side 2    Res =  0.2173E+01
 MRCHDU: Convergence failed at 106  side 2    Res =  0.3140E+01
 MRCHDU: Convergence failed at 107  side 2    Res =  0.4221E+01
 MRCHDU: Convergence failed at 108  side 2    Res =  0.4092E+01
 Side 1  free  transition at x/c =  0.6370   49
 Side 2  free  transition at x/c =  0.0231   16

  10   rms: 0.5261E+00   max: -.1194E+01   C at  101  2   RLX: 0.419
       a = -2.500      CL = -0.5945
      Cm =  0.1026     CD =  0.05912   =>   CDf =  0.00338    CDp =  0.05575

 Side 1  free  transition at x/c =  0.6362   50
 Side 2  free  transition at x/c =  0.0236   15

  11   rms: 0.3832E+00   max: -.1064E+01   D at  105  2   RLX: 0.470
       a = -2.500      CL = -0.3603
      Cm =  0.0432     CD =  0.07250   =>   CDf =  0.00326    CDp =  0.06924

 Side 1  free  transition at x/c =  0.6358   50
 Side 2  free  transition at x/c =  0.0239   15

  12   rms: 0.3694E+00   max: -.2045E+01   D at  101  2   RLX: 0.245
       a = -2.500      CL = -0.3250
      Cm =  0.0287     CD =  0.08136   =>   CDf =  0.00326    CDp =  0.07810

 MRCHDU: Convergence failed at 102  side 2    Res =  0.3663E+01
 MRCHDU: Convergence failed at 103  side 2    Res =  0.1491E+00
 Side 1  free  transition at x/c =  0.6378   50
 Side 2  free  transition at x/c =  0.0238   15

  13   rms: 0.3501E+00   max: -.1277E+01   D at  104  2   RLX: 0.392
       a = -2.500      CL = -0.2157
      Cm = -0.0024     CD =  0.05999   =>   CDf =  0.00328    CDp =  0.05672

 Side 1  free  transition at x/c =  0.6328   50
 Side 2  free  transition at x/c =  0.0240   15

  14   rms: 0.3646E+00   max: -.1430E+01   D at  104  2   RLX: 0.350
       a = -2.500      CL = -0.1373
      Cm = -0.0288     CD =  0.05457   =>   CDf =  0.00322    CDp =  0.05135

 Side 1  free  transition at x/c =  0.6292   50
 Side 2  free  transition at x/c =  0.0241   15

  15   rms: 0.4656E+00   max: -.1715E+01   D at   87  2   RLX: 0.292
       a = -2.500      CL = -0.0676
      Cm = -0.0588     CD =  0.04831   =>   CDf =  0.00320    CDp =  0.04511

 Side 1  free  transition at x/c =  0.6271   50
 Side 2  free  transition at x/c =  0.0241   15

  16   rms: 0.3873E+00   max: -.1297E+01   D at  104  2   RLX: 0.386
       a = -2.500      CL =  0.0044
      Cm = -0.0702     CD =  0.04401   =>   CDf =  0.00333    CDp =  0.04069

 Side 1  free  transition at x/c =  0.6227   49
 Side 2  free  transition at x/c =  0.0350   17

  17   rms: 0.5866E+00   max: 0.4755E+01   T at   17  2   RLX: 0.315
       a = -2.500      CL =  0.0795
      Cm = -0.0590     CD =  0.04204   =>   CDf =  0.00517    CDp =  0.03687

 MRCHDU: Convergence failed at  17  side 2    Res =  0.1524E+02
 MRCHDU: Convergence failed at  18  side 2    Res =  0.3839E+02
 MRCHDU: Convergence failed at  19  side 2    Res =  0.6233E+02
 MRCHDU: Convergence failed at  20  side 2    Res =  0.6493E+02
 MRCHDU: Convergence failed at  21  side 2    Res =  0.5562E+02
 MRCHDU: Convergence failed at  22  side 2    Res =  0.5261E+02
 MRCHDU: Convergence failed at  23  side 2    Res =  0.4940E+02
 MRCHDU: Convergence failed at  24  side 2    Res =  0.4066E+02
 MRCHDU: Convergence failed at  25  side 2    Res =  0.4749E+02
 MRCHDU: Convergence failed at  26  side 2    Res =  0.5476E+02
 MRCHDU: Convergence failed at  27  side 2    Res =  0.5942E+02
 MRCHDU: Convergence failed at  28  side 2    Res =  0.6756E+02
 MRCHDU: Convergence failed at  29  side 2    Res =  0.7212E+02
 MRCHDU: Convergence failed at  30  side 2    Res =  0.7692E+02
 MRCHDU: Convergence failed at  31  side 2    Res =  0.8208E+02
 MRCHDU: Convergence failed at  32  side 2    Res =  0.7714E+02
 MRCHDU: Convergence failed at  33  side 2    Res =  0.6451E+02
 MRCHDU: Convergence failed at  34  side 2    Res =  0.5273E+02
 MRCHDU: Convergence failed at  35  side 2    Res =  0.8495E+02
 MRCHDU: Convergence failed at  36  side 2    Res =  0.8730E+02
 MRCHDU: Convergence failed at  37  side 2    Res =  0.8927E+02
 MRCHDU: Convergence failed at  38  side 2    Res =  0.9117E+02
 MRCHDU: Convergence failed at  39  side 2    Res =  0.9310E+02
 MRCHDU: Convergence failed at  40  side 2    Res =  0.9517E+02
 MRCHDU: Convergence failed at  41  side 2    Res =  0.9748E+02
 MRCHDU: Convergence failed at  42  side 2    Res =  0.1002E+03
 MRCHDU: Convergence failed at  43  side 2    Res =  0.1033E+03
 MRCHDU: Convergence failed at  44  side 2    Res =  0.1069E+03
 MRCHDU: Convergence failed at  45  side 2    Res =  0.1109E+03
 MRCHDU: Convergence failed at  46  side 2    Res =  0.1149E+03
 MRCHDU: Convergence failed at  47  side 2    Res =  0.1172E+03
 MRCHDU: Convergence failed at  48  side 2    Res =  0.1070E+03
 MRCHDU: Convergence failed at  49  side 2    Res =  0.1167E+03
 MRCHDU: Convergence failed at  50  side 2    Res =  0.1169E+03
 MRCHDU: Convergence failed at  51  side 2    Res =  0.1154E+03
 MRCHDU: Convergence failed at  52  side 2    Res =  0.1139E+03
 MRCHDU: Convergence failed at  53  side 2    Res =  0.1129E+03
 MRCHDU: Convergence failed at  54  side 2    Res =  0.1123E+03
 MRCHDU: Convergence failed at  55  side 2    Res =  0.1119E+03
 MRCHDU: Convergence failed at  56  side 2    Res =  0.1118E+03
 MRCHDU: Convergence failed at  57  side 2    Res =  0.1117E+03
 MRCHDU: Convergence failed at  58  side 2    Res =  0.1118E+03
 MRCHDU: Convergence failed at  59  side 2    Res =  0.1118E+03
 MRCHDU: Convergence failed at  60  side 2    Res =  0.1120E+03
 MRCHDU: Convergence failed at  61  side 2    Res =  0.1124E+03
 MRCHDU: Convergence failed at  62  side 2    Res =  0.1126E+03
 MRCHDU: Convergence failed at  63  side 2    Res =  0.1129E+03
 MRCHDU: Convergence failed at  64  side 2    Res =  0.1132E+03
 MRCHDU: Convergence failed at  65  side 2    Res =  0.1137E+03
 MRCHDU: Convergence failed at  66  side 2    Res =  0.1141E+03
 MRCHDU: Convergence failed at  67  side 2    Res =  0.1146E+03
 MRCHDU: Convergence failed at  68  side 2    Res =  0.1152E+03
 MRCHDU: Convergence failed at  69  side 2    Res =  0.1159E+03
 MRCHDU: Convergence failed at  70  side 2    Res =  0.1166E+03
 MRCHDU: Convergence failed at  71  side 2    Res =  0.1177E+03
 MRCHDU: Convergence failed at  72  side 2    Res =  0.1195E+03
 MRCHDU: Convergence failed at  73  side 2    Res =  0.1212E+03
 MRCHDU: Convergence failed at  74  side 2    Res =  0.1232E+03
 MRCHDU: Convergence failed at  75  side 2    Res =  0.1253E+03
 MRCHDU: Convergence failed at  76  side 2    Res =  0.1280E+03
 MRCHDU: Convergence failed at  77  side 2    Res =  0.1310E+03
 MRCHDU: Convergence failed at  78  side 2    Res =  0.1347E+03
 MRCHDU: Convergence failed at  79  side 2    Res =  0.1394E+03
 MRCHDU: Convergence failed at  80  side 2    Res =  0.1459E+03
 MRCHDU: Convergence failed at  81  side 2    Res =  0.1556E+03
 MRCHDU: Convergence failed at  82  side 2    Res =  0.1758E+03
 MRCHDU: Convergence failed at  83  side 2    Res =  0.3305E+03
 MRCHDU: Convergence failed at  84  side 2    Res =  0.3315E+03
 MRCHDU: Convergence failed at  85  side 2    Res =  0.3366E+03
 MRCHDU: Convergence failed at  87  side 2    Res =  0.3880E+00
 MRCHDU: Convergence failed at  88  side 2    Res =  0.4946E+00
 MRCHDU: Convergence failed at  89  side 2    Res =  0.4722E+00
 MRCHDU: Convergence failed at  90  side 2    Res =  0.4037E+00
 MRCHDU: Convergence failed at  91  side 2    Res =  0.3390E+00
 MRCHDU: Convergence failed at  92  side 2    Res =  0.2395E+00
 MRCHDU: Convergence failed at  93  side 2    Res =  0.1535E+00
 MRCHDU: Convergence failed at  94  side 2    Res =  0.4372E-01
 Side 1  free  transition at x/c =  0.6195   49
 Side 2  free  transition at x/c =  0.0406   17

  18   rms: 0.2201E+01   max: 0.2861E+02   T at   17  2   RLX: 0.032
       a = -2.500      CL = -1.1311
      Cm =  0.3008     CD =  0.00426   =>   CDf =  0.00287    CDp =  0.00139

 MRCHDU: Convergence failed at  94  side 2    Res =  0.9107E-01
 Side 1  free  transition at x/c =  0.6193   49
 Side 2  free  transition at x/c =  0.0411   17

  19   rms: 0.3557E+01   max: 0.7590E+02   T at   17  2   RLX: 0.020
       a = -2.500      CL = -0.6874
      Cm =  0.1590     CD =  0.05018   =>   CDf =  0.00327    CDp =  0.04691

 MRCHDU: Convergence failed at  94  side 2    Res =  0.3502E-01
 Side 1  free  transition at x/c =  0.6213   49
 Side 2  free  transition at x/c =  0.0348   16

  20   rms: 0.1316E+02   max: -.9345E+02   T at   19  2   RLX: 0.005
       a = -2.500      CL = -0.6771
      Cm =  0.1625     CD =  0.06245   =>   CDf =  0.00330    CDp =  0.05915

 Side 1  free  transition at x/c =  0.6220   49
 Side 2  free  transition at x/c =  0.0352   17

  21   rms: 0.1647E+01   max: 0.1441E+02   T at   18  2   RLX: 0.104
       a = -2.500      CL = -0.7164
      Cm =  0.1600     CD =  0.06773   =>   CDf =  0.00329    CDp =  0.06444

 Side 1  free  transition at x/c =  0.6351   50
 Side 2  free  transition at x/c =  0.0586   18
 idif Ue xi dudx           1  0.22023281      2.93469429E-03   75.044548    
 Uenew xinew           2  2.03432199E-02  2.71081924E-04

  22   rms: 0.1408E+02   max: 0.1644E+03   T at   19  2   RLX: 0.009
       a = -2.500      CL = -1.1770
      Cm =  0.2661     CD =  0.08003   =>   CDf =  0.00314    CDp =  0.07689

 Side 1  free  transition at x/c =  0.6373   49
 Side 2  free  transition at x/c =  0.0471   19

  23   rms: 0.4304E+01   max: 0.4242E+02   T at   19  2   RLX: 0.032
       a = -2.500      CL = -1.3855
      Cm =  0.3106     CD =  0.07621   =>   CDf =  0.00327    CDp =  0.07294

 Side 1  free  transition at x/c =  0.6446   50
 Side 2  free  transition at x/c =  0.0276   17

  24   rms: 0.3095E+01   max: 0.5425E+02   T at   17  2   RLX: 0.028
       a = -2.500      CL = -1.4848
      Cm =  0.3266     CD =  0.07535   =>   CDf =  0.00313    CDp =  0.07222

 Side 1  free  transition at x/c =  0.6482   50
 Side 2  free  transition at x/c =  0.0234   16

  25   rms: 0.1297E+01   max: -.9978E+01   T at   17  2   RLX: 0.050
       a = -2.500      CL = -1.5430
      Cm =  0.3401     CD =  0.08540   =>   CDf =  0.00312    CDp =  0.08228

 Side 1  free  transition at x/c =  0.6521   50
 Side 2  free  transition at x/c =  0.0233   16

  26   rms: 0.8663E+00   max: 0.5887E+01   T at   17  2   RLX: 0.177
       a = -2.500      CL = -1.4233
      Cm =  0.3076     CD =  0.08943   =>   CDf =  0.00314    CDp =  0.08629

 Side 1  free  transition at x/c =  0.6640   51
 Side 2  free  transition at x/c =  0.0219   16

  27   rms: 0.8372E+00   max: -.2478E+01   C at  101  2   RLX: 0.202
       a = -2.500      CL = -1.1521
      Cm =  0.2386     CD =  0.09408   =>   CDf =  0.00324    CDp =  0.09084

 Side 1  free  transition at x/c =  0.6628   51
 Side 2  free  transition at x/c =  0.0223   16

  28   rms: 0.7731E+00   max: -.2448E+01   C at  102  2   RLX: 0.204
       a = -2.500      CL = -0.8697
      Cm =  0.1724     CD =  0.10054   =>   CDf =  0.00332    CDp =  0.09722

 Side 1  free  transition at x/c =  0.6575   51
 Side 2  free  transition at x/c =  0.0228   16

  29   rms: 0.6405E+00   max: -.2171E+01   T at  105  2   RLX: 0.230
       a = -2.500      CL = -0.6430
      Cm =  0.1188     CD =  0.10397   =>   CDf =  0.00355    CDp =  0.10042

 Side 1  free  transition at x/c =  0.6535   52
 Side 2  free  transition at x/c =  0.0234   15

  30   rms: 0.5376E+00   max: -.1692E+01   C at  101  2   RLX: 0.296
       a = -2.500      CL = -0.4315
      Cm =  0.0684     CD =  0.09760   =>   CDf =  0.00350    CDp =  0.09410

 Side 1  free  transition at x/c =  0.6495   51
 Side 2  free  transition at x/c =  0.0237   15

  31   rms: 0.4349E+00   max: -.1321E+01   C at  101  2   RLX: 0.378
       a = -2.500      CL = -0.2488
      Cm =  0.0228     CD =  0.10097   =>   CDf =  0.00351    CDp =  0.09745

 Side 1  free  transition at x/c =  0.6408   51
 Side 2  free  transition at x/c =  0.0240   15

  32   rms: 0.3509E+00   max: -.1017E+01   C at  101  2   RLX: 0.492
       a = -2.500      CL = -0.1540
      Cm = -0.0064     CD =  0.08816   =>   CDf =  0.00348    CDp =  0.08468

 Side 1  free  transition at x/c =  0.6370   50
 Side 2  free  transition at x/c =  0.0241   15

  33   rms: 0.4365E+00   max: -.2107E+01   D at  105  2   RLX: 0.237
       a = -2.500      CL = -0.2052
      Cm = -0.0055     CD =  0.08546   =>   CDf =  0.00339    CDp =  0.08207

 Side 1  free  transition at x/c =  0.6427   51
 Side 2  free  transition at x/c =  0.0607   19

  34   rms: 0.1672E+01   max: -.9718E+01   T at   19  2   RLX: 0.051
       a = -2.500      CL = -0.0973
      Cm = -0.0314     CD =  0.09040   =>   CDf =  0.00321    CDp =  0.08719

 Side 1  free  transition at x/c =  0.6389   51
 Side 2  free  transition at x/c =  0.0629   19

  35   rms: 0.7301E+01   max: -.8550E+02   T at   19  2   RLX: 0.006
       a = -2.500      CL = -0.1262
      Cm = -0.0175     CD =  0.09475   =>   CDf =  0.00330    CDp =  0.09144

 Side 1  free  transition at x/c =  0.6374   50
 Side 2  free  transition at x/c =  0.0639   19

  36   rms: 0.5497E+01   max: 0.9478E+02   T at   19  2   RLX: 0.016
       a = -2.500      CL = -0.1687
      Cm = -0.0122     CD =  0.09000   =>   CDf =  0.00333    CDp =  0.08667

 Side 1  free  transition at x/c =  0.6412   51
 Side 2  free  transition at x/c =  0.0493   18

  37   rms: 0.1248E+02   max: 0.1925E+03   T at   18  2   RLX: 0.008
       a = -2.500      CL = -0.2924
      Cm =  0.0108     CD =  0.08708   =>   CDf =  0.00326    CDp =  0.08382

 Side 1  free  transition at x/c =  0.6438   51
 Side 2  free  transition at x/c =  0.0425   17

  38   rms: 0.1285E+01   max: 0.2591E+02   T at   17  2   RLX: 0.058
       a = -2.500      CL = -0.3048
      Cm =  0.0067     CD =  0.07772   =>   CDf =  0.00321    CDp =  0.07451

 Side 1  free  transition at x/c =  0.6444   51
 Side 2  free  transition at x/c =  0.0326   16

[...]
      Cm =  0.2504     CD =  0.07164   =>   CDf =  0.00341    CDp =  0.06823

 MRCHDU: Convergence failed at  78  side 2    Res =  0.1053E+02
 Side 1  free  transition at x/c =  0.5492   45
 Side 2  free  transition at x/c =  0.0247   14

 104   rms: 0.1272E+07   max: -.1305E+08   C at   84  2   RLX: 0.000
       a = 10.750      CL = -0.9145
      Cm =  0.2504     CD =  0.07164   =>   CDf =  0.00341    CDp =  0.06823

 MRCHDU: Convergence failed at  78  side 2    Res =  0.1058E+02
 Side 1  free  transition at x/c =  0.5492   45
 Side 2  free  transition at x/c =  0.0247   14

 105   rms: 0.1402E+07   max: -.1438E+08   C at   81  2   RLX: 0.000
       a = 10.750      CL = -0.9145
      Cm =  0.2504     CD =  0.07164   =>   CDf =  0.00341    CDp =  0.06823

 MRCHDU: Convergence failed at  78  side 2    Res =  0.1063E+02
 Side 1  free  transition at x/c =  0.5492   45
 Side 2  free  transition at x/c =  0.0247   14

 106   rms: 0.9860E+06   max: -.1011E+08   C at   83  2   RLX: 0.000
       a = 10.750      CL = -0.9145
      Cm =  0.2504     CD =  0.07164   =>   CDf =  0.00341    CDp =  0.06823

 MRCHDU: Convergence failed at  78  side 2    Res =  0.1068E+02
 Side 1  free  transition at x/c =  0.5492   45
 Side 2  free  transition at x/c =  0.0247   14

 107   rms: 0.1147E+07   max: -.1177E+08   C at   84  2   RLX: 0.000
       a = 10.750      CL = -0.9145
      Cm =  0.2504     CD =  0.07164   =>   CDf =  0.00341    CDp =  0.06823

 MRCHDU: Convergence failed at  78  side 2    Res =  0.1073E+02
 Side 1  free  transition at x/c =  0.5492   45
 Side 2  free  transition at x/c =  0.0247   14

 108   rms: 0.1258E+07   max: -.1290E+08   C at   82  2   RLX: 0.000
       a = 10.750      CL = -0.9145
      Cm =  0.2504     CD =  0.07164   =>   CDf =  0.00341    CDp =  0.06823

 MRCHDU: Convergence failed at  78  side 2    Res =  0.1078E+02
 Side 1  free  transition at x/c =  0.5492   45
 Side 2  free  transition at x/c =  0.0247   14

 109   rms: 0.1245E+07   max: -.1277E+08   C at   78  2   RLX: 0.000
       a = 10.750      CL = -0.9145
      Cm =  0.2504     CD =  0.07164   =>   CDf =  0.00341    CDp =  0.06823

 MRCHDU: Convergence failed at  78  side 2    Res =  0.1083E+02
 Side 1  free  transition at x/c =  0.5492   45
 Side 2  free  transition at x/c =  0.0247   14

 110   rms: 0.1375E+07   max: -.1410E+08   C at   83  2   RLX: 0.000
       a = 10.750      CL = -0.9145
      Cm =  0.2504     CD =  0.07164   =>   CDf =  0.00341    CDp =  0.06823

 MRCHDU: Convergence failed at  78  side 2    Res =  0.1088E+02
 Side 1  free  transition at x/c =  0.5492   45
 Side 2  free  transition at x/c =  0.0247   14

 111   rms: 0.1246E+07   max: -.1277E+08   C at   79  2   RLX: 0.000
       a = 10.750      CL = -0.9145
      Cm =  0.2504     CD =  0.07164   =>   CDf =  0.00341    CDp =  0.06823

 MRCHDU: Convergence failed at  78  side 2    Res =  0.1093E+02
 Side 1  free  transition at x/c =  0.5492   45
 Side 2  free  transition at x/c =  0.0247   14

 112   rms: 0.1301E+07   max: -.1335E+08   C at   84  2   RLX: 0.000
       a = 10.750      CL = -0.9145
      Cm =  0.2504     CD =  0.07164   =>   CDf =  0.00341    CDp =  0.06823

 MRCHDU: Convergence failed at  78  side 2    Res =  0.1099E+02
 Side 1  free  transition at x/c =  0.5492   45
 Side 2  free  transition at x/c =  0.0247   14

 113   rms: 0.1420E+07   max: -.1457E+08   C at   84  2   RLX: 0.000
       a = 10.750      CL = -0.9145
      Cm =  0.2504     CD =  0.07164   =>   CDf =  0.00341    CDp =  0.06823

 MRCHDU: Convergence failed at  78  side 2    Res =  0.1103E+02
 Side 1  free  transition at x/c =  0.5492   45
 Side 2  free  transition at x/c =  0.0247   14

 114   rms: 0.1559E+07   max: -.1598E+08   C at   79  2   RLX: 0.000
       a = 10.750      CL = -0.9145
      Cm =  0.2504     CD =  0.07164   =>   CDf =  0.00341    CDp =  0.06823

 MRCHDU: Convergence failed at  78  side 2    Res =  0.1108E+02
 Side 1  free  transition at x/c =  0.5492   45
 Side 2  free  transition at x/c =  0.0247   14

 115   rms: 0.1419E+07   max: -.1455E+08   C at   78  2   RLX: 0.000
       a = 10.750      CL = -0.9145
      Cm =  0.2504     CD =  0.07164   =>   CDf =  0.00341    CDp =  0.06823

 MRCHDU: Convergence failed at  78  side 2    Res =  0.1114E+02
 Side 1  free  transition at x/c =  0.5492   45
 Side 2  free  transition at x/c =  0.0247   14

 116   rms: 0.1533E+07   max: -.1572E+08   C at   84  2   RLX: 0.000
       a = 10.750      CL = -0.9145
      Cm =  0.2504     CD =  0.07164   =>   CDf =  0.00341    CDp =  0.06823

 MRCHDU: Convergence failed at  78  side 2    Res =  0.1119E+02
 Side 1  free  transition at x/c =  0.5492   45
 Side 2  free  transition at x/c =  0.0247   14

 117   rms: 0.1567E+07   max: -.1606E+08   C at   84  2   RLX: 0.000
       a = 10.750      CL = -0.9145
      Cm =  0.2504     CD =  0.07164   =>   CDf =  0.00341    CDp =  0.06823

 MRCHDU: Convergence failed at  78  side 2    Res =  0.1124E+02
 Side 1  free  transition at x/c =  0.5492   45
 Side 2  free  transition at x/c =  0.0247   14

 118   rms: 0.1445E+07   max: -.1481E+08   C at   79  2   RLX: 0.000
       a = 10.750      CL = -0.9145
      Cm =  0.2504     CD =  0.07164   =>   CDf =  0.00341    CDp =  0.06823

 MRCHDU: Convergence failed at  78  side 2    Res =  0.1129E+02
 Side 1  free  transition at x/c =  0.5492   45
 Side 2  free  transition at x/c =  0.0247   14

 119   rms: 0.1465E+07   max: -.1503E+08   C at   84  2   RLX: 0.000
       a = 10.750      CL = -0.9145
      Cm =  0.2504     CD =  0.07164   =>   CDf =  0.00341    CDp =  0.06823

 MRCHDU: Convergence failed at  78  side 2    Res =  0.1134E+02
 Side 1  free  transition at x/c =  0.5492   45
 Side 2  free  transition at x/c =  0.0247   14

 120   rms: 0.1280E+07   max: -.1313E+08   C at   84  2   RLX: 0.000
       a = 10.750      CL = -0.9145
      Cm =  0.2504     CD =  0.07164   =>   CDf =  0.00341    CDp =  0.06823

 MRCHDU: Convergence failed at  78  side 2    Res =  0.1138E+02
 Side 1  free  transition at x/c =  0.5492   45
 Side 2  free  transition at x/c =  0.0247   14

 121   rms: 0.1394E+07   max: -.1429E+08   C at   80  2   RLX: 0.000
       a = 10.750      CL = -0.9145
      Cm =  0.2504     CD =  0.07164   =>   CDf =  0.00341    CDp =  0.06823

 MRCHDU: Convergence failed at  78  side 2    Res =  0.1143E+02
 Side 1  free  transition at x/c =  0.5492   45
 Side 2  free  transition at x/c =  0.0247   14

 122   rms: 0.1616E+07   max: -.1658E+08   C at   84  2   RLX: 0.000
       a = 10.750      CL = -0.9145
      Cm =  0.2504     CD =  0.07164   =>   CDf =  0.00341    CDp =  0.06823

 MRCHDU: Convergence failed at  78  side 2    Res =  0.1149E+02
 Side 1  free  transition at x/c =  0.5492   45
 Side 2  free  transition at x/c =  0.0247   14

 123   rms: 0.1540E+07   max: -.1579E+08   C at   84  2   RLX: 0.000
       a = 10.750      CL = -0.9145
      Cm =  0.2504     CD =  0.07164   =>   CDf =  0.00341    CDp =  0.06823

 MRCHDU: Convergence failed at  78  side 2    Res =  0.1153E+02
 Side 1  free  transition at x/c =  0.5492   45
 Side 2  free  transition at x/c =  0.0247   14

 124   rms: 0.1697E+07   max: -.1740E+08   C at   84  2   RLX: 0.000
       a = 10.750      CL = -0.9145
      Cm =  0.2504     CD =  0.07164   =>   CDf =  0.00341    CDp =  0.06823

 MRCHDU: Convergence failed at  78  side 2    Res =  0.1158E+02
 Side 1  free  transition at x/c =  0.5492   45
 Side 2  free  transition at x/c =  0.0247   14

 125   rms: 0.1577E+07   max: -.1617E+08   C at   83  2   RLX: 0.000
       a = 10.750      CL = -0.9145
      Cm =  0.2504     CD =  0.07164   =>   CDf =  0.00341    CDp =  0.06823

 MRCHDU: Convergence failed at  78  side 2    Res =  0.1163E+02
 Side 1  free  transition at x/c =  0.5492   45
 Side 2  free  transition at x/c =  0.0247   14

 126   rms: 0.1524E+07   max: -.1563E+08   C at   84  2   RLX: 0.000
       a = 10.750      CL = -0.9145
      Cm =  0.2504     CD =  0.07164   =>   CDf =  0.00341    CDp =  0.06823

 MRCHDU: Convergence failed at  78  side 2    Res =  0.1169E+02
 Side 1  free  transition at x/c =  0.5492   45
 Side 2  free  transition at x/c =  0.0247   14

 127   rms: 0.1463E+07   max: -.1500E+08   C at   84  2   RLX: 0.000
       a = 10.750      CL = -0.9145
      Cm =  0.2504     CD =  0.07164   =>   CDf =  0.00341    CDp =  0.06823

 MRCHDU: Convergence failed at  77  side 2    Res =  0.8169E-03
 MRCHDU: Convergence failed at  78  side 2    Res =  0.1174E+02
 Side 1  free  transition at x/c =  0.5492   45
 Side 2  free  transition at x/c =  0.0247   14

 128   rms: 0.1188E+07   max: -.1219E+08   C at   84  2   RLX: 0.000
       a = 10.750      CL = -0.9145
      Cm =  0.2504     CD =  0.07164   =>   CDf =  0.00341    CDp =  0.06823

 MRCHDU: Convergence failed at  77  side 2    Res =  0.1709E-02
 MRCHDU: Convergence failed at  78  side 2    Res =  0.1179E+02
 Side 1  free  transition at x/c =  0.5492   45
 Side 2  free  transition at x/c =  0.0247   14

 129   rms: 0.1185E+07   max: -.1215E+08   C at   84  2   RLX: 0.000
       a = 10.750      CL = -0.9145
      Cm =  0.2504     CD =  0.07164   =>   CDf =  0.00341    CDp =  0.06823

 MRCHDU: Convergence failed at  77  side 2    Res =  0.2713E-02
 MRCHDU: Convergence failed at  78  side 2    Res =  0.1184E+02
 Side 1  free  transition at x/c =  0.5492   45
 Side 2  free  transition at x/c =  0.0247   14

 130   rms: 0.1752E+07   max: -.1796E+08   C at   82  2   RLX: 0.000
       a = 10.750      CL = -0.9145
      Cm =  0.2504     CD =  0.07164   =>   CDf =  0.00341    CDp =  0.06823

 MRCHDU: Convergence failed at  77  side 2    Res =  0.3609E-02
 MRCHDU: Convergence failed at  78  side 2    Res =  0.1189E+02
 Side 1  free  transition at x/c =  0.5492   45
 Side 2  free  transition at x/c =  0.0247   14

 131   rms: 0.1516E+07   max: -.1554E+08   C at   79  2   RLX: 0.000
       a = 10.750      CL = -0.9145
      Cm =  0.2504     CD =  0.07164   =>   CDf =  0.00341    CDp =  0.06823

 MRCHDU: Convergence failed at  77  side 2    Res =  0.4540E-02
 MRCHDU: Convergence failed at  78  side 2    Res =  0.1194E+02
 Side 1  free  transition at x/c =  0.5492   45
 Side 2  free  transition at x/c =  0.0247   14

 132   rms: 0.1226E+07   max: -.1257E+08   C at   84  2   RLX: 0.000
       a = 10.750      CL = -0.9145
      Cm =  0.2504     CD =  0.07164   =>   CDf =  0.00341    CDp =  0.06823

 MRCHDU: Convergence failed at  77  side 2    Res =  0.5438E-02
 MRCHDU: Convergence failed at  78  side 2    Res =  0.1199E+02
 Side 1  free  transition at x/c =  0.5492   45
 Side 2  free  transition at x/c =  0.0247   14

 133   rms: 0.1114E+07   max: -.1143E+08   C at   81  2   RLX: 0.000
       a = 10.750      CL = -0.9145
      Cm =  0.2504     CD =  0.07164   =>   CDf =  0.00341    CDp =  0.06823

 MRCHDU: Convergence failed at  77  side 2    Res =  0.6386E-02
 MRCHDU: Convergence failed at  78  side 2    Res =  0.1203E+02
 Side 1  free  transition at x/c =  0.5492   45
 Side 2  free  transition at x/c =  0.0247   14

 134   rms: 0.1744E+07   max: -.1788E+08   C at   84  2   RLX: 0.000
       a = 10.750      CL = -0.9145
      Cm =  0.2504     CD =  0.07164   =>   CDf =  0.00341    CDp =  0.06823

 MRCHDU: Convergence failed at  77  side 2    Res =  0.7308E-02
 MRCHDU: Convergence failed at  78  side 2    Res =  0.1208E+02
 Side 1  free  transition at x/c =  0.5492   45
 Side 2  free  transition at x/c =  0.0247   14

 135   rms: 0.1494E+07   max: -.1532E+08   C at   84  2   RLX: 0.000
       a = 10.750      CL = -0.9145
      Cm =  0.2504     CD =  0.07164   =>   CDf =  0.00341    CDp =  0.06823

 MRCHDU: Convergence failed at  77  side 2    Res =  0.8171E-02
 MRCHDU: Convergence failed at  78  side 2    Res =  0.1213E+02
 Side 1  free  transition at x/c =  0.5492   45
 Side 2  free  transition at x/c =  0.0247   14

 136   rms: 0.1830E+07   max: -.1877E+08   C at   83  2   RLX: 0.000
       a = 10.750      CL = -0.9145
      Cm =  0.2504     CD =  0.07164   =>   CDf =  0.00341    CDp =  0.06823

 MRCHDU: Convergence failed at  77  side 2    Res =  0.9110E-02
 MRCHDU: Convergence failed at  78  side 2    Res =  0.1218E+02
 Side 1  free  transition at x/c =  0.5492   45
 Side 2  free  transition at x/c =  0.0247   14

 137   rms: 0.1438E+07   max: -.1475E+08   C at   80  2   RLX: 0.000
       a = 10.750      CL = -0.9145
      Cm =  0.2504     CD =  0.07164   =>   CDf =  0.00341    CDp =  0.06823

 MRCHDU: Convergence failed at  77  side 2    Res =  0.1005E-01
 MRCHDU: Convergence failed at  78  side 2    Res =  0.1223E+02
 Side 1  free  transition at x/c =  0.5492   45
 Side 2  free  transition at x/c =  0.0247   14

 138   rms: 0.1906E+07   max: -.1955E+08   C at   84  2   RLX: 0.000
       a = 10.750      CL = -0.9145
      Cm =  0.2504     CD =  0.07164   =>   CDf =  0.00341    CDp =  0.06823

 MRCHDU: Convergence failed at  77  side 2    Res =  0.1106E-01
 MRCHDU: Convergence failed at  78  side 2    Res =  0.1228E+02
 Side 1  free  transition at x/c =  0.5492   45
 Side 2  free  transition at x/c =  0.0247   14

 139   rms: 0.1329E+07   max: -.1364E+08   C at   84  2   RLX: 0.000
       a = 10.750      CL = -0.9145
      Cm =  0.2504     CD =  0.07164   =>   CDf =  0.00341    CDp =  0.06823

 MRCHDU: Convergence failed at  77  side 2    Res =  0.1204E-01
 MRCHDU: Convergence failed at  78  side 2    Res =  0.1234E+02
 Side 1  free  transition at x/c =  0.5492   45
 Side 2  free  transition at x/c =  0.0247   14

 140   rms: 0.1552E+07   max: -.1593E+08   C at   84  2   RLX: 0.000
       a = 10.750      CL = -0.9145
      Cm =  0.2504     CD =  0.07164   =>   CDf =  0.00341    CDp =  0.06823

 MRCHDU: Convergence failed at  77  side 2    Res =  0.1295E-01
 MRCHDU: Convergence failed at  78  side 2    Res =  0.1239E+02
 Side 1  free  transition at x/c =  0.5492   45
 Side 2  free  transition at x/c =  0.0247   14

 141   rms: 0.1383E+07   max: -.1418E+08   C at   84  2   RLX: 0.000
       a = 10.750      CL = -0.9145
      Cm =  0.2504     CD =  0.07164   =>   CDf =  0.00341    CDp =  0.06823

 MRCHDU: Convergence failed at  77  side 2    Res =  0.1379E-01
 MRCHDU: Convergence failed at  78  side 2    Res =  0.1243E+02
 Side 1  free  transition at x/c =  0.5492   45
 Side 2  free  transition at x/c =  0.0247   14

 142   rms: 0.1512E+07   max: -.1551E+08   C at   80  2   RLX: 0.000
       a = 10.750      CL = -0.9145
      Cm =  0.2504     CD =  0.07164   =>   CDf =  0.00341    CDp =  0.06822

 MRCHDU: Convergence failed at  77  side 2    Res =  0.1463E-01
 MRCHDU: Convergence failed at  78  side 2    Res =  0.1248E+02
 Side 1  free  transition at x/c =  0.5492   45
 Side 2  free  transition at x/c =  0.0247   14

 143   rms: 0.1754E+07   max: -.1799E+08   C at   84  2   RLX: 0.000
       a = 10.750      CL = -0.9145
      Cm =  0.2504     CD =  0.07164   =>   CDf =  0.00341    CDp =  0.06822

 MRCHDU: Convergence failed at  77  side 2    Res =  0.1554E-01
 MRCHDU: Convergence failed at  78  side 2    Res =  0.1253E+02
 Side 1  free  transition at x/c =  0.5492   45
 Side 2  free  transition at x/c =  0.0247   14

 144   rms: 0.1804E+07   max: -.1851E+08   C at   84  2   RLX: 0.000
       a = 10.750      CL = -0.9145
      Cm =  0.2504     CD =  0.07164   =>   CDf =  0.00341    CDp =  0.06822

 MRCHDU: Convergence failed at  77  side 2    Res =  0.1641E-01
 MRCHDU: Convergence failed at  78  side 2    Res =  0.1258E+02
 Side 1  free  transition at x/c =  0.5492   45
 Side 2  free  transition at x/c =  0.0247   14

 145   rms: 0.9048E+06   max: -.9281E+07   C at   84  2   RLX: 0.000
       a = 10.750      CL = -0.9145
      Cm =  0.2504     CD =  0.07164   =>   CDf =  0.00341    CDp =  0.06822

 MRCHDU: Convergence failed at  77  side 2    Res =  0.1729E-01
 MRCHDU: Convergence failed at  78  side 2    Res =  0.1264E+02
 Side 1  free  transition at x/c =  0.5492   45
 Side 2  free  transition at x/c =  0.0247   14

 146   rms: 0.1571E+07   max: -.1611E+08   C at   84  2   RLX: 0.000
       a = 10.750      CL = -0.9145
      Cm =  0.2504     CD =  0.07164   =>   CDf =  0.00341    CDp =  0.06822

 MRCHDU: Convergence failed at  77  side 2    Res =  0.1813E-01
 MRCHDU: Convergence failed at  78  side 2    Res =  0.1268E+02
 Side 1  free  transition at x/c =  0.5492   45
 Side 2  free  transition at x/c =  0.0247   14

 147   rms: 0.1578E+07   max: -.1619E+08   C at   84  2   RLX: 0.000
       a = 10.750      CL = -0.9145
      Cm =  0.2504     CD =  0.07164   =>   CDf =  0.00341    CDp =  0.06822

 MRCHDU: Convergence failed at  77  side 2    Res =  0.1897E-01
 MRCHDU: Convergence failed at  78  side 2    Res =  0.1273E+02
 Side 1  free  transition at x/c =  0.5492   45
 Side 2  free  transition at x/c =  0.0247   14

 148   rms: 0.1433E+07   max: -.1470E+08   C at   84  2   RLX: 0.000
       a = 10.750      CL = -0.9145
      Cm =  0.2504     CD =  0.07164   =>   CDf =  0.00341    CDp =  0.06822

 MRCHDU: Convergence failed at  77  side 2    Res =  0.1985E-01
 MRCHDU: Convergence failed at  78  side 2    Res =  0.1278E+02
 Side 1  free  transition at x/c =  0.5492   45
 Side 2  free  transition at x/c =  0.0247   14

 149   rms: 0.1222E+07   max: -.1253E+08   C at   78  2   RLX: 0.000
       a = 10.750      CL = -0.9145
      Cm =  0.2504     CD =  0.07164   =>   CDf =  0.00341    CDp =  0.06822

 MRCHDU: Convergence failed at  77  side 2    Res =  0.2065E-01
 MRCHDU: Convergence failed at  78  side 2    Res =  0.1283E+02
 Side 1  free  transition at x/c =  0.5492   45
 Side 2  free  transition at x/c =  0.0247   14

 150   rms: 0.1441E+07   max: -.1477E+08   C at   84  2   RLX: 0.000
       a = 10.750      CL = -0.9145
      Cm =  0.2504     CD =  0.07164   =>   CDf =  0.00341    CDp =  0.06823

 MRCHDU: Convergence failed at  77  side 2    Res =  0.2148E-01
 MRCHDU: Convergence failed at  78  side 2    Res =  0.1288E+02
 Side 1  free  transition at x/c =  0.5492   45
 Side 2  free  transition at x/c =  0.0247   14

 151   rms: 0.1252E+07   max: -.1284E+08   C at   83  2   RLX: 0.000
       a = 10.750      CL = -0.9145
      Cm =  0.2504     CD =  0.07164   =>   CDf =  0.00341    CDp =  0.06822

 MRCHDU: Convergence failed at  77  side 2    Res =  0.2231E-01
 MRCHDU: Convergence failed at  78  side 2    Res =  0.1293E+02
 Side 1  free  transition at x/c =  0.5492   45
 Side 2  free  transition at x/c =  0.0247   14

 152   rms: 0.1104E+07   max: -.1132E+08   C at   78  2   RLX: 0.000
       a = 10.750      CL = -0.9145
      Cm =  0.2504     CD =  0.07164   =>   CDf =  0.00341    CDp =  0.06822

 MRCHDU: Convergence failed at  77  side 2    Res =  0.2312E-01
 MRCHDU: Convergence failed at  78  side 2    Res =  0.1298E+02
 Side 1  free  transition at x/c =  0.5492   45
 Side 2  free  transition at x/c =  0.0247   14

 153   rms: 0.1426E+07   max: -.1463E+08   C at   80  2   RLX: 0.000
       a = 10.750      CL = -0.9145
      Cm =  0.2504     CD =  0.07164   =>   CDf =  0.00341    CDp =  0.06822

 MRCHDU: Convergence failed at  77  side 2    Res =  0.2400E-01
 MRCHDU: Convergence failed at  78  side 2    Res =  0.1304E+02
 Side 1  free  transition at x/c =  0.5492   45
 Side 2  free  transition at x/c =  0.0247   14

 154   rms: 0.1199E+07   max: -.1230E+08   C at   79  2   RLX: 0.000
       a = 10.750      CL = -0.9145
      Cm =  0.2504     CD =  0.07164   =>   CDf =  0.00341    CDp =  0.06822

 MRCHDU: Convergence failed at  77  side 2    Res =  0.2492E-01
 MRCHDU: Convergence failed at  78  side 2    Res =  0.1309E+02
 Side 1  free  transition at x/c =  0.5492   45
 Side 2  free  transition at x/c =  0.0247   14

 155   rms: 0.1497E+07   max: -.1535E+08   C at   84  2   RLX: 0.000
       a = 10.750      CL = -0.9145
      Cm =  0.2504     CD =  0.07164   =>   CDf =  0.00341    CDp =  0.06822
 VISCAL:  Convergence failed

 Sequence halted since previous  4 points did not converge
 Last-converged  alpha =  -1.000    CL =  -0.28698

.OPERva   c>  
 Polar accumulation disabled

.OPERv   c>  
 XFOIL   c>  
 XFOIL   c>  