  
       XFOIL         Version 6.99
  
 Calculated polar for: NACA M23 AIRFOIL                                
  
 1 1 Reynolds number fixed          Mach number fixed         
  
 xtrf =   1.000 (top)        1.000 (bottom)  
 Mach =   0.000     Re =     0.200 e 6     Ncrit =   9.000
  
   alpha    CL        CD       CDp       CM     Top_Xtr  Bot_Xtr
  ------ -------- --------- --------- -------- -------- --------
  -4.000  -0.1165   0.05553   0.05093  -0.0240   0.6570   0.0382
  -3.500  -0.0662   0.05038   0.04552  -0.0265   0.6473   0.0435
  -2.500   0.0401   0.04084   0.03531  -0.0298   0.6289   0.0548
  -2.000   0.0974   0.03683   0.03086  -0.0308   0.6201   0.0628
  -1.500   0.1599   0.03501   0.02838  -0.0309   0.6113   0.0742
  -1.000   0.2056   0.03052   0.02391  -0.0315   0.6018   0.0814
  -0.500   0.2614   0.02793   0.02086  -0.0314   0.5941   0.0931
   0.000   0.3181   0.02573   0.01839  -0.0318   0.5843   0.1076
   0.500   0.3756   0.02445   0.01668  -0.0317   0.5758   0.1328
   1.000   0.4291   0.02237   0.01447  -0.0319   0.5674   0.1634
   1.500   0.4926   0.02029   0.01187  -0.0313   0.5585   0.1084
   2.000   0.5534   0.01804   0.00902  -0.0304   0.5513   0.0688
   2.500   0.6095   0.01717   0.00812  -0.0304   0.5419   0.0671
   3.000   0.6629   0.01668   0.00754  -0.0298   0.5347   0.0708
   3.500   0.7166   0.01650   0.00750  -0.0298   0.5252   0.0840
   4.500   0.8899   0.01550   0.00802  -0.0437   0.5073   1.0000
   5.000   0.9412   0.01601   0.00861  -0.0436   0.4980   1.0000
   5.500   0.9919   0.01637   0.00888  -0.0428   0.4911   1.0000
   6.000   1.0425   0.01683   0.00956  -0.0426   0.4806   1.0000
   6.500   1.0926   0.01643   0.00910  -0.0414   0.4635   1.0000
   7.000   1.1423   0.01628   0.00905  -0.0405   0.4453   1.0000
   7.500   1.1914   0.01597   0.00883  -0.0396   0.4183   1.0000
   8.000   1.2375   0.01611   0.00905  -0.0387   0.3563   1.0000
   8.500   1.2282   0.02259   0.01376  -0.0350   0.0761   1.0000
   9.000   1.2182   0.02720   0.01821  -0.0304   0.0322   1.0000
   9.500   1.2144   0.03171   0.02297  -0.0274   0.0285   1.0000
  10.000   1.2126   0.03687   0.02844  -0.0259   0.0270   1.0000
  10.000   1.2126   0.03687   0.02844  -0.0259   0.0270   1.0000
  10.250   1.2092   0.03985   0.03156  -0.0253   0.0264   1.0000
  10.500   1.2044   0.04303   0.03489  -0.0248   0.0258   1.0000
  10.750   1.1989   0.04633   0.03831  -0.0245   0.0251   1.0000
  11.000   1.1927   0.04973   0.04180  -0.0241   0.0244   1.0000
  11.250   1.1862   0.05316   0.04531  -0.0237   0.0236   1.0000
  11.500   1.1804   0.05649   0.04870  -0.0233   0.0231   1.0000
  11.750   1.1775   0.05950   0.05176  -0.0227   0.0228   1.0000
  12.000   1.1778   0.06202   0.05431  -0.0217   0.0225   1.0000
  12.250   1.1828   0.06381   0.05612  -0.0202   0.0223   1.0000
  12.500   1.1940   0.06466   0.05697  -0.0180   0.0221   1.0000
  12.750   1.2116   0.06485   0.05717  -0.0153   0.0222   1.0000
  13.000   1.2329   0.06495   0.05736  -0.0126   0.0224   1.0000
  13.250   1.2724   0.06405   0.05647  -0.0081   0.0219   1.0000
  13.500   1.2879   0.06561   0.05820  -0.0068   0.0224   1.0000
  13.750   1.0719   0.07062   0.06391  -0.0000   0.0231   1.0000
  14.000   1.0970   0.07055   0.06394   0.0028   0.0229   1.0000
  14.250   1.1202   0.07120   0.06468   0.0053   0.0226   1.0000
  14.500   1.2060   0.07281   0.06707   0.0117   0.0358   1.0000
