
 ===================================================
  XFOIL Version 6.99
  Copyright (C) 2000   Mark Drela, Harold Youngren

  This software comes with ABSOLUTELY NO WARRANTY,
    subject to the GNU General Public License.

  Caveat computor
 ===================================================

 File  xfoil.def  not found

   QUIT    Exit program

  .OPER    Direct operating point(s)
  .MDES    Complex mapping design routine
  .QDES    Surface speed design routine
  .GDES    Geometry design routine

   SAVE f  Write airfoil to labeled coordinate file
   PSAV f  Write airfoil to plain coordinate file
   ISAV f  Write airfoil to ISES coordinate file
   MSAV f  Write airfoil to MSES coordinate file
   REVE    Reverse written-airfoil node ordering

   LOAD f  Read buffer airfoil from coordinate file
   NACA i  Set NACA 4,5-digit airfoil and buffer airfoil
   INTE    Set buffer airfoil by interpolating two airfoils
   NORM    Buffer airfoil normalization toggle
   XYCM rr Change CM reference location, currently  0.25000 0.00000

   BEND    Display structural properties of current airfoil

   PCOP    Set current-airfoil panel nodes directly from buffer airfoil points
   PANE    Set current-airfoil panel nodes ( 160 ) based on curvature
  .PPAR    Show/change paneling

  .PLOP    Plotting options

   WDEF f  Write  current-settings file
   RDEF f  Reread current-settings file
   NAME s  Specify new airfoil name
   NINC    Increment name version number

   Z       Zoom    | (available in all menus)
   U       Unzoom  | 

 XFOIL   c>  
 Labeled airfoil file.  Name:  NACA M24 AIRFOIL                                

 Number of input coordinate points:  33
 Counterclockwise ordering
 Max thickness =     0.119504  at x =   0.301
 Max camber    =     0.062043  at x =   0.301

  LE  x,y  =  -0.00016   0.00201  |   Chord =   1.00017
  TE  x,y  =   1.00000   0.00000  |

 Current airfoil nodes set from buffer airfoil nodes (  33 )

 WARNING: Poor input coordinate distribution
          Excessive panel angle   70.7  at i =  17
          Repaneling with PANE and/or PPAR suggested
           (doing GDES,CADD before repaneling _may_
            improve excessively coarse LE spacing

 XFOIL   c>  
 XFOIL   c>  
 Blunt trailing edge.  Gap =  0.00470

 Paneling parameters used...
   Number of panel nodes       160
   Panel bunching parameter    1.000
   TE/LE panel density ratio   0.150
   Refined-area/LE panel density ratio    0.200
   Top    side refined area x/c limits  1.000 1.000
   Bottom side refined area x/c limits  1.000 1.000

 XFOIL   c>  
.OPERi   c>  
 Xtr/c     =  1.0000    top    side
 Xtr/c     =  1.0000    bottom side
 Ncrit     =    9.00   ( 0.070 % turb. level )
 Vacc      =  0.0100

 Klag  =  5.6000     Uxwt  =    1.00
 A     =  6.7000     B     =  0.7500       KCt = 0.01485
 CtiniK=  1.8000     CtiniX=  3.3000

..VPAR   c>  
..VPAR   c>  
.OPERi   c>  
 M  =    0.0000
 Re =    600000

.OPERv   c>  
.OPERv   c>  
.OPERv   c>  
 Polar  1 newly created for accumulation
 Airfoil archived with polar: NACA M24 AIRFOIL                                

Enter  polar save filename  OR  <return> for no file   s>  
 New polar save file available

Enter  polar dump filename  OR  <return> for no file   s>  
 Polar dump file will NOT be written

 Polar accumulation enabled

.OPERva   c>   Calculating unit vorticity distributions ...
 Calculating wake trajectory ...
 Calculating source influence matrix ...

 Solving BL system ...

 Initializing BL ...
    side            1  ...
 MRCHUE: Inverse mode at  38     Hk =   4.314
 MRCHUE: Inverse mode at  39     Hk =   5.250
 MRCHUE: Inverse mode at  40     Hk =   6.165
 MRCHUE: Inverse mode at  41     Hk =   7.068
 MRCHUE: Inverse mode at  42     Hk =   7.962
 MRCHUE: Inverse mode at  43     Hk =   8.850
 MRCHUE: Inverse mode at  44     Hk =   6.169
 MRCHUE: Inverse mode at  45     Hk =   3.389
    side            2  ...
 MRCHUE: Inverse mode at  22     Hk =   3.904
 MRCHUE: Convergence failed at  23  side 2    Res =  0.1763E+01
 MRCHUE: Convergence failed at  24  side 2    Res =  0.1445E+01
 MRCHUE: Convergence failed at  25  side 2    Res =  0.1118E+01
 MRCHUE: Inverse mode at  26     Hk =   5.872
 MRCHUE: Inverse mode at  27     Hk =   7.795
 MRCHUE: Inverse mode at  28     Hk =   2.500
 MRCHUE: Inverse mode at  88     Hk =   2.500
 MRCHUE: Inverse mode at  89     Hk =   2.500

 MRCHDU: Convergence failed at  23  side 2    Res =  0.1081E+02
 MRCHDU: Convergence failed at  24  side 2    Res =  0.3121E+01
 MRCHDU: Convergence failed at  25  side 2    Res =  0.4528E+01
 MRCHDU: Convergence failed at  26  side 2    Res =  0.7335E+01
 MRCHDU: Convergence failed at  27  side 2    Res =  0.6663E+02
 MRCHDU: Convergence failed at  28  side 2    Res =  0.8461E+01
 MRCHDU: Convergence failed at  29  side 2    Res =  0.5401E+01
 MRCHDU: Convergence failed at  30  side 2    Res =  0.8007E+01
 MRCHDU: Convergence failed at  31  side 2    Res =  0.9045E+01
 MRCHDU: Convergence failed at  32  side 2    Res =  0.1830E+02
 MRCHDU: Convergence failed at  33  side 2    Res =  0.1645E+02
 MRCHDU: Convergence failed at  34  side 2    Res =  0.2098E+02
 MRCHDU: Convergence failed at  35  side 2    Res =  0.4545E+02
 MRCHDU: Convergence failed at  36  side 2    Res =  0.3109E+03
 MRCHDU: Convergence failed at  37  side 2    Res =  0.1662E+02
 MRCHDU: Convergence failed at  38  side 2    Res =  0.2090E+02
 MRCHDU: Convergence failed at  39  side 2    Res =  0.2556E+02
 MRCHDU: Convergence failed at  40  side 2    Res =  0.3030E+02
 MRCHDU: Convergence failed at  41  side 2    Res =  0.3502E+02
 MRCHDU: Convergence failed at  42  side 2    Res =  0.3944E+02
 MRCHDU: Convergence failed at  43  side 2    Res =  0.4355E+02
 MRCHDU: Convergence failed at  44  side 2    Res =  0.4713E+02
 MRCHDU: Convergence failed at  45  side 2    Res =  0.5071E+02
 MRCHDU: Convergence failed at  46  side 2    Res =  0.5413E+02
 MRCHDU: Convergence failed at  47  side 2    Res =  0.5737E+02
 MRCHDU: Convergence failed at  48  side 2    Res =  0.6017E+02
 MRCHDU: Convergence failed at  49  side 2    Res =  0.6211E+02
 MRCHDU: Convergence failed at  50  side 2    Res =  0.6261E+02
 MRCHDU: Convergence failed at  51  side 2    Res =  0.4385E+02
 MRCHDU: Convergence failed at  52  side 2    Res =  0.4715E+02
 MRCHDU: Convergence failed at  53  side 2    Res =  0.5195E+02
 MRCHDU: Convergence failed at  54  side 2    Res =  0.5816E+02
 MRCHDU: Convergence failed at  55  side 2    Res =  0.6638E+02
 MRCHDU: Convergence failed at  56  side 2    Res =  0.7790E+02
 MRCHDU: Convergence failed at  57  side 2    Res =  0.9348E+02
 MRCHDU: Convergence failed at  58  side 2    Res =  0.3340E+02
 MRCHDU: Convergence failed at  59  side 2    Res =  0.3506E+02
 MRCHDU: Convergence failed at  60  side 2    Res =  0.3695E+02
 MRCHDU: Convergence failed at  61  side 2    Res =  0.3878E+02
 MRCHDU: Convergence failed at  62  side 2    Res =  0.4055E+02
 MRCHDU: Convergence failed at  63  side 2    Res =  0.4276E+02
 MRCHDU: Convergence failed at  64  side 2    Res =  0.4434E+02
 MRCHDU: Convergence failed at  65  side 2    Res =  0.4623E+02
 MRCHDU: Convergence failed at  66  side 2    Res =  0.4766E+02
 MRCHDU: Convergence failed at  67  side 2    Res =  0.4958E+02
 MRCHDU: Convergence failed at  68  side 2    Res =  0.5073E+02
 MRCHDU: Convergence failed at  69  side 2    Res =  0.5208E+02
 MRCHDU: Convergence failed at  70  side 2    Res =  0.5281E+02
 MRCHDU: Convergence failed at  71  side 2    Res =  0.5327E+02
 MRCHDU: Convergence failed at  72  side 2    Res =  0.1751E+04
 MRCHDU: Convergence failed at  73  side 2    Res =  0.5729E+03
 MRCHDU: Convergence failed at  74  side 2    Res =  0.3269E+03
 MRCHDU: Convergence failed at  75  side 2    Res =  0.2018E+03
 MRCHDU: Convergence failed at  76  side 2    Res =  0.1377E+03
 MRCHDU: Convergence failed at  77  side 2    Res =  0.9839E+02
 MRCHDU: Convergence failed at  78  side 2    Res =  0.7472E+02
 MRCHDU: Convergence failed at  79  side 2    Res =  0.5806E+02
 MRCHDU: Convergence failed at  80  side 2    Res =  0.4664E+02
 MRCHDU: Convergence failed at  81  side 2    Res =  0.5805E+02
 MRCHDU: Convergence failed at  82  side 2    Res =  0.8079E+02
 MRCHDU: Convergence failed at  83  side 2    Res =  0.1526E+03
 MRCHDU: Convergence failed at  84  side 2    Res =  0.1491E+02
 MRCHDU: Convergence failed at  85  side 2    Res =  0.4559E+03
 MRCHDU: Convergence failed at  86  side 2    Res =  0.4853E+03
 MRCHDU: Convergence failed at  87  side 2    Res =  0.2057E+03
 MRCHDU: Convergence failed at  88  side 2    Res =  0.2534E+02
 MRCHDU: Convergence failed at  89  side 2    Res =  0.1715E+02
 Side 1  free  transition at x/c =  0.5440   44
 Side 2  free  transition at x/c =  0.0458   28

   1   rms: 0.1732E+01   max: -.1524E+01   U at   89  2   RLX: 0.246
       a = -4.000      CL = -3.3077
      Cm =  0.8293     CD =  0.00500   =>   CDf =  0.00371    CDp =  0.00129

 Side 1  free  transition at x/c =  0.5482   44
 Side 2  free  transition at x/c =  0.0443   28

   2   rms: 0.2242E+01   max: 0.3165E+02   C at   28  2   RLX: 0.033
       a = -4.000      CL = -3.1389
      Cm =  0.7857     CD =  0.00689   =>   CDf =  0.01945    CDp = -0.01255

 Side 1  free  transition at x/c =  0.5487   44
 Side 2  free  transition at x/c =  0.0386   27

   3   rms: 0.1256E+01   max: -.1110E+01   U at   89  2   RLX: 0.169
       a = -4.000      CL = -2.5073
      Cm =  0.6150     CD =  0.00716   =>   CDf =  0.01889    CDp = -0.01173

 MRCHDU: Convergence failed at  27  side 2    Res =  0.8236E+01
 MRCHDU: Convergence failed at  28  side 2    Res =  0.1210E+02
 Side 1  free  transition at x/c =  0.5513   44
 Side 2  free  transition at x/c =  0.0340   26

   4   rms: 0.1109E+01   max: 0.4456E+01   D at   29  2   RLX: 0.213
       a = -4.000      CL = -1.9167
      Cm =  0.4468     CD =  0.00771   =>   CDf =  0.01629    CDp = -0.00857

 Side 1  free  transition at x/c =  0.5538   44
 Side 2  free  transition at x/c =  0.0330   26

   5   rms: 0.8734E+00   max: -.7123E+00   U at   89  2   RLX: 0.281
       a = -4.000      CL = -1.3267
      Cm =  0.2948     CD =  0.01050   =>   CDf =  0.01384    CDp = -0.00334

 Side 1  free  transition at x/c =  0.5575   45
 Side 2  free  transition at x/c =  0.0336   26

   6   rms: 0.7131E+00   max: 0.7303E+00   D at  109  2   RLX: 0.418
       a = -4.000      CL = -0.7768
      Cm =  0.1494     CD =  0.01412   =>   CDf =  0.01153    CDp =  0.00259

 MRCHDU: Convergence failed at  26  side 2    Res =  0.1545E+02
 MRCHDU: Convergence failed at  27  side 2    Res =  0.1609E+02
 MRCHDU: Convergence failed at  28  side 2    Res =  0.2072E+02
 MRCHDU: Convergence failed at  29  side 2    Res =  0.2440E+02
 MRCHDU: Convergence failed at  30  side 2    Res =  0.4888E+02
 MRCHDU: Convergence failed at  31  side 2    Res =  0.1230E+03
 MRCHDU: Convergence failed at  32  side 2    Res =  0.2563E+03
 MRCHDU: Convergence failed at  33  side 2    Res =  0.8943E+02
 MRCHDU: Convergence failed at  34  side 2    Res =  0.6952E+02
 MRCHDU: Convergence failed at  35  side 2    Res =  0.6524E+02
 MRCHDU: Convergence failed at  36  side 2    Res =  0.7378E+02
 MRCHDU: Convergence failed at  37  side 2    Res =  0.7440E+02
 MRCHDU: Convergence failed at  38  side 2    Res =  0.7550E+02
 MRCHDU: Convergence failed at  39  side 2    Res =  0.7576E+02
 MRCHDU: Convergence failed at  40  side 2    Res =  0.7561E+02
 MRCHDU: Convergence failed at  41  side 2    Res =  0.7515E+02
 MRCHDU: Convergence failed at  42  side 2    Res =  0.7443E+02
 MRCHDU: Convergence failed at  43  side 2    Res =  0.7362E+02
 MRCHDU: Convergence failed at  44  side 2    Res =  0.7428E+02
 MRCHDU: Convergence failed at  45  side 2    Res =  0.7519E+02
 MRCHDU: Convergence failed at  46  side 2    Res =  0.8374E+02
 MRCHDU: Convergence failed at  47  side 2    Res =  0.7830E+02
 MRCHDU: Convergence failed at  48  side 2    Res =  0.7888E+02
 MRCHDU: Convergence failed at  49  side 2    Res =  0.7926E+02
 MRCHDU: Convergence failed at  50  side 2    Res =  0.9711E+02
 MRCHDU: Convergence failed at  51  side 2    Res =  0.1002E+03
 MRCHDU: Convergence failed at  52  side 2    Res =  0.1036E+03
 MRCHDU: Convergence failed at  53  side 2    Res =  0.1071E+03
 MRCHDU: Convergence failed at  54  side 2    Res =  0.1109E+03
 MRCHDU: Convergence failed at  55  side 2    Res =  0.1147E+03
 MRCHDU: Convergence failed at  56  side 2    Res =  0.1187E+03
 MRCHDU: Convergence failed at  57  side 2    Res =  0.1226E+03
 MRCHDU: Convergence failed at  58  side 2    Res =  0.1265E+03
 MRCHDU: Convergence failed at  59  side 2    Res =  0.1302E+03
 MRCHDU: Convergence failed at  60  side 2    Res =  0.1338E+03
 MRCHDU: Convergence failed at  61  side 2    Res =  0.1370E+03
 MRCHDU: Convergence failed at  62  side 2    Res =  0.1398E+03
 MRCHDU: Convergence failed at  63  side 2    Res =  0.1424E+03
 MRCHDU: Convergence failed at  64  side 2    Res =  0.1444E+03
 MRCHDU: Convergence failed at  65  side 2    Res =  0.1462E+03
 MRCHDU: Convergence failed at  66  side 2    Res =  0.1470E+03
 MRCHDU: Convergence failed at  67  side 2    Res =  0.1477E+03
 MRCHDU: Convergence failed at  68  side 2    Res =  0.1478E+03
 MRCHDU: Convergence failed at  69  side 2    Res =  0.1474E+03
 MRCHDU: Convergence failed at  70  side 2    Res =  0.1462E+03
 MRCHDU: Convergence failed at  71  side 2    Res =  0.1444E+03
 MRCHDU: Convergence failed at  72  side 2    Res =  0.1418E+03
 MRCHDU: Convergence failed at  73  side 2    Res =  0.1384E+03
 MRCHDU: Convergence failed at  74  side 2    Res =  0.1342E+03
 MRCHDU: Convergence failed at  75  side 2    Res =  0.1295E+03
 MRCHDU: Convergence failed at  76  side 2    Res =  0.1243E+03
 MRCHDU: Convergence failed at  77  side 2    Res =  0.1186E+03
 MRCHDU: Convergence failed at  78  side 2    Res =  0.1127E+03
 MRCHDU: Convergence failed at  79  side 2    Res =  0.1064E+03
 MRCHDU: Convergence failed at  80  side 2    Res =  0.2707E+03
 MRCHDU: Convergence failed at  81  side 2    Res =  0.2299E+03
 MRCHDU: Convergence failed at  82  side 2    Res =  0.7636E+02
 MRCHDU: Convergence failed at  83  side 2    Res =  0.8168E+02
 MRCHDU: Convergence failed at  84  side 2    Res =  0.8863E+02
 MRCHDU: Convergence failed at  85  side 2    Res =  0.1002E+03
 MRCHDU: Convergence failed at  86  side 2    Res =  0.1362E+03
 MRCHDU: Convergence failed at  87  side 2    Res =  0.1574E+03
 MRCHDU: Convergence failed at  88  side 2    Res =  0.1874E+03
 Side 1  free  transition at x/c =  0.5617   46
 Side 2  free  transition at x/c =  0.0360   26

   7   rms: 0.2020E+01   max: 0.5085E+01   D at   91  2   RLX: 0.109
       a = -4.000      CL = -2.8001
      Cm =  0.7247     CD =  0.00507   =>   CDf =  0.00280    CDp =  0.00227

 Side 1  free  transition at x/c =  0.5619   46
 Side 2  free  transition at x/c =  0.0396   26
 idif Ue xi dudx           1  0.12613091      4.16982174E-03   30.248514    
 Uenew xinew           2  1.62482038E-02  5.37157059E-04

   8   rms: 0.1177E+01   max: 0.5900E+01   D at   98  2   RLX: 0.110
       a = -4.000      CL = -2.0830
      Cm =  0.4860     CD =  0.06890   =>   CDf =  0.00337    CDp =  0.06553

 Side 1  free  transition at x/c =  0.5696   45
 Side 2  free  transition at x/c =  0.0382   27

   9   rms: 0.8508E+00   max: 0.1926E+01   D at   96  2   RLX: 0.284
       a = -4.000      CL = -1.5551
      Cm =  0.3534     CD =  0.07324   =>   CDf =  0.00366    CDp =  0.06958

 MRCHDU: Convergence failed at 102  side 2    Res =  0.9245E+00
 MRCHDU: Convergence failed at 103  side 2    Res =  0.1601E+01
 MRCHDU: Convergence failed at 104  side 2    Res =  0.1423E+02
 Side 1  free  transition at x/c =  0.5782   47
 Side 2  free  transition at x/c =  0.0362   26

  10   rms: 0.8224E+00   max: -.1640E+01   C at   99  2   RLX: 0.305
       a = -4.000      CL = -1.0277
      Cm =  0.2296     CD =  0.08126   =>   CDf =  0.00372    CDp =  0.07754

 Side 1  free  transition at x/c =  0.5756   48
 Side 2  free  transition at x/c =  0.0352   25

  11   rms: 0.6587E+00   max: -.3444E+01   D at    2  1   RLX: 0.145
       a = -4.000      CL = -0.8577
      Cm =  0.1884     CD =  0.12378   =>   CDf =  0.00375    CDp =  0.12003

 Side 1  free  transition at x/c =  0.5743   48
 Side 2  free  transition at x/c =  0.0349   25

  12   rms: 0.5479E+00   max: 0.1389E+01   T at   25  2   RLX: 0.366
       a = -4.000      CL = -0.4952
      Cm =  0.1004     CD =  0.08804   =>   CDf =  0.00378    CDp =  0.08425

 Side 1  free  transition at x/c =  0.5718   48
 Side 2  free  transition at x/c =  0.0344   25

  13   rms: 0.4282E+00   max: -.1113E+01   C at  103  2   RLX: 0.449
       a = -4.000      CL = -0.2633
      Cm =  0.0381     CD =  0.08647   =>   CDf =  0.00384    CDp =  0.08263

 Side 1  free  transition at x/c =  0.5702   47
 Side 2  free  transition at x/c =  0.0343   25
 idif Ue xi dudx           1  0.12312508      3.38351727E-03   36.389671    
 Uenew xinew           2  9.76914633E-03  2.68459320E-04

  14   rms: 0.6309E+00   max: 0.2296E+01   T at   25  2   RLX: 0.403
       a = -4.000      CL = -0.2407
      Cm = -0.0022     CD =  0.12068   =>   CDf =  0.00375    CDp =  0.11693

 MRCHDU: Convergence failed at  41  side 2    Res =  0.3989E+01
 MRCHDU: Convergence failed at  42  side 2    Res =  0.1533E-01
 MRCHDU: Convergence failed at  65  side 2    Res =  0.7495E-01
 MRCHDU: Convergence failed at  67  side 2    Res =  0.7424E-01
 Side 1  free  transition at x/c =  0.5746   47
 Side 2  free  transition at x/c =  0.0342   25

  15   rms: 0.4468E+00   max: 0.1509E+01   D at   33  2   RLX: 0.586
       a = -4.000      CL = -0.0718
      Cm = -0.0435     CD =  0.03042   =>   CDf =  0.00727    CDp =  0.02315

 Side 1  free  transition at x/c =  0.5688   47
 Side 2  free  transition at x/c =  0.0342   24

  16   rms: 0.6355E+00   max: 0.1936E+01   D at   41  2   RLX: 0.549
       a = -4.000      CL = -0.0882
      Cm = -0.0330     CD =  0.03861   =>   CDf =  0.00586    CDp =  0.03276

 Side 1  free  transition at x/c =  0.5658   47
 Side 2  free  transition at x/c =  0.0340   24

  17   rms: 0.8617E+00   max: 0.2749E+01   D at   37  2   RLX: 0.546
       a = -4.000      CL = -0.0774
      Cm = -0.0325     CD =  0.04732   =>   CDf =  0.00540    CDp =  0.04192

 Side 1  free  transition at x/c =  0.5623   47
 Side 2  free  transition at x/c =  0.0309   24

  18   rms: 0.3965E+00   max: 0.3451E+01   D at   32  2   RLX: 0.396
       a = -4.000      CL = -0.0683
      Cm = -0.0289     CD =  0.02698   =>   CDf =  0.00546    CDp =  0.02153

 MRCHDU: Convergence failed at  34  side 2    Res =  0.1016E+01
 MRCHDU: Convergence failed at  35  side 2    Res =  0.1936E+01
 MRCHDU: Convergence failed at  36  side 2    Res =  0.1816E+01
 MRCHDU: Convergence failed at  37  side 2    Res =  0.7315E+01
 MRCHDU: Convergence failed at  38  side 2    Res =  0.1037E+02
 MRCHDU: Convergence failed at  39  side 2    Res =  0.4334E+02
 MRCHDU: Convergence failed at  40  side 2    Res =  0.5365E+02
 MRCHDU: Convergence failed at  41  side 2    Res =  0.4135E+01
 MRCHDU: Convergence failed at  42  side 2    Res =  0.1150E+02
 MRCHDU: Convergence failed at  43  side 2    Res =  0.3614E+01
 MRCHDU: Convergence failed at  44  side 2    Res =  0.4013E+01
 MRCHDU: Convergence failed at  45  side 2    Res =  0.3080E+01
 MRCHDU: Convergence failed at  46  side 2    Res =  0.2880E+01
 MRCHDU: Convergence failed at  47  side 2    Res =  0.2641E+01
 MRCHDU: Convergence failed at  48  side 2    Res =  0.2438E+01
 MRCHDU: Convergence failed at  49  side 2    Res =  0.2272E+01
 MRCHDU: Convergence failed at  50  side 2    Res =  0.2074E+01
 MRCHDU: Convergence failed at  51  side 2    Res =  0.1910E+01
 MRCHDU: Convergence failed at  52  side 2    Res =  0.1758E+01
 MRCHDU: Convergence failed at  53  side 2    Res =  0.1666E+01
 MRCHDU: Convergence failed at  54  side 2    Res =  0.1529E+01
 MRCHDU: Convergence failed at  55  side 2    Res =  0.1427E+01
 MRCHDU: Convergence failed at  56  side 2    Res =  0.1354E+01
 MRCHDU: Convergence failed at  57  side 2    Res =  0.1300E+01
 MRCHDU: Convergence failed at  58  side 2    Res =  0.1795E+01
 MRCHDU: Convergence failed at  59  side 2    Res =  0.1930E+01
 MRCHDU: Convergence failed at  60  side 2    Res =  0.2104E+01
 MRCHDU: Convergence failed at  61  side 2    Res =  0.2252E+01
 MRCHDU: Convergence failed at  62  side 2    Res =  0.2527E+01
 MRCHDU: Convergence failed at  63  side 2    Res =  0.2874E+01
 MRCHDU: Convergence failed at  64  side 2    Res =  0.3221E+01
 MRCHDU: Convergence failed at  65  side 2    Res =  0.3750E+01
 MRCHDU: Convergence failed at  66  side 2    Res =  0.4209E+01
 MRCHDU: Convergence failed at  67  side 2    Res =  0.4987E+01
 MRCHDU: Convergence failed at  68  side 2    Res =  0.5669E+01
 MRCHDU: Convergence failed at  69  side 2    Res =  0.6695E+01
 MRCHDU: Convergence failed at  70  side 2    Res =  0.7682E+01
 MRCHDU: Convergence failed at  71  side 2    Res =  0.9183E+01
 MRCHDU: Convergence failed at  72  side 2    Res =  0.1029E+02
 MRCHDU: Convergence failed at  73  side 2    Res =  0.1101E+02
 MRCHDU: Convergence failed at  74  side 2    Res =  0.1102E+02
 MRCHDU: Convergence failed at  75  side 2    Res =  0.1040E+02
 MRCHDU: Convergence failed at  76  side 2    Res =  0.9427E+01
 MRCHDU: Convergence failed at  77  side 2    Res =  0.8217E+01
 MRCHDU: Convergence failed at  78  side 2    Res =  0.6035E+01
 MRCHDU: Convergence failed at  79  side 2    Res =  0.5158E+01
 MRCHDU: Convergence failed at  80  side 2    Res =  0.4402E+01
 MRCHDU: Convergence failed at  81  side 2    Res =  0.3708E+01
 MRCHDU: Convergence failed at  82  side 2    Res =  0.3215E+01
 MRCHDU: Convergence failed at  83  side 2    Res =  0.2594E+01
 MRCHDU: Convergence failed at  84  side 2    Res =  0.2327E+01
 MRCHDU: Convergence failed at  85  side 2    Res =  0.2579E+01
 MRCHDU: Convergence failed at  86  side 2    Res =  0.2910E+01
 MRCHDU: Convergence failed at  87  side 2    Res =  0.3296E+01
 Side 1  free  transition at x/c =  0.5639   47
 Side 2  free  transition at x/c =  0.0320   24

  19   rms: 0.4379E+00   max: 0.1679E+01   D at   33  2   RLX: 0.826
       a = -4.000      CL = -0.1472
      Cm =  0.0002     CD =  0.02643   =>   CDf =  0.00517    CDp =  0.02126

 MRCHDU: Convergence failed at  33  side 2    Res =  0.1435E+01
 MRCHDU: Convergence failed at  34  side 2    Res =  0.2736E+01
 MRCHDU: Convergence failed at  35  side 2    Res =  0.5011E+01
 MRCHDU: Convergence failed at  36  side 2    Res =  0.1065E+02
 MRCHDU: Convergence failed at  37  side 2    Res =  0.2522E+02
 MRCHDU: Convergence failed at  38  side 2    Res =  0.1608E+03
 MRCHDU: Convergence failed at  39  side 2    Res =  0.3650E+02
 MRCHDU: Convergence failed at  40  side 2    Res =  0.2242E+02
 MRCHDU: Convergence failed at  41  side 2    Res =  0.1730E+02
 MRCHDU: Convergence failed at  42  side 2    Res =  0.1460E+02
 MRCHDU: Convergence failed at  43  side 2    Res =  0.1289E+02
 MRCHDU: Convergence failed at  44  side 2    Res =  0.1169E+02
 MRCHDU: Convergence failed at  45  side 2    Res =  0.1076E+02
 MRCHDU: Convergence failed at  46  side 2    Res =  0.9992E+01
 MRCHDU: Convergence failed at  47  side 2    Res =  0.8220E+01
 MRCHDU: Convergence failed at  48  side 2    Res =  0.5374E+01
 MRCHDU: Convergence failed at  49  side 2    Res =  0.5148E+01
 MRCHDU: Convergence failed at  50  side 2    Res =  0.4914E+01
 MRCHDU: Convergence failed at  51  side 2    Res =  0.4683E+01
 MRCHDU: Convergence failed at  52  side 2    Res =  0.4459E+01
 MRCHDU: Convergence failed at  53  side 2    Res =  0.4247E+01
 MRCHDU: Convergence failed at  54  side 2    Res =  0.3881E+01
 MRCHDU: Convergence failed at  55  side 2    Res =  0.3703E+01
 MRCHDU: Convergence failed at  56  side 2    Res =  0.3543E+01
 MRCHDU: Convergence failed at  57  side 2    Res =  0.3323E+01
 MRCHDU: Convergence failed at  58  side 2    Res =  0.3194E+01
 MRCHDU: Convergence failed at  59  side 2    Res =  0.3077E+01
 MRCHDU: Convergence failed at  60  side 2    Res =  0.2974E+01
 MRCHDU: Convergence failed at  61  side 2    Res =  0.2882E+01
 MRCHDU: Convergence failed at  62  side 2    Res =  0.2737E+01
 MRCHDU: Convergence failed at  63  side 2    Res =  0.2666E+01
 MRCHDU: Convergence failed at  64  side 2    Res =  0.2606E+01
 MRCHDU: Convergence failed at  65  side 2    Res =  0.2559E+01
 MRCHDU: Convergence failed at  66  side 2    Res =  0.2519E+01
 MRCHDU: Convergence failed at  67  side 2    Res =  0.2485E+01
 MRCHDU: Convergence failed at  68  side 2    Res =  0.2465E+01
 MRCHDU: Convergence failed at  69  side 2    Res =  0.2450E+01
 MRCHDU: Convergence failed at  70  side 2    Res =  0.2133E+01
 MRCHDU: Convergence failed at  71  side 2    Res =  0.2162E+01
 MRCHDU: Convergence failed at  72  side 2    Res =  0.2187E+01
 MRCHDU: Convergence failed at  73  side 2    Res =  0.2204E+01
 MRCHDU: Convergence failed at  74  side 2    Res =  0.2215E+01
 MRCHDU: Convergence failed at  75  side 2    Res =  0.2618E+01
 MRCHDU: Convergence failed at  76  side 2    Res =  0.2701E+01
 MRCHDU: Convergence failed at  77  side 2    Res =  0.2800E+01
 MRCHDU: Convergence failed at  78  side 2    Res =  0.2926E+01
 MRCHDU: Convergence failed at  79  side 2    Res =  0.3080E+01
 MRCHDU: Convergence failed at  80  side 2    Res =  0.4027E+01
 MRCHDU: Convergence failed at  81  side 2    Res =  0.4399E+01
 MRCHDU: Convergence failed at  82  side 2    Res =  0.5195E+01
 MRCHDU: Convergence failed at  83  side 2    Res =  0.5915E+01
 MRCHDU: Convergence failed at  84  side 2    Res =  0.6848E+01
 MRCHDU: Convergence failed at  85  side 2    Res =  0.9720E+01
 MRCHDU: Convergence failed at  86  side 2    Res =  0.1179E+02
 MRCHDU: Convergence failed at  87  side 2    Res =  0.1448E+02
 Side 1  free  transition at x/c =  0.5638   47
 Side 2  free  transition at x/c =  0.0340   24

  20   rms: 0.9634E+00   max: -.5301E+01   T at   25  2   RLX: 0.094
       a = -4.000      CL = -0.5854
      Cm =  0.1312     CD =  0.03066   =>   CDf =  0.00350    CDp =  0.02716

 Side 1  free  transition at x/c =  0.5641   47
 Side 2  free  transition at x/c =  0.0330   24

  21   rms: 0.4408E+00   max: 0.2229E+01   T at   24  2   RLX: 0.268
       a = -4.000      CL = -0.4639
      Cm =  0.0858     CD =  0.02197   =>   CDf =  0.00727    CDp =  0.01470

 Side 1  free  transition at x/c =  0.5645   47
 Side 2  free  transition at x/c =  0.0313   24

  22   rms: 0.3115E+00   max: 0.6930E+00   D at   90  2   RLX: 0.991
       a = -4.000      CL = -0.1375
      Cm = -0.0206     CD =  0.03791   =>   CDf =  0.00577    CDp =  0.03214

 Side 1  free  transition at x/c =  0.5639   47
 Side 2  free  transition at x/c =  0.0298   24

  23   rms: 0.7047E-01   max: -.3918E+00   T at   24  2
       a = -4.000      CL = -0.0904
      Cm = -0.0268     CD =  0.04542   =>   CDf =  0.00415    CDp =  0.04128

 Side 1  free  transition at x/c =  0.5622   47
 Side 2  free  transition at x/c =  0.0308   24

  24   rms: 0.3057E-01   max: -.1514E+00   D at   24  2
       a = -4.000      CL = -0.0844
      Cm = -0.0286     CD =  0.04434   =>   CDf =  0.00416    CDp =  0.04018

 Side 1  free  transition at x/c =  0.5623   47
 Side 2  free  transition at x/c =  0.0313   24

  25   rms: 0.4437E-02   max: -.3336E-01   T at   24  2
       a = -4.000      CL = -0.0829
      Cm = -0.0289     CD =  0.04428   =>   CDf =  0.00423    CDp =  0.04005

 Side 1  free  transition at x/c =  0.5623   47
 Side 2  free  transition at x/c =  0.0314   24

  26   rms: 0.3371E-03   max: -.1475E-02   D at   48  2
       a = -4.000      CL = -0.0829
      Cm = -0.0289     CD =  0.04430   =>   CDf =  0.00424    CDp =  0.04006

 Side 1  free  transition at x/c =  0.5623   47
 Side 2  free  transition at x/c =  0.0314   24

  27   rms: 0.8975E-05   max: -.5513E-04   D at   49  2
       a = -4.000      CL = -0.0829
      Cm = -0.0289     CD =  0.04430   =>   CDf =  0.00424    CDp =  0.04006
 plradd ia,ip,cpol            1           0  6.48935884E-03

 Point added to stored polar  1
 Point written to save file  m24_Re600k.base.pol                             
 Dump file unspecified or not available
 Calculating wake trajectory ...
 Calculating source influence matrix ...

 Solving BL system ...

 Side 1  free  transition at x/c =  0.5623   47
 Side 2  free  transition at x/c =  0.0314   24

   1   rms: 0.8196E-01   max: -.6656E+00   T at   24  2   RLX: 0.751
       a = -3.500      CL = -0.0490
      Cm = -0.0292     CD =  0.04056   =>   CDf =  0.00424    CDp =  0.03631

 Side 1  free  transition at x/c =  0.5564   47
 Side 2  free  transition at x/c =  0.0332   24

   2   rms: 0.3059E+00   max: -.2706E+01   T at   24  2   RLX: 0.185
       a = -3.500      CL = -0.0528
      Cm = -0.0291     CD =  0.04410   =>   CDf =  0.00429    CDp =  0.03981

 Side 1  free  transition at x/c =  0.5562   47
 Side 2  free  transition at x/c =  0.0327   24

   3   rms: 0.9594E-01   max: -.4731E+00   D at   24  2
       a = -3.500      CL = -0.0302
      Cm = -0.0294     CD =  0.04139   =>   CDf =  0.00469    CDp =  0.03670

 Side 1  free  transition at x/c =  0.5547   48
 Side 2  free  transition at x/c =  0.0339   23

   4   rms: 0.1241E+00   max: -.8947E+00   T at   24  2   RLX: 0.559
       a = -3.500      CL = -0.0389
      Cm = -0.0284     CD =  0.04185   =>   CDf =  0.00445    CDp =  0.03740

 Side 1  free  transition at x/c =  0.5547   48
 Side 2  free  transition at x/c =  0.0330   23

   5   rms: 0.1485E+00   max: -.9257E+00   T at   23  2   RLX: 0.540
       a = -3.500      CL = -0.0463
      Cm = -0.0283     CD =  0.04369   =>   CDf =  0.00421    CDp =  0.03948

 Side 1  free  transition at x/c =  0.5549   48
 Side 2  free  transition at x/c =  0.0331   23

   6   rms: 0.3768E-01   max: -.3953E+00   D at   23  2
       a = -3.500      CL = -0.0305
      Cm = -0.0292     CD =  0.03990   =>   CDf =  0.00449    CDp =  0.03541

 Side 1  free  transition at x/c =  0.5548   48
 Side 2  free  transition at x/c =  0.0339   23
 idif Ue xi dudx           1  0.13887578      3.28052044E-03   42.333462    
 Uenew xinew           2  2.37389337E-02  5.60760498E-04

   7   rms: 0.1632E+00   max: -.5868E+00   T at   23  2   RLX: 0.852
       a = -3.500      CL = -0.0184
      Cm = -0.0297     CD =  0.04008   =>   CDf =  0.00439    CDp =  0.03569

 Side 1  free  transition at x/c =  0.5553   47
 Side 2  free  transition at x/c =  0.0331   24

   8   rms: 0.7647E+00   max: 0.3085E+01   D at   30  2   RLX: 0.486
       a = -3.500      CL = -0.0353
      Cm = -0.0271     CD =  0.02383   =>   CDf =  0.00696    CDp =  0.01687

 MRCHDU: Convergence failed at  30  side 2    Res =  0.2594E+01
 MRCHDU: Convergence failed at  31  side 2    Res =  0.1433E+01
 MRCHDU: Convergence failed at  32  side 2    Res =  0.4059E+01
 MRCHDU: Convergence failed at  33  side 2    Res =  0.4340E+02
 MRCHDU: Convergence failed at  34  side 2    Res =  0.5536E+01
 MRCHDU: Convergence failed at  35  side 2    Res =  0.4045E+01
 MRCHDU: Convergence failed at  36  side 2    Res =  0.3768E+01
 MRCHDU: Convergence failed at  37  side 2    Res =  0.3827E+01
 MRCHDU: Convergence failed at  38  side 2    Res =  0.4017E+01
 MRCHDU: Convergence failed at  39  side 2    Res =  0.4270E+01
 MRCHDU: Convergence failed at  40  side 2    Res =  0.4565E+01
 MRCHDU: Convergence failed at  41  side 2    Res =  0.4891E+01
 MRCHDU: Convergence failed at  42  side 2    Res =  0.5247E+01
 MRCHDU: Convergence failed at  43  side 2    Res =  0.5631E+01
 MRCHDU: Convergence failed at  44  side 2    Res =  0.6011E+01
 MRCHDU: Convergence failed at  45  side 2    Res =  0.6230E+01
 MRCHDU: Convergence failed at  46  side 2    Res =  0.6271E+01
 MRCHDU: Convergence failed at  47  side 2    Res =  0.6097E+01
 MRCHDU: Convergence failed at  48  side 2    Res =  0.6118E+01
 MRCHDU: Convergence failed at  49  side 2    Res =  0.5904E+01
 MRCHDU: Convergence failed at  50  side 2    Res =  0.5840E+01
 MRCHDU: Convergence failed at  51  side 2    Res =  0.5467E+01
 MRCHDU: Convergence failed at  52  side 2    Res =  0.5328E+01
 MRCHDU: Convergence failed at  53  side 2    Res =  0.5162E+01
 MRCHDU: Convergence failed at  54  side 2    Res =  0.3897E+01
 MRCHDU: Convergence failed at  55  side 2    Res =  0.4218E+01
 MRCHDU: Convergence failed at  56  side 2    Res =  0.4603E+01
 MRCHDU: Convergence failed at  57  side 2    Res =  0.5566E+01
 MRCHDU: Convergence failed at  58  side 2    Res =  0.7136E+01
 MRCHDU: Convergence failed at  59  side 2    Res =  0.9771E+01
 MRCHDU: Convergence failed at  60  side 2    Res =  0.1202E+02
 MRCHDU: Convergence failed at  61  side 2    Res =  0.1537E+02
 MRCHDU: Convergence failed at  62  side 2    Res =  0.3177E+02
 MRCHDU: Convergence failed at  63  side 2    Res =  0.6390E+02
 MRCHDU: Convergence failed at  64  side 2    Res =  0.3901E+02
 MRCHDU: Convergence failed at  65  side 2    Res =  0.1552E+02
 MRCHDU: Convergence failed at  66  side 2    Res =  0.1308E+02
 MRCHDU: Convergence failed at  67  side 2    Res =  0.1147E+02
 MRCHDU: Convergence failed at  68  side 2    Res =  0.1041E+02
 MRCHDU: Convergence failed at  69  side 2    Res =  0.9717E+01
 MRCHDU: Convergence failed at  70  side 2    Res =  0.9270E+01
 MRCHDU: Convergence failed at  71  side 2    Res =  0.9051E+01
 MRCHDU: Convergence failed at  72  side 2    Res =  0.9051E+01
 MRCHDU: Convergence failed at  73  side 2    Res =  0.9299E+01
 MRCHDU: Convergence failed at  74  side 2    Res =  0.9807E+01
 MRCHDU: Convergence failed at  75  side 2    Res =  0.1068E+02
 MRCHDU: Convergence failed at  76  side 2    Res =  0.1213E+02
 MRCHDU: Convergence failed at  77  side 2    Res =  0.2233E+02
 MRCHDU: Convergence failed at  78  side 2    Res =  0.3615E+03
 MRCHDU: Convergence failed at  79  side 2    Res =  0.3224E+02
 MRCHDU: Convergence failed at  80  side 2    Res =  0.1934E+02
 MRCHDU: Convergence failed at  81  side 2    Res =  0.7787E+01
 MRCHDU: Convergence failed at  82  side 2    Res =  0.6543E+01
 MRCHDU: Convergence failed at  83  side 2    Res =  0.4282E+01
 MRCHDU: Convergence failed at  84  side 2    Res =  0.7020E+01
 MRCHDU: Convergence failed at  85  side 2    Res =  0.9266E+01
 MRCHDU: Convergence failed at  86  side 2    Res =  0.1215E+02
 MRCHDU: Convergence failed at  87  side 2    Res =  0.1155E+02
 Side 1  free  transition at x/c =  0.5565   47
 Side 2  free  transition at x/c =  0.0337   24

   9   rms: 0.4478E+00   max: 0.8237E+00   D at   95  2
       a = -3.500      CL =  0.0569
      Cm = -0.0375     CD =  0.02507   =>   CDf =  0.00375    CDp =  0.02132

 Side 1  free  transition at x/c =  0.5545   48
 Side 2  free  transition at x/c =  0.0343   24
 idif Ue xi dudx           1  0.14090295      3.35025787E-03   42.057346    
 Uenew xinew           2  2.65170708E-02  6.30497932E-04

  10   rms: 0.1070E+00   max: -.4361E+00   D at   49  2
       a = -3.500      CL = -0.0405
      Cm = -0.0266     CD =  0.03768   =>   CDf =  0.00491    CDp =  0.03277

 MRCHDU: Convergence failed at  47  side 2    Res =  0.1120E+02
 MRCHDU: Convergence failed at  48  side 2    Res =  0.2921E+01
 MRCHDU: Convergence failed at  49  side 2    Res =  0.2036E+01
 MRCHDU: Convergence failed at  50  side 2    Res =  0.1676E+01
 MRCHDU: Convergence failed at  51  side 2    Res =  0.1508E+01
 MRCHDU: Convergence failed at  52  side 2    Res =  0.1333E+01
 MRCHDU: Convergence failed at  53  side 2    Res =  0.1069E+01
 MRCHDU: Convergence failed at  54  side 2    Res =  0.1342E+01
 MRCHDU: Convergence failed at  55  side 2    Res =  0.1667E+01
 MRCHDU: Convergence failed at  56  side 2    Res =  0.2432E+01
 MRCHDU: Convergence failed at  57  side 2    Res =  0.3905E+01
 MRCHDU: Convergence failed at  58  side 2    Res =  0.8125E+01
 MRCHDU: Convergence failed at  59  side 2    Res =  0.7119E+02
 MRCHDU: Convergence failed at  60  side 2    Res =  0.7004E+01
 MRCHDU: Convergence failed at  61  side 2    Res =  0.2942E+01
 MRCHDU: Convergence failed at  62  side 2    Res =  0.2251E+01
 MRCHDU: Convergence failed at  86  side 2    Res =  0.1725E+01
 MRCHDU: Convergence failed at  87  side 2    Res =  0.1925E+01
 Side 1  free  transition at x/c =  0.5558   47
 Side 2  free  transition at x/c =  0.0342   25

  11   rms: 0.2928E+00   max: -.8831E+00   D at   72  2   RLX: 0.566
       a = -3.500      CL = -0.0603
      Cm = -0.0302     CD =  0.05392   =>   CDf =  0.00365    CDp =  0.05027

 Side 1  free  transition at x/c =  0.5550   47
 Side 2  free  transition at x/c =  0.0342   24

  12   rms: 0.4800E+00   max: 0.1824E+01   D at   30  2   RLX: 0.822
       a = -3.500      CL = -0.0596
      Cm = -0.0237     CD =  0.02472   =>   CDf =  0.00741    CDp =  0.01731

 MRCHDU: Convergence failed at  29  side 2    Res =  0.3695E+01
 MRCHDU: Convergence failed at  30  side 2    Res =  0.1123E+01
 MRCHDU: Convergence failed at  31  side 2    Res =  0.2636E+01
 MRCHDU: Convergence failed at  32  side 2    Res =  0.1022E+02
 MRCHDU: Convergence failed at  33  side 2    Res =  0.1363E+02
 MRCHDU: Convergence failed at  34  side 2    Res =  0.5947E+01
 MRCHDU: Convergence failed at  35  side 2    Res =  0.5074E+01
 MRCHDU: Convergence failed at  36  side 2    Res =  0.5247E+01
 MRCHDU: Convergence failed at  37  side 2    Res =  0.5697E+01
 MRCHDU: Convergence failed at  38  side 2    Res =  0.6231E+01
 MRCHDU: Convergence failed at  39  side 2    Res =  0.6766E+01
 MRCHDU: Convergence failed at  40  side 2    Res =  0.7013E+01
 MRCHDU: Convergence failed at  41  side 2    Res =  0.7213E+01
 MRCHDU: Convergence failed at  42  side 2    Res =  0.8055E+01
 MRCHDU: Convergence failed at  43  side 2    Res =  0.8438E+01
 MRCHDU: Convergence failed at  44  side 2    Res =  0.8270E+01
 MRCHDU: Convergence failed at  45  side 2    Res =  0.8545E+01
 MRCHDU: Convergence failed at  46  side 2    Res =  0.8622E+01
 MRCHDU: Convergence failed at  47  side 2    Res =  0.8780E+01
 MRCHDU: Convergence failed at  48  side 2    Res =  0.8791E+01
 MRCHDU: Convergence failed at  49  side 2    Res =  0.8290E+01
 MRCHDU: Convergence failed at  50  side 2    Res =  0.7850E+01
 MRCHDU: Convergence failed at  51  side 2    Res =  0.7395E+01
 MRCHDU: Convergence failed at  52  side 2    Res =  0.7123E+01
 MRCHDU: Convergence failed at  53  side 2    Res =  0.6835E+01
 MRCHDU: Convergence failed at  54  side 2    Res =  0.6395E+01
 MRCHDU: Convergence failed at  55  side 2    Res =  0.6118E+01
 MRCHDU: Convergence failed at  56  side 2    Res =  0.3437E+01
 MRCHDU: Convergence failed at  57  side 2    Res =  0.3848E+01
 MRCHDU: Convergence failed at  58  side 2    Res =  0.4015E+01
 MRCHDU: Convergence failed at  59  side 2    Res =  0.4194E+01
 MRCHDU: Convergence failed at  60  side 2    Res =  0.4738E+01
 MRCHDU: Convergence failed at  61  side 2    Res =  0.4977E+01
 MRCHDU: Convergence failed at  62  side 2    Res =  0.5296E+01
 MRCHDU: Convergence failed at  63  side 2    Res =  0.5224E+01
 MRCHDU: Convergence failed at  64  side 2    Res =  0.6883E+01
 MRCHDU: Convergence failed at  65  side 2    Res =  0.8261E+01
 MRCHDU: Convergence failed at  66  side 2    Res =  0.8811E+01
 MRCHDU: Convergence failed at  67  side 2    Res =  0.9423E+01
 MRCHDU: Convergence failed at  68  side 2    Res =  0.1393E+02
 MRCHDU: Convergence failed at  69  side 2    Res =  0.1523E+02
 MRCHDU: Convergence failed at  70  side 2    Res =  0.1654E+02
 MRCHDU: Convergence failed at  71  side 2    Res =  0.1762E+02
 MRCHDU: Convergence failed at  72  side 2    Res =  0.1835E+02
 MRCHDU: Convergence failed at  73  side 2    Res =  0.1830E+02
 MRCHDU: Convergence failed at  74  side 2    Res =  0.1761E+02
 MRCHDU: Convergence failed at  75  side 2    Res =  0.1130E+02
 MRCHDU: Convergence failed at  76  side 2    Res =  0.1044E+02
 MRCHDU: Convergence failed at  77  side 2    Res =  0.8202E+01
 MRCHDU: Convergence failed at  78  side 2    Res =  0.6576E+01
 MRCHDU: Convergence failed at  79  side 2    Res =  0.6055E+01
 MRCHDU: Convergence failed at  80  side 2    Res =  0.5076E+01
 MRCHDU: Convergence failed at  81  side 2    Res =  0.4300E+01
 MRCHDU: Convergence failed at  82  side 2    Res =  0.7142E+01
 MRCHDU: Convergence failed at  83  side 2    Res =  0.1020E+02
 MRCHDU: Convergence failed at  84  side 2    Res =  0.1339E+02
 MRCHDU: Convergence failed at  85  side 2    Res =  0.1191E+02
 MRCHDU: Convergence failed at  86  side 2    Res =  0.1351E+02
 MRCHDU: Convergence failed at  87  side 2    Res =  0.3003E+02
 Side 1  free  transition at x/c =  0.5584   47
 Side 2  free  transition at x/c =  0.0342   24

  13   rms: 0.5669E+00   max: 0.9372E+00   D at   95  2   RLX: 0.845
       a = -3.500      CL = -0.0933
      Cm =  0.0046     CD =  0.02210   =>   CDf =  0.00396    CDp =  0.01814

 MRCHDU: Convergence failed at  26  side 2    Res =  0.6825E+02
 MRCHDU: Convergence failed at  27  side 2    Res =  0.1196E+03
 MRCHDU: Convergence failed at  28  side 2    Res =  0.8729E+02
 MRCHDU: Convergence failed at  29  side 2    Res =  0.5179E+02
 MRCHDU: Convergence failed at  30  side 2    Res =  0.6222E+02
 MRCHDU: Convergence failed at  31  side 2    Res =  0.1684E+03
 MRCHDU: Convergence failed at  32  side 2    Res =  0.1268E+03
 MRCHDU: Convergence failed at  33  side 2    Res =  0.1264E+03
 MRCHDU: Convergence failed at  34  side 2    Res =  0.1283E+03
 MRCHDU: Convergence failed at  35  side 2    Res =  0.9519E+02
 MRCHDU: Convergence failed at  36  side 2    Res =  0.1010E+03
 MRCHDU: Convergence failed at  37  side 2    Res =  0.1047E+03
 MRCHDU: Convergence failed at  38  side 2    Res =  0.1069E+03
 MRCHDU: Convergence failed at  39  side 2    Res =  0.7276E+02
 MRCHDU: Convergence failed at  40  side 2    Res =  0.7254E+02
 MRCHDU: Convergence failed at  41  side 2    Res =  0.1180E+03
 MRCHDU: Convergence failed at  42  side 2    Res =  0.8160E+02
 MRCHDU: Convergence failed at  43  side 2    Res =  0.7674E+02
 MRCHDU: Convergence failed at  44  side 2    Res =  0.7537E+02
 MRCHDU: Convergence failed at  45  side 2    Res =  0.9166E+02
 MRCHDU: Convergence failed at  46  side 2    Res =  0.9681E+02
 MRCHDU: Convergence failed at  47  side 2    Res =  0.1603E+03
 MRCHDU: Convergence failed at  48  side 2    Res =  0.2345E+03
 MRCHDU: Convergence failed at  49  side 2    Res =  0.2188E+03
 MRCHDU: Convergence failed at  50  side 2    Res =  0.2343E+03
 MRCHDU: Convergence failed at  51  side 2    Res =  0.2248E+03
 MRCHDU: Convergence failed at  52  side 2    Res =  0.1812E+03
 MRCHDU: Convergence failed at  53  side 2    Res =  0.1902E+03
 MRCHDU: Convergence failed at  54  side 2    Res =  0.2019E+03
 MRCHDU: Convergence failed at  55  side 2    Res =  0.1479E+03
 MRCHDU: Convergence failed at  56  side 2    Res =  0.1637E+03
 MRCHDU: Convergence failed at  57  side 2    Res =  0.1649E+03
 MRCHDU: Convergence failed at  58  side 2    Res =  0.1312E+04
 MRCHDU: Convergence failed at  59  side 2    Res =  0.2092E+04
 MRCHDU: Convergence failed at  60  side 2    Res =  0.4653E+04
 MRCHDU: Convergence failed at  61  side 2    Res =  0.4893E+06
 MRCHDU: Convergence failed at  62  side 2    Res =  0.3439E+03
 MRCHDU: Convergence failed at  63  side 2    Res =  0.3203E+03
 MRCHDU: Convergence failed at  64  side 2    Res =  0.3055E+03
 MRCHDU: Convergence failed at  65  side 2    Res =  0.1970E+04
 MRCHDU: Convergence failed at  66  side 2    Res =  0.2553E+03
 MRCHDU: Convergence failed at  67  side 2    Res =  0.2522E+03
 MRCHDU: Convergence failed at  68  side 2    Res =  0.2543E+03
 MRCHDU: Convergence failed at  69  side 2    Res =  0.2610E+03
 MRCHDU: Convergence failed at  70  side 2    Res =  0.2106E+04
 MRCHDU: Convergence failed at  71  side 2    Res =  0.3360E+03
 MRCHDU: Convergence failed at  72  side 2    Res =  0.3722E+03
 MRCHDU: Convergence failed at  73  side 2    Res =  0.1579E+05
 MRCHDU: Convergence failed at  74  side 2    Res =  0.2760E+04
 MRCHDU: Convergence failed at  75  side 2    Res =  0.1309E+04
 MRCHDU: Convergence failed at  76  side 2    Res =  0.8107E+03
 MRCHDU: Convergence failed at  77  side 2    Res =  0.2700E+03
 MRCHDU: Convergence failed at  78  side 2    Res =  0.1619E+03
 MRCHDU: Convergence failed at  79  side 2    Res =  0.1995E+03
 MRCHDU: Convergence failed at  80  side 2    Res =  0.1813E+03
 MRCHDU: Convergence failed at  81  side 2    Res =  0.2940E+03
 MRCHDU: Convergence failed at  82  side 2    Res =  0.2530E+03
 MRCHDU: Convergence failed at  83  side 2    Res =  0.2015E+03
 MRCHDU: Convergence failed at  84  side 2    Res =  0.1421E+03
 MRCHDU: Convergence failed at  85  side 2    Res =  0.1406E+03
 MRCHDU: Convergence failed at  86  side 2    Res =  0.1509E+03
 Side 1  free  transition at x/c =  0.5554   48
 Side 2  free  transition at x/c =  0.0490   25

  14   rms: 0.1033E+01   max: 0.6159E+01   T at   25  2   RLX: 0.106
       a = -3.500      CL = -1.2338
      Cm =  0.3386     CD =  0.00759   =>   CDf =  0.00320    CDp =  0.00439

 Side 1  free  transition at x/c =  0.5556   48
 Side 2  free  transition at x/c =  0.0410   24
 idif Ue xi dudx           1  0.12592100      3.01969051E-03   41.699966    
 Uenew xinew           2  1.25070950E-02  2.99930573E-04

  15   rms: 0.8259E+01   max: 0.1307E+03   T at   26  2   RLX: 0.011
       a = -3.500      CL = -0.9565
      Cm =  0.2501     CD =  0.11718   =>   CDf =  0.00354    CDp =  0.11365

 Side 1  free  transition at x/c =  0.5577   47
 Side 2  free  transition at x/c =  0.0409   25

  16   rms: 0.2337E+01   max: -.2334E+02   T at   27  2   RLX: 0.021
       a = -3.500      CL = -1.0374
      Cm =  0.2687     CD =  0.11830   =>   CDf =  0.00359    CDp =  0.11471

 Side 1  free  transition at x/c =  0.5598   47
 Side 2  free  transition at x/c =  0.0401   25

  17   rms: 0.1236E+01   max: -.1051E+02   T at   27  2   RLX: 0.048
       a = -3.500      CL = -1.0623
      Cm =  0.2725     CD =  0.12291   =>   CDf =  0.00359    CDp =  0.11933

 Side 1  free  transition at x/c =  0.5636   47
 Side 2  free  transition at x/c =  0.0371   25

  18   rms: 0.9527E+00   max: 0.6585E+01   T at   25  2   RLX: 0.149
       a = -3.500      CL = -0.9980
      Cm =  0.2495     CD =  0.11506   =>   CDf =  0.00363    CDp =  0.11143

 MRCHDU: Convergence failed at 102  side 2    Res =  0.2053E+01
 MRCHDU: Convergence failed at 103  side 2    Res =  0.1337E+01
 MRCHDU: Convergence failed at 104  side 2    Res =  0.3701E+01
 MRCHDU: Convergence failed at 105  side 2    Res =  0.5284E+01
 MRCHDU: Convergence failed at 106  side 2    Res =  0.1743E+01
 Side 1  free  transition at x/c =  0.5712   48
 Side 2  free  transition at x/c =  0.0342   24

  19   rms: 0.1266E+02   max: 0.1534E+03   T at   27  2   RLX: 0.010
       a = -3.500      CL = -0.9984
      Cm =  0.2499     CD =  0.20565   =>   CDf =  0.00387    CDp =  0.20178

 Side 1  free  transition at x/c =  0.5727   48
 Side 2  free  transition at x/c =  0.0342   24

  20   rms: 0.9841E+00   max: -.3363E+01   C at  109  2   RLX: 0.149
       a = -3.500      CL = -0.9340
      Cm =  0.2318     CD =  0.13292   =>   CDf =  0.00387    CDp =  0.12904

 MRCHDU: Convergence failed at 103  side 2    Res =  0.3315E+01
 MRCHDU: Convergence failed at 104  side 2    Res =  0.2700E+01
 MRCHDU: Convergence failed at 105  side 2    Res =  0.5740E+01
 MRCHDU: Convergence failed at 106  side 2    Res =  0.1684E+02
 MRCHDU: Convergence failed at 107  side 2    Res =  0.8724E+01
 MRCHDU: Convergence failed at 108  side 2    Res =  0.4606E+01
 MRCHDU: Convergence failed at 109  side 2    Res =  0.1516E+01
 Side 1  free  transition at x/c =  0.5784   48
 Side 2  free  transition at x/c =  0.0339   24

  21   rms: 0.1241E+01   max: 0.8699E+01   T at   27  2   RLX: 0.156
       a = -3.500      CL = -0.6942
      Cm =  0.1779     CD =  0.13969   =>   CDf =  0.00402    CDp =  0.13567

 Side 1  free  transition at x/c =  0.5707   49
 Side 2  free  transition at x/c =  0.0336   23

  22   rms: 0.9716E+00   max: -.3719E+01   T at  108  2   RLX: 0.134
       a = -3.500      CL = -0.5311
      Cm =  0.1376     CD =  0.22179   =>   CDf =  0.00398    CDp =  0.21781

 Side 1  free  transition at x/c =  0.5640   48
 Side 2  free  transition at x/c =  0.0337   23

  23   rms: 0.7565E+00   max: -.2917E+01   T at  108  2   RLX: 0.171
       a = -3.500      CL = -0.3570
      Cm =  0.0986     CD =  0.27148   =>   CDf =  0.00401    CDp =  0.26747

 Side 1  free  transition at x/c =  0.5585   49
 Side 2  free  transition at x/c =  0.0339   22

  24   rms: 0.4781E+00   max: 0.3582E+01   T at   86  2   RLX: 0.267
       a = -3.500      CL = -0.2132
      Cm =  0.0628     CD =  0.21791   =>   CDf =  0.00392    CDp =  0.21399

 Side 1  free  transition at x/c =  0.5567   49
 Side 2  free  transition at x/c =  0.0340   22

  25   rms: 0.8408E+00   max: 0.4664E+01   T at   86  2   RLX: 0.111
       a = -3.500      CL = -0.1228
      Cm =  0.0424     CD =  0.28789   =>   CDf =  0.00389    CDp =  0.28400

 Side 1  free  transition at x/c =  0.5537   48
 Side 2  free  transition at x/c =  0.0340   22

  26   rms: 0.7937E+00   max: 0.5552E+01   T at   86  2   RLX: 0.108
       a = -3.500      CL = -0.0541
      Cm =  0.0270     CD =  0.37530   =>   CDf =  0.00390    CDp =  0.37141

 Side 1  free  transition at x/c =  0.5511   48
 Side 2  free  transition at x/c =  0.0341   22

  27   rms: 0.6826E+00   max: -.4452E+01   T at  107  2   RLX: 0.112
       a = -3.500      CL =  0.0026
      Cm =  0.0136     CD =  0.44922   =>   CDf =  0.00385    CDp =  0.44537

 Side 1  free  transition at x/c =  0.5488   48
 Side 2  free  transition at x/c =  0.0341   22

  28   rms: 0.1104E+01   max: -.9223E+01   T at  107  2   RLX: 0.054
       a = -3.500      CL =  0.0429
      Cm =  0.0048     CD =  0.09423   =>   CDf =  0.00386    CDp =  0.09037

 Side 1  free  transition at x/c =  0.5468   49
 Side 2  free  transition at x/c =  0.0342   21

  29   rms: 0.3004E+01   max: -.4494E+02   D at    2  1   RLX: 0.011
       a = -3.500      CL =  0.0536
      Cm =  0.0026     CD =  0.04329   =>   CDf =  0.00382    CDp =  0.03947

 Side 1  free  transition at x/c =  0.5462   49
 Side 2  free  transition at x/c =  0.0342   21

  30   rms: 0.8348E+00   max: -.6509E+01   T at  104  2   RLX: 0.077
       a = -3.500      CL =  0.0895
      Cm = -0.0053     CD =  0.07428   =>   CDf =  0.00381    CDp =  0.07047

 Side 1  free  transition at x/c =  0.5444   49
 Side 2  free  transition at x/c =  0.0342   21

  31   rms: 0.7431E+00   max: 0.8376E+01   C at  105  2   RLX: 0.096
       a = -3.500      CL =  0.1233
      Cm = -0.0135     CD =  0.04475   =>   CDf =  0.00380    CDp =  0.04094

 Side 1  free  transition at x/c =  0.5430   49
 Side 2  free  transition at x/c =  0.0342   21

  32   rms: 0.3904E+01   max: -.1048E+03   C at  106  2   RLX: 0.005
       a = -3.500      CL =  0.1258
      Cm = -0.0144     CD =  0.02174   =>   CDf =  0.00380    CDp =  0.01794

 Side 1  free  transition at x/c =  0.5430   49
 Side 2  free  transition at x/c =  0.0342   21

  33   rms: 0.4951E+01   max: -.1334E+03   C at  106  2   RLX: 0.004
       a = -3.500      CL =  0.1267
      Cm = -0.0147     CD =  0.02181   =>   CDf =  0.00380    CDp =  0.01801

 Side 1  free  transition at x/c =  0.5430   49
 Side 2  free  transition at x/c =  0.0342   21

  34   rms: 0.5036E+01   max: -.1358E+03   C at  106  2   RLX: 0.004
       a = -3.500      CL =  0.1274
      Cm = -0.0149     CD =  0.02181   =>   CDf =  0.00380    CDp =  0.01802

 Side 1  free  transition at x/c =  0.5429   49
 Side 2  free  transition at x/c =  0.0342   21

  35   rms: 0.4873E+01   max: -.1315E+03   C at  106  2   RLX: 0.004
       a = -3.500      CL =  0.1281
      Cm = -0.0151     CD =  0.02176   =>   CDf =  0.00380    CDp =  0.01796

 Side 1  free  transition at x/c =  0.5429   49
 Side 2  free  transition at x/c =  0.0342   21

  36   rms: 0.8377E+01   max: -.2268E+03   C at  106  2   RLX: 0.002
       a = -3.500      CL =  0.1285
      Cm = -0.0152     CD =  0.02167   =>   CDf =  0.00380    CDp =  0.01787

 Side 1  free  transition at x/c =  0.5429   49
 Side 2  free  transition at x/c =  0.0342   21

  37   rms: 0.9439E+01   max: -.2557E+03   C at  106  2   RLX: 0.002
       a = -3.500      CL =  0.1290
      Cm = -0.0154     CD =  0.02170   =>   CDf =  0.00380    CDp =  0.01790

 Side 1  free  transition at x/c =  0.5429   49
 Side 2  free  transition at x/c =  0.0342   21

  38   rms: 0.1627E+02   max: -.4410E+03   C at  106  2   RLX: 0.001
       a = -3.500      CL =  0.1293
      Cm = -0.0155     CD =  0.02175   =>   CDf =  0.00380    CDp =  0.01795

 Side 1  free  transition at x/c =  0.5429   49
 Side 2  free  transition at x/c =  0.0342   21

  39   rms: 0.9792E+01   max: -.2653E+03   C at  106  2   RLX: 0.002
       a = -3.500      CL =  0.1296
      Cm = -0.0156     CD =  0.02185   =>   CDf =  0.00380    CDp =  0.01805

 Side 1  free  transition at x/c =  0.5429   49
 Side 2  free  transition at x/c =  0.0342   21

  40   rms: 0.2059E+02   max: -.5582E+03   C at  106  2   RLX: 0.001
       a = -3.500      CL =  0.1298
      Cm = -0.0156     CD =  0.02182   =>   CDf =  0.00380    CDp =  0.01802

 Side 1  free  transition at x/c =  0.5429   49
 Side 2  free  transition at x/c =  0.0342   21

  41   rms: 0.2442E+02   max: -.6624E+03   C at  106  2   RLX: 0.001
       a = -3.500      CL =  0.1300
      Cm = -0.0157     CD =  0.02188   =>   CDf =  0.00379    CDp =  0.01808

 Side 1  free  transition at x/c =  0.5429   49
 Side 2  free  transition at x/c =  0.0342   21

  42   rms: 0.2646E+02   max: -.7176E+03   C at  106  2   RLX: 0.001
       a = -3.500      CL =  0.1302
      Cm = -0.0157     CD =  0.02194   =>   CDf =  0.00379    CDp =  0.01814

 Side 1  free  transition at x/c =  0.5429   49
 Side 2  free  transition at x/c =  0.0342   21

  43   rms: 0.2462E+02   max: -.6676E+03   C at  106  2   RLX: 0.001
       a = -3.500      CL =  0.1304
      Cm = -0.0158     CD =  0.02199   =>   CDf =  0.00379    CDp =  0.01820

 Side 1  free  transition at x/c =  0.5429   49
 Side 2  free  transition at x/c =  0.0342   21

  44   rms: 0.2899E+02   max: -.7864E+03   C at  106  2   RLX: 0.001
       a = -3.500      CL =  0.1305
      Cm = -0.0158     CD =  0.02202   =>   CDf =  0.00379    CDp =  0.01822

 Side 1  free  transition at x/c =  0.5429   49
 Side 2  free  transition at x/c =  0.0342   21

  45   rms: 0.3896E+02   max: -.1057E+04   C at  106  2   RLX: 0.000
       a = -3.500      CL =  0.1307
      Cm = -0.0159     CD =  0.02205   =>   CDf =  0.00379    CDp =  0.01826

 Side 1  free  transition at x/c =  0.5429   49
 Side 2  free  transition at x/c =  0.0342   21

  46   rms: 0.3979E+02   max: -.1079E+04   C at  106  2   RLX: 0.000
       a = -3.500      CL =  0.1308
      Cm = -0.0159     CD =  0.02210   =>   CDf =  0.00379    CDp =  0.01831

 Side 1  free  transition at x/c =  0.5428   49
 Side 2  free  transition at x/c =  0.0342   21

  47   rms: 0.4563E+02   max: -.1238E+04   C at  106  2   RLX: 0.000
       a = -3.500      CL =  0.1309
      Cm = -0.0159     CD =  0.02214   =>   CDf =  0.00379    CDp =  0.01835

 MRCHDU: Convergence failed at 106  side 2    Res =  0.2964E-01
 Side 1  free  transition at x/c =  0.5428   49
 Side 2  free  transition at x/c =  0.0342   21

  48   rms: 0.5070E+02   max: -.1375E+04   C at  106  2   RLX: 0.000
       a = -3.500      CL =  0.1310
      Cm = -0.0159     CD =  0.02218   =>   CDf =  0.00379    CDp =  0.01838

 MRCHDU: Convergence failed at 106  side 2    Res =  0.8082E-01
 Side 1  free  transition at x/c =  0.5428   49
 Side 2  free  transition at x/c =  0.0342   21

  49   rms: 0.5289E+02   max: -.1435E+04   C at  106  2   RLX: 0.000
       a = -3.500      CL =  0.1311
      Cm = -0.0160     CD =  0.02221   =>   CDf =  0.00379    CDp =  0.01842

 MRCHDU: Convergence failed at 106  side 2    Res =  0.1319E+00
 Side 1  free  transition at x/c =  0.5428   49
 Side 2  free  transition at x/c =  0.0342   21

  50   rms: 0.1133E+01   max: -.2490E+02   C at  106  2   RLX: 0.020
       a = -3.500      CL =  0.1358
      Cm = -0.0173     CD =  0.01286   =>   CDf =  0.00379    CDp =  0.00906

 Side 1  free  transition at x/c =  0.5427   49
 Side 2  free  transition at x/c =  0.0342   21

  51   rms: 0.1420E+01   max: -.3501E+02   C at  106  2   RLX: 0.014
       a = -3.500      CL =  0.1387
      Cm = -0.0182     CD =  0.01279   =>   CDf =  0.00379    CDp =  0.00899

 Side 1  free  transition at x/c =  0.5426   49
 Side 2  free  transition at x/c =  0.0342   21

  52   rms: 0.1535E+01   max: -.3831E+02   C at  106  2   RLX: 0.013
       a = -3.500      CL =  0.1409
      Cm = -0.0189     CD =  0.01294   =>   CDf =  0.00379    CDp =  0.00915

 Side 1  free  transition at x/c =  0.5426   49
 Side 2  free  transition at x/c =  0.0342   21

  53   rms: 0.2386E+01   max: -.6128E+02   C at  106  2   RLX: 0.008
       a = -3.500      CL =  0.1424
      Cm = -0.0194     CD =  0.01304   =>   CDf =  0.00379    CDp =  0.00925

 Side 1  free  transition at x/c =  0.5425   49
 Side 2  free  transition at x/c =  0.0342   21

  54   rms: 0.3128E+01   max: -.8095E+02   C at  106  2   RLX: 0.006
       a = -3.500      CL =  0.1436
      Cm = -0.0197     CD =  0.01324   =>   CDf =  0.00379    CDp =  0.00945

 Side 1  free  transition at x/c =  0.5425   49
 Side 2  free  transition at x/c =  0.0342   21

  55   rms: 0.3031E+01   max: -.7817E+02   C at  106  2   RLX: 0.006
       a = -3.500      CL =  0.1446
      Cm = -0.0201     CD =  0.01333   =>   CDf =  0.00379    CDp =  0.00954

 Side 1  free  transition at x/c =  0.5425   49
 Side 2  free  transition at x/c =  0.0342   21

  56   rms: 0.3252E+01   max: -.8384E+02   C at  106  2   RLX: 0.006
       a = -3.500      CL =  0.1456
      Cm = -0.0204     CD =  0.01340   =>   CDf =  0.00379    CDp =  0.00961

 Side 1  free  transition at x/c =  0.5425   49
 Side 2  free  transition at x/c =  0.0342   21

  57   rms: 0.4161E+01   max: -.1078E+03   C at  106  2   RLX: 0.005
       a = -3.500      CL =  0.1464
      Cm = -0.0207     CD =  0.01354   =>   CDf =  0.00379    CDp =  0.00975

 Side 1  free  transition at x/c =  0.5425   49
 Side 2  free  transition at x/c =  0.0342   21

  58   rms: 0.3957E+01   max: -.1016E+03   C at  106  2   RLX: 0.005
       a = -3.500      CL =  0.1472
      Cm = -0.0209     CD =  0.01369   =>   CDf =  0.00379    CDp =  0.00990

 Side 1  free  transition at x/c =  0.5425   49
 Side 2  free  transition at x/c =  0.0342   21

  59   rms: 0.7048E+01   max: -.1836E+03   C at  106  2   RLX: 0.003
       a = -3.500      CL =  0.1478
      Cm = -0.0211     CD =  0.01376   =>   CDf =  0.00379    CDp =  0.00997

 Side 1  free  transition at x/c =  0.5424   49
 Side 2  free  transition at x/c =  0.0342   21

  60   rms: 0.2593E+01   max: -.6307E+02   C at  106  2   RLX: 0.008
       a = -3.500      CL =  0.1488
      Cm = -0.0215     CD =  0.01395   =>   CDf =  0.00379    CDp =  0.01016

 Side 1  free  transition at x/c =  0.5424   49
 Side 2  free  transition at x/c =  0.0342   21

  61   rms: 0.2228E+01   max: -.5035E+02   C at  106  2   RLX: 0.010
       a = -3.500      CL =  0.1503
      Cm = -0.0220     CD =  0.01398   =>   CDf =  0.00379    CDp =  0.01019

 Side 1  free  transition at x/c =  0.5424   49
 Side 2  free  transition at x/c =  0.0342   21

  62   rms: 0.4294E+01   max: -.1021E+03   C at  106  2   RLX: 0.005
       a = -3.500      CL =  0.1512
      Cm = -0.0223     CD =  0.01410   =>   CDf =  0.00379    CDp =  0.01031

 TRCHEK2: N2 convergence failed.
 x:  0.24318  0.25902  0.25902  N:  8.915  9.000  9.075  Nx:   9.912   dN: 0.749E-01
 TRCHEK2: N2 convergence failed.
 x:  0.24318  0.25461  0.25902  N:  8.915  9.000  9.024  Nx:  14.703   dN:-0.283E+00
 TRCHEK2: N2 convergence failed.
 x:  0.24318  0.25654  0.25902  N:  8.915  9.000  9.010  Nx:  12.651   dN:-0.303E+00
 TRCHEK2: N2 convergence failed.
 x:  0.24318  0.25679  0.25902  N:  8.915  9.000  9.008  Nx:  12.122   dN:-0.290E+00
 TRCHEK2: N2 convergence failed.
 x:  0.24318  0.25699  0.25902  N:  8.915  9.000  9.007  Nx:  11.769   dN:-0.223E+00
 TRCHEK2: N2 convergence failed.
 x:  0.24318  0.25813  0.25902  N:  8.915  9.000  9.000  Nx:  10.744   dN:-0.149E+00
 TRCHEK2: N2 convergence failed.
 x:  0.24318  0.25902  0.25902  N:  8.915  9.000  9.070  Nx:   9.617   dN: 0.704E-01
 TRCHEK2: N2 convergence failed.
 x:  0.24318  0.25554  0.25902  N:  8.915  9.000  9.017  Nx:  10.803   dN:-0.480E-01
 TRCHEK2: N2 convergence failed.
 x:  0.24318  0.25902  0.25902  N:  8.915  9.000  9.009  Nx:   5.886   dN: 0.904E-02
 TRCHEK2: N2 convergence failed.
 x:  0.24318  0.25857  0.25902  N:  8.915  9.000  9.007  Nx:   5.887   dN: 0.747E-01
 TRCHEK2: N2 convergence failed.
 x:  0.24318  0.25806  0.25902  N:  8.915  9.000  9.001  Nx:   5.970   dN:-0.125E-01
 TRCHEK2: N2 convergence failed.
 x:  0.24318  0.25752  0.25902  N:  8.915  9.000  9.007  Nx:   6.171   dN:-0.228E-02
 TRCHEK2: N2 convergence failed.
 x:  0.24318  0.25730  0.25902  N:  8.915  9.000  9.008  Nx:   6.043   dN:-0.249E-02
 TRCHEK2: N2 convergence failed.
 x:  0.24318  0.25733  0.25902  N:  8.915  9.000  9.015  Nx:   6.032   dN: 0.104E-01
 TRCHEK2: N2 convergence failed.
 x:  0.24318  0.25716  0.25902  N:  8.915  9.000  9.010  Nx:   6.193   dN:-0.135E-02
 TRCHEK2: N2 convergence failed.
 x:  0.24318  0.25707  0.25902  N:  8.915  9.000  9.011  Nx:   6.290   dN:-0.108E-02
 TRCHEK2: N2 convergence failed.
 x:  0.24318  0.25816  0.25902  N:  8.915  9.000  9.010  Nx:   6.029   dN: 0.649E-02
 TRCHEK2: N2 convergence failed.
 x:  0.24318  0.25793  0.25902  N:  8.915  9.000  9.011  Nx:   6.002   dN: 0.452E-02
 TRCHEK2: N2 convergence failed.
 x:  0.24318  0.25738  0.25902  N:  8.915  9.000  9.011  Nx:   6.051   dN: 0.162E-02
 TRCHEK2: N2 convergence failed.
 x:  0.24318  0.25742  0.25902  N:  8.915  9.000  9.009  Nx:   6.025   dN:-0.668E-03
 MRCHDU: Convergence failed at  36  side 2    Res =  0.1866E+02
 Side 1  free  transition at x/c =  0.5424   49
 Side 2  free  transition at x/c =  0.2343   36

  63   rms: 0.6020E+01   max: 0.1126E+03   C at  106  2   RLX: 0.013
       a = -3.500      CL = -0.0754
      Cm =  0.0107     CD =  0.00736   =>   CDf =  0.00365    CDp =  0.00371

 Side 1  free  transition at x/c =  0.5422   49
 Side 2  free  transition at x/c =  0.1612   31

  64   rms: 0.1000E+03   max: -.2455E+04   C at  106  2   RLX: 0.000
       a = -3.500      CL = -0.1527
      Cm =  0.0511     CD =  0.01669   =>   CDf =  0.00370    CDp =  0.01299

 Side 1  free  transition at x/c =  0.5423   49
 Side 2  free  transition at x/c =  0.1612   31

  65   rms: 0.1034E+03   max: -.2496E+04   C at  106  2   RLX: 0.000
       a = -3.500      CL = -0.1530
      Cm =  0.0509     CD =  0.01684   =>   CDf =  0.00370    CDp =  0.01314

 Side 1  free  transition at x/c =  0.5423   49
 Side 2  free  transition at x/c =  0.1612   31

  66   rms: 0.9609E+02   max: -.2250E+04   C at  106  2   RLX: 0.000
       a = -3.500      CL = -0.1531
      Cm =  0.0506     CD =  0.01697   =>   CDf =  0.00370    CDp =  0.01327

 Side 1  free  transition at x/c =  0.5423   49
 Side 2  free  transition at x/c =  0.1612   31

  67   rms: 0.8395E+02   max: -.1849E+04   C at  106  2   RLX: 0.000
       a = -3.500      CL = -0.1533
      Cm =  0.0503     CD =  0.01714   =>   CDf =  0.00369    CDp =  0.01344

 Side 1  free  transition at x/c =  0.5424   49
 Side 2  free  transition at x/c =  0.1612   31

  68   rms: 0.6684E+02   max: -.1268E+04   C at  105  2   RLX: 0.000
       a = -3.500      CL = -0.1535
      Cm =  0.0499     CD =  0.01731   =>   CDf =  0.00369    CDp =  0.01362

 Side 1  free  transition at x/c =  0.5424   49
 Side 2  free  transition at x/c =  0.1612   31

  69   rms: 0.4517E+02   max: -.1143E+04   C at  105  2   RLX: 0.000
       a = -3.500      CL = -0.1537
      Cm =  0.0494     CD =  0.01735   =>   CDf =  0.00369    CDp =  0.01366

 Side 1  free  transition at x/c =  0.5424   49
 Side 2  free  transition at x/c =  0.1612   31

  70   rms: 0.3674E+02   max: -.7452E+03   C at  105  2   RLX: 0.001
       a = -3.500      CL = -0.1536
      Cm =  0.0488     CD =  0.01732   =>   CDf =  0.00369    CDp =  0.01363

 Side 1  free  transition at x/c =  0.5425   49
 Side 2  free  transition at x/c =  0.1612   31

  71   rms: 0.3754E+02   max: 0.7354E+03   C at  106  2   RLX: 0.001
       a = -3.500      CL = -0.1534
      Cm =  0.0480     CD =  0.01725   =>   CDf =  0.00369    CDp =  0.01356

 Side 1  free  transition at x/c =  0.5425   49
 Side 2  free  transition at x/c =  0.1612   31

  72   rms: 0.4797E+02   max: -.1049E+04   C at  105  2   RLX: 0.000
       a = -3.500      CL = -0.1532
      Cm =  0.0476     CD =  0.01723   =>   CDf =  0.00369    CDp =  0.01354

 Side 1  free  transition at x/c =  0.5425   49
 Side 2  free  transition at x/c =  0.1612   31

  73   rms: 0.9736E+02   max: -.1859E+04   C at  105  2   RLX: 0.000
       a = -3.500      CL = -0.1531
      Cm =  0.0474     CD =  0.01737   =>   CDf =  0.00369    CDp =  0.01368

 Side 1  free  transition at x/c =  0.5425   49
 Side 2  free  transition at x/c =  0.1612   31

  74   rms: 0.1379E+03   max: -.2614E+04   C at  106  2   RLX: 0.000
       a = -3.500      CL = -0.1529
      Cm =  0.0473     CD =  0.01752   =>   CDf =  0.00369    CDp =  0.01383

 Side 1  free  transition at x/c =  0.5425   49
 Side 2  free  transition at x/c =  0.1612   31

  75   rms: 0.1785E+03   max: -.3476E+04   C at  106  2   RLX: 0.000
       a = -3.500      CL = -0.1528
      Cm =  0.0472     CD =  0.01766   =>   CDf =  0.00369    CDp =  0.01397

 Side 1  free  transition at x/c =  0.5425   49
 Side 2  free  transition at x/c =  0.1612   31

  76   rms: 0.2085E+03   max: -.4114E+04   C at  106  2   RLX: 0.000
       a = -3.500      CL = -0.1527
      Cm =  0.0472     CD =  0.01779   =>   CDf =  0.00369    CDp =  0.01410

 Side 1  free  transition at x/c =  0.5425   49
 Side 2  free  transition at x/c =  0.1612   31

  77   rms: 0.2511E+03   max: -.4989E+04   C at  106  2   RLX: 0.000
       a = -3.500      CL = -0.1526
      Cm =  0.0471     CD =  0.01790   =>   CDf =  0.00369    CDp =  0.01422

 Side 1  free  transition at x/c =  0.5425   49
 Side 2  free  transition at x/c =  0.1613   31

  78   rms: 0.2723E+03   max: -.5432E+04   C at  106  2   RLX: 0.000
       a = -3.500      CL = -0.1526
      Cm =  0.0470     CD =  0.01801   =>   CDf =  0.00369    CDp =  0.01433

 Side 1  free  transition at x/c =  0.5425   49
 Side 2  free  transition at x/c =  0.1613   31

  79   rms: 0.3220E+03   max: -.6439E+04   C at  106  2   RLX: 0.000
       a = -3.500      CL = -0.1525
      Cm =  0.0470     CD =  0.01811   =>   CDf =  0.00369    CDp =  0.01443

 MRCHDU: Convergence failed at 106  side 2    Res =  0.1272E-01
 Side 1  free  transition at x/c =  0.5425   49
 Side 2  free  transition at x/c =  0.1613   31

  80   rms: 0.3604E+03   max: -.7216E+04   C at  106  2   RLX: 0.000
       a = -3.500      CL = -0.1524
      Cm =  0.0470     CD =  0.01821   =>   CDf =  0.00369    CDp =  0.01452

 MRCHDU: Convergence failed at 106  side 2    Res =  0.6426E-01
 Side 1  free  transition at x/c =  0.5425   49
 Side 2  free  transition at x/c =  0.1613   31

  81   rms: 0.3908E+03   max: -.7835E+04   C at  106  2   RLX: 0.000
       a = -3.500      CL = -0.1524
      Cm =  0.0469     CD =  0.01830   =>   CDf =  0.00369    CDp =  0.01461

 MRCHDU: Convergence failed at 106  side 2    Res =  0.1157E+00
 Side 1  free  transition at x/c =  0.5425   49
 Side 2  free  transition at x/c =  0.1613   31

  82   rms: 0.4587E+03   max: -.9860E+04   C at  106  2   RLX: 0.000
       a = -3.500      CL = -0.1523
      Cm =  0.0469     CD =  0.02060   =>   CDf =  0.00369    CDp =  0.01692

 MRCHDU: Convergence failed at 106  side 2    Res =  0.4062E+00
 Side 1  free  transition at x/c =  0.5425   49
 Side 2  free  transition at x/c =  0.1613   31

  83   rms: 0.5112E+03   max: -.1099E+05   C at  106  2   RLX: 0.000
       a = -3.500      CL = -0.1523
      Cm =  0.0469     CD =  0.02067   =>   CDf =  0.00369    CDp =  0.01699

 MRCHDU: Convergence failed at 106  side 2    Res =  0.4566E+00
 Side 1  free  transition at x/c =  0.5425   49
 Side 2  free  transition at x/c =  0.1613   31

  84   rms: 0.5244E+03   max: -.1127E+05   C at  106  2   RLX: 0.000
       a = -3.500      CL = -0.1523
      Cm =  0.0469     CD =  0.02074   =>   CDf =  0.00369    CDp =  0.01705

 MRCHDU: Convergence failed at 106  side 2    Res =  0.5070E+00
 Side 1  free  transition at x/c =  0.5425   49
 Side 2  free  transition at x/c =  0.1613   31

  85   rms: 0.5510E+03   max: -.1184E+05   C at  106  2   RLX: 0.000
       a = -3.500      CL = -0.1522
      Cm =  0.0468     CD =  0.02080   =>   CDf =  0.00369    CDp =  0.01712

 MRCHDU: Convergence failed at 106  side 2    Res =  0.5574E+00
 Side 1  free  transition at x/c =  0.5425   49
 Side 2  free  transition at x/c =  0.1613   31

  86   rms: 0.5817E+03   max: -.1249E+05   C at  106  2   RLX: 0.000
       a = -3.500      CL = -0.1522
      Cm =  0.0468     CD =  0.02086   =>   CDf =  0.00369    CDp =  0.01718

 MRCHDU: Convergence failed at 106  side 2    Res =  0.6078E+00
 Side 1  free  transition at x/c =  0.5425   49
 Side 2  free  transition at x/c =  0.1613   31

  87   rms: 0.6226E+03   max: -.1335E+05   C at  106  2   RLX: 0.000
       a = -3.500      CL = -0.1522
      Cm =  0.0468     CD =  0.02092   =>   CDf =  0.00369    CDp =  0.01724

 MRCHDU: Convergence failed at 106  side 2    Res =  0.6583E+00
 Side 1  free  transition at x/c =  0.5425   49
 Side 2  free  transition at x/c =  0.1613   31

  88   rms: 0.6269E+03   max: -.1343E+05   C at  106  2   RLX: 0.000
       a = -3.500      CL = -0.1521
      Cm =  0.0468     CD =  0.02098   =>   CDf =  0.00369    CDp =  0.01729

 MRCHDU: Convergence failed at 106  side 2    Res =  0.7087E+00
 Side 1  free  transition at x/c =  0.5425   49
 Side 2  free  transition at x/c =  0.1613   31

  89   rms: 0.6836E+03   max: -.1463E+05   C at  106  2   RLX: 0.000
       a = -3.500      CL = -0.1521
      Cm =  0.0468     CD =  0.02103   =>   CDf =  0.00369    CDp =  0.01735

 MRCHDU: Convergence failed at 105  side 2    Res =  0.1539E-01
 MRCHDU: Convergence failed at 106  side 2    Res =  0.7438E+00
 Side 1  free  transition at x/c =  0.5425   49
 Side 2  free  transition at x/c =  0.1613   31

  90   rms: 0.7207E+03   max: -.1541E+05   C at  106  2   RLX: 0.000
       a = -3.500      CL = -0.1521
      Cm =  0.0467     CD =  0.02108   =>   CDf =  0.00369    CDp =  0.01740

 MRCHDU: Convergence failed at 105  side 2    Res =  0.5474E-01
 MRCHDU: Convergence failed at 106  side 2    Res =  0.7548E+00
 Side 1  free  transition at x/c =  0.5425   49
 Side 2  free  transition at x/c =  0.1613   31

  91   rms: 0.7803E+03   max: -.1666E+05   C at  106  2   RLX: 0.000
       a = -3.500      CL = -0.1520
      Cm =  0.0467     CD =  0.02113   =>   CDf =  0.00369    CDp =  0.01744

 MRCHDU: Convergence failed at 105  side 2    Res =  0.9418E-01
 MRCHDU: Convergence failed at 106  side 2    Res =  0.7658E+00
 Side 1  free  transition at x/c =  0.5425   49
 Side 2  free  transition at x/c =  0.1613   31

  92   rms: 0.7739E+03   max: -.1650E+05   C at  106  2   RLX: 0.000
       a = -3.500      CL = -0.1520
      Cm =  0.0467     CD =  0.02118   =>   CDf =  0.00368    CDp =  0.01749

 MRCHDU: Convergence failed at 105  side 2    Res =  0.1337E+00
 MRCHDU: Convergence failed at 106  side 2    Res =  0.4173E+00
 Side 1  free  transition at x/c =  0.5425   49
 Side 2  free  transition at x/c =  0.1613   31

  93   rms: 0.5799E+04   max: 0.1380E+06   C at  106  2   RLX: 0.000
       a = -3.500      CL = -0.1520
      Cm =  0.0467     CD =  0.02284   =>   CDf =  0.00368    CDp =  0.01916

 MRCHDU: Convergence failed at 105  side 2    Res =  0.5996E-01
 Side 1  free  transition at x/c =  0.5425   49
 Side 2  free  transition at x/c =  0.1613   31

  94   rms: 0.2076E+02   max: -.4273E+03   C at  104  2   RLX: 0.001
       a = -3.500      CL = -0.1507
      Cm =  0.0464     CD =  0.03670   =>   CDf =  0.00368    CDp =  0.03302

 MRCHDU: Convergence failed at 105  side 2    Res =  0.6160E-01
 Side 1  free  transition at x/c =  0.5424   49
 Side 2  free  transition at x/c =  0.1613   31

  95   rms: 0.5335E+03   max: -.1442E+05   C at  104  2   RLX: 0.000
       a = -3.500      CL = -0.1507
      Cm =  0.0463     CD =  0.03568   =>   CDf =  0.00368    CDp =  0.03200

 MRCHDU: Convergence failed at 105  side 2    Res =  0.6293E-01
 Side 1  free  transition at x/c =  0.5424   49
 Side 2  free  transition at x/c =  0.1613   31

  96   rms: 0.8069E+03   max: -.2182E+05   C at  104  2   RLX: 0.000
       a = -3.500      CL = -0.1507
      Cm =  0.0463     CD =  0.03508   =>   CDf =  0.00368    CDp =  0.03140

 MRCHDU: Convergence failed at 105  side 2    Res =  0.6407E-01
 Side 1  free  transition at x/c =  0.5424   49
 Side 2  free  transition at x/c =  0.1613   31

  97   rms: 0.3205E+04   max: -.8667E+05   C at  104  2   RLX: 0.000
       a = -3.500      CL = -0.1507
      Cm =  0.0462     CD =  0.03446   =>   CDf =  0.00368    CDp =  0.03078

 MRCHDU: Convergence failed at 105  side 2    Res =  0.6512E-01
 Side 1  free  transition at x/c =  0.5425   49
 Side 2  free  transition at x/c =  0.1613   31

  98   rms: 0.6673E+03   max: 0.1802E+05   C at  104  2   RLX: 0.000
       a = -3.500      CL = -0.1505
      Cm =  0.0463     CD =  0.03700   =>   CDf =  0.00368    CDp =  0.03332

 MRCHDU: Convergence failed at 105  side 2    Res =  0.6287E-01
 Side 1  free  transition at x/c =  0.5424   49
 Side 2  free  transition at x/c =  0.1613   31

  99   rms: 0.4940E+03   max: -.1336E+05   C at  104  2   RLX: 0.000
       a = -3.500      CL = -0.1505
      Cm =  0.0463     CD =  0.03607   =>   CDf =  0.00368    CDp =  0.03239

 MRCHDU: Convergence failed at 105  side 2    Res =  0.6407E-01
 Side 1  free  transition at x/c =  0.5424   49
 Side 2  free  transition at x/c =  0.1613   31

 100   rms: 0.6375E+03   max: -.1725E+05   C at  104  2   RLX: 0.000
       a = -3.500      CL = -0.1505
      Cm =  0.0462     CD =  0.03559   =>   CDf =  0.00368    CDp =  0.03190

 MRCHDU: Convergence failed at 105  side 2    Res =  0.6517E-01
 Side 1  free  transition at x/c =  0.5424   49
 Side 2  free  transition at x/c =  0.1613   31

 101   rms: 0.9693E+03   max: -.2624E+05   C at  104  2   RLX: 0.000
       a = -3.500      CL = -0.1506
      Cm =  0.0462     CD =  0.03511   =>   CDf =  0.00368    CDp =  0.03143

 MRCHDU: Convergence failed at 105  side 2    Res =  0.6620E-01
 Side 1  free  transition at x/c =  0.5424   49
 Side 2  free  transition at x/c =  0.1613   31

 102   rms: 0.6054E+04   max: -.1639E+06   C at  104  2   RLX: 0.000
       a = -3.500      CL = -0.1506
      Cm =  0.0461     CD =  0.03461   =>   CDf =  0.00368    CDp =  0.03092

 MRCHDU: Convergence failed at 105  side 2    Res =  0.6721E-01
 Side 1  free  transition at x/c =  0.5425   49
 Side 2  free  transition at x/c =  0.1613   31

 103   rms: 0.7572E+03   max: 0.2047E+05   C at  104  2   RLX: 0.000
       a = -3.500      CL = -0.1504
      Cm =  0.0462     CD =  0.03672   =>   CDf =  0.00368    CDp =  0.03303

 MRCHDU: Convergence failed at 105  side 2    Res =  0.6494E-01
 Side 1  free  transition at x/c =  0.5424   49
 Side 2  free  transition at x/c =  0.1613   31

 104   rms: 0.5232E+03   max: -.1417E+05   C at  104  2   RLX: 0.000
       a = -3.500      CL = -0.1504
      Cm =  0.0462     CD =  0.03600   =>   CDf =  0.00368    CDp =  0.03231

 MRCHDU: Convergence failed at 105  side 2    Res =  0.6599E-01
 Side 1  free  transition at x/c =  0.5424   49
 Side 2  free  transition at x/c =  0.1613   31

 105   rms: 0.7300E+03   max: -.1977E+05   C at  104  2   RLX: 0.000
       a = -3.500      CL = -0.1504
      Cm =  0.0461     CD =  0.03561   =>   CDf =  0.00368    CDp =  0.03193

 MRCHDU: Convergence failed at 105  side 2    Res =  0.6702E-01
 Side 1  free  transition at x/c =  0.5424   49
 Side 2  free  transition at x/c =  0.1613   31

 106   rms: 0.1073E+04   max: -.2907E+05   C at  104  2   RLX: 0.000
       a = -3.500      CL = -0.1504
      Cm =  0.0461     CD =  0.03523   =>   CDf =  0.00368    CDp =  0.03155

 MRCHDU: Convergence failed at 105  side 2    Res =  0.6803E-01
 Side 1  free  transition at x/c =  0.5424   49
 Side 2  free  transition at x/c =  0.1613   31

 107   rms: 0.4198E+04   max: -.1137E+06   C at  104  2   RLX: 0.000
       a = -3.500      CL = -0.1504
      Cm =  0.0461     CD =  0.03483   =>   CDf =  0.00368    CDp =  0.03114

 MRCHDU: Convergence failed at 105  side 2    Res =  0.6905E-01
 Side 1  free  transition at x/c =  0.5424   49
 Side 2  free  transition at x/c =  0.1613   31

 108   rms: 0.1151E+04   max: 0.3116E+05   C at  104  2   RLX: 0.000
       a = -3.500      CL = -0.1503
      Cm =  0.0461     CD =  0.03653   =>   CDf =  0.00368    CDp =  0.03284

 MRCHDU: Convergence failed at 105  side 2    Res =  0.6667E-01
 Side 1  free  transition at x/c =  0.5424   49
 Side 2  free  transition at x/c =  0.1613   31

 109   rms: 0.6511E+03   max: -.1764E+05   C at  104  2   RLX: 0.000
       a = -3.500      CL = -0.1503
      Cm =  0.0461     CD =  0.03594   =>   CDf =  0.00368    CDp =  0.03226

 MRCHDU: Convergence failed at 105  side 2    Res =  0.6768E-01
 Side 1  free  transition at x/c =  0.5424   49
 Side 2  free  transition at x/c =  0.1613   31

 110   rms: 0.8399E+03   max: -.2276E+05   C at  104  2   RLX: 0.000
       a = -3.500      CL = -0.1503
      Cm =  0.0461     CD =  0.03562   =>   CDf =  0.00368    CDp =  0.03194

 MRCHDU: Convergence failed at 105  side 2    Res =  0.6870E-01
 Side 1  free  transition at x/c =  0.5424   49
 Side 2  free  transition at x/c =  0.1613   31

 111   rms: 0.1404E+04   max: -.3805E+05   C at  104  2   RLX: 0.000
       a = -3.500      CL = -0.1503
      Cm =  0.0460     CD =  0.03531   =>   CDf =  0.00368    CDp =  0.03163

 MRCHDU: Convergence failed at 105  side 2    Res =  0.6973E-01
 Side 1  free  transition at x/c =  0.5424   49
 Side 2  free  transition at x/c =  0.1613   31

 112   rms: 0.5143E+04   max: -.1393E+06   C at  104  2   RLX: 0.000
       a = -3.500      CL = -0.1503
      Cm =  0.0460     CD =  0.03496   =>   CDf =  0.00368    CDp =  0.03128

 MRCHDU: Convergence failed at 105  side 2    Res =  0.7077E-01
 Side 1  free  transition at x/c =  0.5424   49
 Side 2  free  transition at x/c =  0.1613   31

 113   rms: 0.1386E+04   max: 0.3753E+05   C at  104  2   RLX: 0.000
       a = -3.500      CL = -0.1502
      Cm =  0.0461     CD =  0.03642   =>   CDf =  0.00368    CDp =  0.03274

 MRCHDU: Convergence failed at 105  side 2    Res =  0.6825E-01
 Side 1  free  transition at x/c =  0.5424   49
 Side 2  free  transition at x/c =  0.1613   31

 114   rms: 0.7601E+03   max: -.2060E+05   C at  104  2   RLX: 0.000
       a = -3.500      CL = -0.1502
      Cm =  0.0460     CD =  0.03592   =>   CDf =  0.00368    CDp =  0.03224

 MRCHDU: Convergence failed at 105  side 2    Res =  0.6926E-01
 Side 1  free  transition at x/c =  0.5424   49
 Side 2  free  transition at x/c =  0.1613   31

 115   rms: 0.9988E+03   max: -.2707E+05   C at  104  2   RLX: 0.000
       a = -3.500      CL = -0.1502
      Cm =  0.0460     CD =  0.03566   =>   CDf =  0.00368    CDp =  0.03197

 MRCHDU: Convergence failed at 105  side 2    Res =  0.7030E-01
 Side 1  free  transition at x/c =  0.5424   49
 Side 2  free  transition at x/c =  0.1613   31

 116   rms: 0.1534E+04   max: -.4158E+05   C at  104  2   RLX: 0.000
       a = -3.500      CL = -0.1502
      Cm =  0.0460     CD =  0.03539   =>   CDf =  0.00368    CDp =  0.03170

 MRCHDU: Convergence failed at 105  side 2    Res =  0.7135E-01
 Side 1  free  transition at x/c =  0.5424   49
 Side 2  free  transition at x/c =  0.1613   31

 117   rms: 0.5161E+04   max: -.1399E+06   C at  104  2   RLX: 0.000
       a = -3.500      CL = -0.1502
[...]
 MRCHDU: Convergence failed at 103  side 2    Res =  0.4043E-01
 MRCHDU: Convergence failed at 104  side 2    Res =  0.4356E-01
 MRCHDU: Convergence failed at 105  side 2    Res =  0.2158E-01
 Side 1  free  transition at x/c =  0.5263   49
 Side 2  free  transition at x/c =  0.0731   25

 126   rms: 0.4431E+03   max: -.7966E+04   C at   83  2   RLX: 0.000
       a = 10.750      CL = -0.0962
      Cm =  0.0505     CD =  0.00001   =>   CDf =  0.00363    CDp = -0.00361

 MRCHDU: Convergence failed at 100  side 2    Res =  0.1275E-01
 MRCHDU: Convergence failed at 101  side 2    Res =  0.5906E-01
 MRCHDU: Convergence failed at 102  side 2    Res =  0.3016E-01
 MRCHDU: Convergence failed at 103  side 2    Res =  0.4048E-01
 MRCHDU: Convergence failed at 104  side 2    Res =  0.3954E-01
 MRCHDU: Convergence failed at 105  side 2    Res =  0.1153E-01
 Side 1  free  transition at x/c =  0.5264   49
 Side 2  free  transition at x/c =  0.0731   25

 127   rms: 0.3618E+04   max: 0.6533E+05   C at   83  2   RLX: 0.000
       a = 10.750      CL = -0.0948
      Cm =  0.0504     CD =  0.00047   =>   CDf =  0.00363    CDp = -0.00316

 MRCHDU: Convergence failed at 100  side 2    Res =  0.1279E-01
 MRCHDU: Convergence failed at 101  side 2    Res =  0.5882E-01
 MRCHDU: Convergence failed at 102  side 2    Res =  0.3005E-01
 MRCHDU: Convergence failed at 103  side 2    Res =  0.4075E-01
 MRCHDU: Convergence failed at 104  side 2    Res =  0.7396E-01
 MRCHDU: Convergence failed at 105  side 2    Res =  0.1446E+00
 Side 1  free  transition at x/c =  0.5262   49
 Side 2  free  transition at x/c =  0.0732   25

 128   rms: 0.1080E+03   max: -.1777E+04   C at   83  2   RLX: 0.000
       a = 10.750      CL = -0.0952
      Cm =  0.0504     CD =  0.00019   =>   CDf =  0.00363    CDp = -0.00344

 MRCHDU: Convergence failed at 100  side 2    Res =  0.1277E-01
 MRCHDU: Convergence failed at 101  side 2    Res =  0.5894E-01
 MRCHDU: Convergence failed at 102  side 2    Res =  0.3012E-01
 MRCHDU: Convergence failed at 103  side 2    Res =  0.3929E-01
 MRCHDU: Convergence failed at 104  side 2    Res =  0.1367E+00
 MRCHDU: Convergence failed at 105  side 2    Res =  0.4601E-01
 Side 1  free  transition at x/c =  0.5262   49
 Side 2  free  transition at x/c =  0.0732   25

 129   rms: 0.3406E+03   max: -.6158E+04   C at   83  2   RLX: 0.000
       a = 10.750      CL = -0.0957
      Cm =  0.0505     CD =  0.00007   =>   CDf =  0.00363    CDp = -0.00356

 MRCHDU: Convergence failed at 100  side 2    Res =  0.1276E-01
 MRCHDU: Convergence failed at 101  side 2    Res =  0.5903E-01
 MRCHDU: Convergence failed at 102  side 2    Res =  0.3016E-01
 MRCHDU: Convergence failed at 103  side 2    Res =  0.3934E-01
 MRCHDU: Convergence failed at 104  side 2    Res =  0.2947E-01
 MRCHDU: Convergence failed at 105  side 2    Res =  0.1714E-01
 Side 1  free  transition at x/c =  0.5263   49
 Side 2  free  transition at x/c =  0.0731   25

 130   rms: 0.1830E+05   max: -.3336E+06   C at   83  2   RLX: 0.000
       a = 10.750      CL = -0.0962
      Cm =  0.0505     CD =  0.00002   =>   CDf =  0.00363    CDp = -0.00361

 MRCHDU: Convergence failed at 100  side 2    Res =  0.1276E-01
 MRCHDU: Convergence failed at 101  side 2    Res =  0.5910E-01
 MRCHDU: Convergence failed at 102  side 2    Res =  0.3019E-01
 MRCHDU: Convergence failed at 103  side 2    Res =  0.3899E-01
 MRCHDU: Convergence failed at 104  side 2    Res =  0.2614E-01
 MRCHDU: Convergence failed at 105  side 2    Res =  0.1021E-01
 Side 1  free  transition at x/c =  0.5264   49
 Side 2  free  transition at x/c =  0.0731   25

 131   rms: 0.6405E+03   max: 0.1169E+05   C at   83  2   RLX: 0.000
       a = 10.750      CL = -0.0948
      Cm =  0.0504     CD =  0.00041   =>   CDf =  0.00363    CDp = -0.00322

 MRCHDU: Convergence failed at 100  side 2    Res =  0.1279E-01
 MRCHDU: Convergence failed at 101  side 2    Res =  0.5891E-01
 MRCHDU: Convergence failed at 102  side 2    Res =  0.3012E-01
 MRCHDU: Convergence failed at 103  side 2    Res =  0.4111E-01
 MRCHDU: Convergence failed at 104  side 2    Res =  0.4690E-01
 MRCHDU: Convergence failed at 105  side 2    Res =  0.1190E+00
 Side 1  free  transition at x/c =  0.5262   49
 Side 2  free  transition at x/c =  0.0732   25

 132   rms: 0.2468E+03   max: -.4328E+04   C at   83  2   RLX: 0.000
       a = 10.750      CL = -0.0953
      Cm =  0.0504     CD =  0.00009   =>   CDf =  0.00363    CDp = -0.00354

 MRCHDU: Convergence failed at 100  side 2    Res =  0.1278E-01
 MRCHDU: Convergence failed at 101  side 2    Res =  0.5901E-01
 MRCHDU: Convergence failed at 102  side 2    Res =  0.3018E-01
 MRCHDU: Convergence failed at 103  side 2    Res =  0.4108E-01
 MRCHDU: Convergence failed at 104  side 2    Res =  0.5652E-01
 MRCHDU: Convergence failed at 105  side 2    Res =  0.2828E-01
 Side 1  free  transition at x/c =  0.5263   49
 Side 2  free  transition at x/c =  0.0732   25

 133   rms: 0.1160E+04   max: -.2108E+05   C at   83  2   RLX: 0.000
       a = 10.750      CL = -0.0958
      Cm =  0.0505     CD =  0.00003   =>   CDf =  0.00363    CDp = -0.00360

 MRCHDU: Convergence failed at 100  side 2    Res =  0.1277E-01
 MRCHDU: Convergence failed at 101  side 2    Res =  0.5908E-01
 MRCHDU: Convergence failed at 102  side 2    Res =  0.3021E-01
 MRCHDU: Convergence failed at 103  side 2    Res =  0.4120E-01
 MRCHDU: Convergence failed at 104  side 2    Res =  0.5402E-01
 MRCHDU: Convergence failed at 105  side 2    Res =  0.1504E-01
 Side 1  free  transition at x/c =  0.5263   49
 Side 2  free  transition at x/c =  0.0731   25

 134   rms: 0.8045E+03   max: 0.1475E+05   C at   83  2   RLX: 0.000
       a = 10.750      CL = -0.0944
      Cm =  0.0503     CD =  0.00048   =>   CDf =  0.00363    CDp = -0.00315

 MRCHDU: Convergence failed at 100  side 2    Res =  0.1281E-01
 MRCHDU: Convergence failed at 101  side 2    Res =  0.5888E-01
 MRCHDU: Convergence failed at 102  side 2    Res =  0.3012E-01
 MRCHDU: Convergence failed at 103  side 2    Res =  0.4056E-01
 MRCHDU: Convergence failed at 104  side 2    Res =  0.8279E-01
 MRCHDU: Convergence failed at 105  side 2    Res =  0.7189E+00
 Side 1  free  transition at x/c =  0.5261   49
 Side 2  free  transition at x/c =  0.0732   25

 135   rms: 0.1718E+03   max: -.2847E+04   C at   83  2   RLX: 0.000
       a = 10.750      CL = -0.0948
      Cm =  0.0504     CD =  0.00025   =>   CDf =  0.00363    CDp = -0.00338

 MRCHDU: Convergence failed at 100  side 2    Res =  0.1280E-01
 MRCHDU: Convergence failed at 101  side 2    Res =  0.5898E-01
 MRCHDU: Convergence failed at 102  side 2    Res =  0.3017E-01
 MRCHDU: Convergence failed at 103  side 2    Res =  0.3875E-01
 MRCHDU: Convergence failed at 104  side 2    Res =  0.2295E+00
 MRCHDU: Convergence failed at 105  side 2    Res =  0.5414E-01
 Side 1  free  transition at x/c =  0.5262   49
 Side 2  free  transition at x/c =  0.0732   25

 136   rms: 0.7917E+03   max: -.1448E+05   C at   83  2   RLX: 0.000
       a = 10.750      CL = -0.0953
      Cm =  0.0504     CD =  0.00011   =>   CDf =  0.00363    CDp = -0.00353

 MRCHDU: Convergence failed at 100  side 2    Res =  0.1279E-01
 MRCHDU: Convergence failed at 101  side 2    Res =  0.5906E-01
 MRCHDU: Convergence failed at 102  side 2    Res =  0.3021E-01
 MRCHDU: Convergence failed at 103  side 2    Res =  0.3879E-01
 MRCHDU: Convergence failed at 104  side 2    Res =  0.2909E-01
 MRCHDU: Convergence failed at 105  side 2    Res =  0.2071E-01
 Side 1  free  transition at x/c =  0.5263   49
 Side 2  free  transition at x/c =  0.0732   25

 137   rms: 0.1135E+04   max: 0.2089E+05   C at   83  2   RLX: 0.000
       a = 10.750      CL = -0.0939
      Cm =  0.0502     CD =  0.00103   =>   CDf =  0.00363    CDp = -0.00260

 MRCHDU: Convergence failed at 100  side 2    Res =  0.1283E-01
 MRCHDU: Convergence failed at 101  side 2    Res =  0.5884E-01
 MRCHDU: Convergence failed at 102  side 2    Res =  0.3012E-01
 MRCHDU: Convergence failed at 103  side 2    Res =  0.3960E-01
 MRCHDU: Convergence failed at 104  side 2    Res =  0.3901E-01
 MRCHDU: Convergence failed at 105  side 2    Res =  0.3628E+00
 Side 1  free  transition at x/c =  0.5261   49
 Side 2  free  transition at x/c =  0.0732   25

 138   rms: 0.1509E+03   max: -.2702E+04   C at   83  2   RLX: 0.000
       a = 10.750      CL = -0.0943
      Cm =  0.0503     CD =  0.00007   =>   CDf =  0.00363    CDp = -0.00356

 MRCHDU: Convergence failed at 100  side 2    Res =  0.1282E-01
 MRCHDU: Convergence failed at 101  side 2    Res =  0.5894E-01
 MRCHDU: Convergence failed at 102  side 2    Res =  0.3018E-01
 MRCHDU: Convergence failed at 103  side 2    Res =  0.3973E-01
 MRCHDU: Convergence failed at 104  side 2    Res =  0.4250E-01
 MRCHDU: Convergence failed at 105  side 2    Res =  0.2313E-01
 Side 1  free  transition at x/c =  0.5261   49
 Side 2  free  transition at x/c =  0.0732   25

 139   rms: 0.4457E+03   max: -.7984E+04   C at   83  2   RLX: 0.000
       a = 10.750      CL = -0.0948
      Cm =  0.0503     CD =  0.00002   =>   CDf =  0.00363    CDp = -0.00362

 MRCHDU: Convergence failed at 100  side 2    Res =  0.1280E-01
 MRCHDU: Convergence failed at 101  side 2    Res =  0.5902E-01
 MRCHDU: Convergence failed at 102  side 2    Res =  0.3022E-01
 MRCHDU: Convergence failed at 103  side 2    Res =  0.3975E-01
 MRCHDU: Convergence failed at 104  side 2    Res =  0.3889E-01
 MRCHDU: Convergence failed at 105  side 2    Res =  0.1199E-01
 Side 1  free  transition at x/c =  0.5262   49
 Side 2  free  transition at x/c =  0.0732   25

 140   rms: 0.1925E+04   max: 0.3490E+05   C at   83  2   RLX: 0.000
       a = 10.750      CL = -0.0934
      Cm =  0.0502     CD =  0.00045   =>   CDf =  0.00363    CDp = -0.00318

 MRCHDU: Convergence failed at 100  side 2    Res =  0.1285E-01
 MRCHDU: Convergence failed at 101  side 2    Res =  0.5880E-01
 MRCHDU: Convergence failed at 102  side 2    Res =  0.3012E-01
 MRCHDU: Convergence failed at 103  side 2    Res =  0.4009E-01
 MRCHDU: Convergence failed at 104  side 2    Res =  0.6944E-01
 MRCHDU: Convergence failed at 105  side 2    Res =  0.1439E+00
 Side 1  free  transition at x/c =  0.5260   49
 Side 2  free  transition at x/c =  0.0732   25

 141   rms: 0.1186E+03   max: -.1909E+04   C at   83  2   RLX: 0.000
       a = 10.750      CL = -0.0939
      Cm =  0.0502     CD =  0.00016   =>   CDf =  0.00363    CDp = -0.00347

 MRCHDU: Convergence failed at 100  side 2    Res =  0.1283E-01
 MRCHDU: Convergence failed at 101  side 2    Res =  0.5893E-01
 MRCHDU: Convergence failed at 102  side 2    Res =  0.3018E-01
 MRCHDU: Convergence failed at 103  side 2    Res =  0.3874E-01
 MRCHDU: Convergence failed at 104  side 2    Res =  0.1341E+00
 MRCHDU: Convergence failed at 105  side 2    Res =  0.4104E-01
 Side 1  free  transition at x/c =  0.5261   49
 Side 2  free  transition at x/c =  0.0732   25

 142   rms: 0.3265E+03   max: -.5936E+04   C at   83  2   RLX: 0.000
       a = 10.750      CL = -0.0943
      Cm =  0.0503     CD =  0.00005   =>   CDf =  0.00363    CDp = -0.00358

 MRCHDU: Convergence failed at 100  side 2    Res =  0.1282E-01
 MRCHDU: Convergence failed at 101  side 2    Res =  0.5901E-01
 MRCHDU: Convergence failed at 102  side 2    Res =  0.3023E-01
 MRCHDU: Convergence failed at 103  side 2    Res =  0.3878E-01
 MRCHDU: Convergence failed at 104  side 2    Res =  0.2828E-01
 MRCHDU: Convergence failed at 105  side 2    Res =  0.1599E-01
 Side 1  free  transition at x/c =  0.5261   49
 Side 2  free  transition at x/c =  0.0732   25

 143   rms: 0.1660E+05   max: 0.3029E+06   C at   83  2   RLX: 0.000
       a = 10.750      CL = -0.0929
      Cm =  0.0501     CD =  0.00085   =>   CDf =  0.00363    CDp = -0.00278

 MRCHDU: Convergence failed at 100  side 2    Res =  0.1287E-01
 MRCHDU: Convergence failed at 101  side 2    Res =  0.5877E-01
 MRCHDU: Convergence failed at 102  side 2    Res =  0.3013E-01
 MRCHDU: Convergence failed at 103  side 2    Res =  0.4009E-01
 MRCHDU: Convergence failed at 104  side 2    Res =  0.4389E-01
 MRCHDU: Convergence failed at 105  side 2    Res =  0.3591E+00
 Side 1  free  transition at x/c =  0.5259   49
 Side 2  free  transition at x/c =  0.0732   25

 144   rms: 0.9130E+02   max: -.1541E+04   C at   83  2   RLX: 0.000
       a = 10.750      CL = -0.0933
      Cm =  0.0501     CD =  0.00005   =>   CDf =  0.00363    CDp = -0.00358

 MRCHDU: Convergence failed at 100  side 2    Res =  0.1285E-01
 MRCHDU: Convergence failed at 101  side 2    Res =  0.5891E-01
 MRCHDU: Convergence failed at 102  side 2    Res =  0.3020E-01
 MRCHDU: Convergence failed at 103  side 2    Res =  0.4017E-01
 MRCHDU: Convergence failed at 104  side 2    Res =  0.5359E-01
 MRCHDU: Convergence failed at 105  side 2    Res =  0.2283E-01
 Side 1  free  transition at x/c =  0.5260   49
 Side 2  free  transition at x/c =  0.0732   25

 145   rms: 0.3314E+03   max: -.5857E+04   C at   83  2   RLX: 0.000
       a = 10.750      CL = -0.0939
      Cm =  0.0502     CD =  0.00001   =>   CDf =  0.00363    CDp = -0.00362

 MRCHDU: Convergence failed at 100  side 2    Res =  0.1283E-01
 MRCHDU: Convergence failed at 101  side 2    Res =  0.5901E-01
 MRCHDU: Convergence failed at 102  side 2    Res =  0.3025E-01
 MRCHDU: Convergence failed at 103  side 2    Res =  0.4035E-01
 MRCHDU: Convergence failed at 104  side 2    Res =  0.4875E-01
 MRCHDU: Convergence failed at 105  side 2    Res =  0.1105E-01
 Side 1  free  transition at x/c =  0.5261   49
 Side 2  free  transition at x/c =  0.0732   25

 146   rms: 0.1962E+04   max: -.3521E+05   C at   83  2   RLX: 0.000
       a = 10.750      CL = -0.0943
      Cm =  0.0503     CD =  0.00000   =>   CDf =  0.00363    CDp = -0.00363

 MRCHDU: Convergence failed at 100  side 2    Res =  0.1283E-01
 MRCHDU: Convergence failed at 101  side 2    Res =  0.5907E-01
 MRCHDU: Convergence failed at 102  side 2    Res =  0.3029E-01
 MRCHDU: Convergence failed at 103  side 2    Res =  0.4053E-01
 MRCHDU: Convergence failed at 104  side 2    Res =  0.4077E-01
 MRCHDU: Convergence failed at 105  side 2    Res =  0.6299E-02
 Side 1  free  transition at x/c =  0.5261   49
 Side 2  free  transition at x/c =  0.0732   25

 147   rms: 0.7124E+03   max: 0.1255E+05   C at   83  2   RLX: 0.000
       a = 10.750      CL = -0.0930
      Cm =  0.0501     CD =  0.00016   =>   CDf =  0.00363    CDp = -0.00348

 MRCHDU: Convergence failed at 100  side 2    Res =  0.1286E-01
 MRCHDU: Convergence failed at 101  side 2    Res =  0.5888E-01
 MRCHDU: Convergence failed at 102  side 2    Res =  0.3020E-01
 MRCHDU: Convergence failed at 103  side 2    Res =  0.4082E-01
 MRCHDU: Convergence failed at 104  side 2    Res =  0.1105E+00
 MRCHDU: Convergence failed at 105  side 2    Res =  0.4008E-01
 Side 1  free  transition at x/c =  0.5259   49
 Side 2  free  transition at x/c =  0.0732   25

 148   rms: 0.2276E+03   max: -.4094E+04   C at   83  2   RLX: 0.000
       a = 10.750      CL = -0.0934
      Cm =  0.0501     CD =  0.00004   =>   CDf =  0.00363    CDp = -0.00359

 MRCHDU: Convergence failed at 100  side 2    Res =  0.1285E-01
 MRCHDU: Convergence failed at 101  side 2    Res =  0.5898E-01
 MRCHDU: Convergence failed at 102  side 2    Res =  0.3025E-01
 MRCHDU: Convergence failed at 103  side 2    Res =  0.4088E-01
 MRCHDU: Convergence failed at 104  side 2    Res =  0.3095E-01
 MRCHDU: Convergence failed at 105  side 2    Res =  0.1491E-01
 Side 1  free  transition at x/c =  0.5260   49
 Side 2  free  transition at x/c =  0.0732   25

 149   rms: 0.1120E+04   max: -.2020E+05   C at   83  2   RLX: 0.000
       a = 10.750      CL = -0.0939
      Cm =  0.0502     CD =  0.00001   =>   CDf =  0.00363    CDp = -0.00363

 MRCHDU: Convergence failed at 100  side 2    Res =  0.1284E-01
 MRCHDU: Convergence failed at 101  side 2    Res =  0.5905E-01
 MRCHDU: Convergence failed at 102  side 2    Res =  0.3029E-01
 MRCHDU: Convergence failed at 103  side 2    Res =  0.4050E-01
 MRCHDU: Convergence failed at 104  side 2    Res =  0.2669E-01
 MRCHDU: Convergence failed at 105  side 2    Res =  0.8589E-02
 Side 1  free  transition at x/c =  0.5261   49
 Side 2  free  transition at x/c =  0.0732   25

 150   rms: 0.9238E+03   max: 0.1667E+05   C at   83  2   RLX: 0.000
       a = 10.750      CL = -0.0926
      Cm =  0.0500     CD =  0.00032   =>   CDf =  0.00363    CDp = -0.00331

 MRCHDU: Convergence failed at 100  side 2    Res =  0.1288E-01
 MRCHDU: Convergence failed at 101  side 2    Res =  0.5885E-01
 MRCHDU: Convergence failed at 102  side 2    Res =  0.3021E-01
 MRCHDU: Convergence failed at 103  side 2    Res =  0.4295E-01
 MRCHDU: Convergence failed at 104  side 2    Res =  0.5492E-01
 MRCHDU: Convergence failed at 105  side 2    Res =  0.1010E+00
 Side 1  free  transition at x/c =  0.5259   49
 Side 2  free  transition at x/c =  0.0732   25

 151   rms: 0.1551E+03   max: -.2743E+04   C at   83  2   RLX: 0.000
       a = 10.750      CL = -0.0929
      Cm =  0.0501     CD =  0.00011   =>   CDf =  0.00363    CDp = -0.00352

 MRCHDU: Convergence failed at 100  side 2    Res =  0.1287E-01
 MRCHDU: Convergence failed at 101  side 2    Res =  0.5895E-01
 MRCHDU: Convergence failed at 102  side 2    Res =  0.3026E-01
 MRCHDU: Convergence failed at 103  side 2    Res =  0.4265E-01
 MRCHDU: Convergence failed at 104  side 2    Res =  0.6924E-01
 MRCHDU: Convergence failed at 105  side 2    Res =  0.3841E-01
 Side 1  free  transition at x/c =  0.5259   49
 Side 2  free  transition at x/c =  0.0732   25

 152   rms: 0.6795E+03   max: -.1222E+05   C at   83  2   RLX: 0.000
       a = 10.750      CL = -0.0934
      Cm =  0.0501     CD =  0.00004   =>   CDf =  0.00363    CDp = -0.00359

 MRCHDU: Convergence failed at 100  side 2    Res =  0.1286E-01
 MRCHDU: Convergence failed at 101  side 2    Res =  0.5902E-01
 MRCHDU: Convergence failed at 102  side 2    Res =  0.3030E-01
 MRCHDU: Convergence failed at 103  side 2    Res =  0.4268E-01
 MRCHDU: Convergence failed at 104  side 2    Res =  0.6972E-01
 MRCHDU: Convergence failed at 105  side 2    Res =  0.1841E-01
 Side 1  free  transition at x/c =  0.5260   49
 Side 2  free  transition at x/c =  0.0732   25

 153   rms: 0.1385E+04   max: 0.2536E+05   C at   83  2   RLX: 0.000
       a = 10.750      CL = -0.0920
      Cm =  0.0500     CD =  0.00056   =>   CDf =  0.00363    CDp = -0.00308

 MRCHDU: Convergence failed at 100  side 2    Res =  0.1290E-01
 MRCHDU: Convergence failed at 101  side 2    Res =  0.5881E-01
 MRCHDU: Convergence failed at 102  side 2    Res =  0.3020E-01
 MRCHDU: Convergence failed at 103  side 2    Res =  0.4166E-01
 MRCHDU: Convergence failed at 104  side 2    Res =  0.9823E-01
 MRCHDU: Convergence failed at 105  side 2    Res =  0.9569E-01
 Side 1  free  transition at x/c =  0.5258   49
 Side 2  free  transition at x/c =  0.0732   25

 154   rms: 0.7576E+03   max: -.2028E+05   C at  105  2   RLX: 0.000
       a = 10.750      CL = -0.0921
      Cm =  0.0500     CD =  0.00049   =>   CDf =  0.00363    CDp = -0.00314

 MRCHDU: Convergence failed at 100  side 2    Res =  0.1290E-01
 MRCHDU: Convergence failed at 101  side 2    Res =  0.5882E-01
 MRCHDU: Convergence failed at 102  side 2    Res =  0.3021E-01
 MRCHDU: Convergence failed at 103  side 2    Res =  0.4130E-01
 MRCHDU: Convergence failed at 104  side 2    Res =  0.1077E+00
 MRCHDU: Convergence failed at 105  side 2    Res =  0.1564E+00
 Side 1  free  transition at x/c =  0.5258   49
 Side 2  free  transition at x/c =  0.0732   25

 155   rms: 0.1443E+03   max: -.2583E+04   C at   83  2   RLX: 0.000
       a = 10.750      CL = -0.0925
      Cm =  0.0500     CD =  0.00003   =>   CDf =  0.00363    CDp = -0.00360
 VISCAL:  Convergence failed

 Sequence halted since previous  4 points did not converge
 Last-converged  alpha =  -2.000    CL =  -0.15957

.OPERva   c>  
 Polar accumulation disabled

.OPERv   c>  
 XFOIL   c>  
 XFOIL   c>  