
 ===================================================
  XFOIL Version 6.99
  Copyright (C) 2000   Mark Drela, Harold Youngren

  This software comes with ABSOLUTELY NO WARRANTY,
    subject to the GNU General Public License.

  Caveat computor
 ===================================================

 File  xfoil.def  not found

   QUIT    Exit program

  .OPER    Direct operating point(s)
  .MDES    Complex mapping design routine
  .QDES    Surface speed design routine
  .GDES    Geometry design routine

   SAVE f  Write airfoil to labeled coordinate file
   PSAV f  Write airfoil to plain coordinate file
   ISAV f  Write airfoil to ISES coordinate file
   MSAV f  Write airfoil to MSES coordinate file
   REVE    Reverse written-airfoil node ordering

   LOAD f  Read buffer airfoil from coordinate file
   NACA i  Set NACA 4,5-digit airfoil and buffer airfoil
   INTE    Set buffer airfoil by interpolating two airfoils
   NORM    Buffer airfoil normalization toggle
   XYCM rr Change CM reference location, currently  0.25000 0.00000

   BEND    Display structural properties of current airfoil

   PCOP    Set current-airfoil panel nodes directly from buffer airfoil points
   PANE    Set current-airfoil panel nodes ( 160 ) based on curvature
  .PPAR    Show/change paneling

  .PLOP    Plotting options

   WDEF f  Write  current-settings file
   RDEF f  Reread current-settings file
   NAME s  Specify new airfoil name
   NINC    Increment name version number

   Z       Zoom    | (available in all menus)
   U       Unzoom  | 

 XFOIL   c>  
 Labeled airfoil file.  Name:  NACA M27 AIRFOIL                                

 Number of input coordinate points:  33
 Counterclockwise ordering
 Max thickness =     0.119500  at x =   0.300
 Max camber    =     0.081645  at x =   0.300

  LE  x,y  =  -0.00037   0.00288  |   Chord =   1.00037
  TE  x,y  =   1.00000   0.00000  |

 Current airfoil nodes set from buffer airfoil nodes (  33 )

 WARNING: Poor input coordinate distribution
          Excessive panel angle   73.7  at i =  17
          Repaneling with PANE and/or PPAR suggested
           (doing GDES,CADD before repaneling _may_
            improve excessively coarse LE spacing

 XFOIL   c>  
 XFOIL   c>  
 Blunt trailing edge.  Gap =  0.00520

 Paneling parameters used...
   Number of panel nodes       160
   Panel bunching parameter    1.000
   TE/LE panel density ratio   0.150
   Refined-area/LE panel density ratio    0.200
   Top    side refined area x/c limits  1.000 1.000
   Bottom side refined area x/c limits  1.000 1.000

 XFOIL   c>  
.OPERi   c>  
 Xtr/c     =  1.0000    top    side
 Xtr/c     =  1.0000    bottom side
 Ncrit     =    9.00   ( 0.070 % turb. level )
 Vacc      =  0.0100

 Klag  =  5.6000     Uxwt  =    1.00
 A     =  6.7000     B     =  0.7500       KCt = 0.01485
 CtiniK=  1.8000     CtiniX=  3.3000

..VPAR   c>  
..VPAR   c>  
.OPERi   c>  
 M  =    0.0000
 Re =    150000

.OPERv   c>  
.OPERv   c>  
.OPERv   c>  
 Polar  1 newly created for accumulation
 Airfoil archived with polar: NACA M27 AIRFOIL                                

Enter  polar save filename  OR  <return> for no file   s>  
 New polar save file available

Enter  polar dump filename  OR  <return> for no file   s>  
 Polar dump file will NOT be written

 Polar accumulation enabled

.OPERva   c>   Calculating unit vorticity distributions ...
 Calculating wake trajectory ...
 Calculating source influence matrix ...

 Solving BL system ...

 Initializing BL ...
    side            1  ...
 MRCHUE: Inverse mode at  37     Hk =   4.054
 MRCHUE: Inverse mode at  38     Hk =   4.554
 MRCHUE: Inverse mode at  39     Hk =   5.041
 MRCHUE: Inverse mode at  40     Hk =   5.516
 MRCHUE: Inverse mode at  41     Hk =   5.982
 MRCHUE: Inverse mode at  42     Hk =   6.440
 MRCHUE: Inverse mode at  43     Hk =   6.891
 MRCHUE: Inverse mode at  44     Hk =   7.337
 MRCHUE: Inverse mode at  45     Hk =   7.777
 MRCHUE: Inverse mode at  46     Hk =   8.213
 MRCHUE: Inverse mode at  47     Hk =   8.645
 MRCHUE: Inverse mode at  48     Hk =   9.074
 MRCHUE: Inverse mode at  49     Hk =   9.500
 MRCHUE: Inverse mode at  50     Hk =   8.988
 MRCHUE: Inverse mode at  51     Hk =   7.205
 MRCHUE: Inverse mode at  52     Hk =   6.010
 MRCHUE: Inverse mode at  53     Hk =   5.097
 MRCHUE: Inverse mode at  54     Hk =   4.357
 MRCHUE: Inverse mode at  55     Hk =   3.738
 MRCHUE: Inverse mode at  56     Hk =   3.210
 MRCHUE: Inverse mode at  57     Hk =   2.746
 MRCHUE: Inverse mode at  58     Hk =   2.500
 MRCHUE: Inverse mode at  59     Hk =   2.500
 MRCHUE: Inverse mode at  60     Hk =   2.500
 MRCHUE: Inverse mode at  61     Hk =   2.500
 MRCHUE: Inverse mode at  62     Hk =   2.500
 MRCHUE: Inverse mode at  63     Hk =   2.500
 MRCHUE: Inverse mode at  64     Hk =   2.500
 MRCHUE: Inverse mode at  65     Hk =   2.500
 MRCHUE: Inverse mode at  66     Hk =   2.500
 MRCHUE: Inverse mode at  67     Hk =   2.500
 MRCHUE: Inverse mode at  68     Hk =   2.500
 MRCHUE: Inverse mode at  69     Hk =   2.500
 MRCHUE: Inverse mode at  70     Hk =   2.500
 MRCHUE: Inverse mode at  71     Hk =   2.500
 MRCHUE: Inverse mode at  72     Hk =   2.500
 MRCHUE: Inverse mode at  73     Hk =   2.500
    side            2  ...
 MRCHUE: Inverse mode at  22     Hk =   3.800
 MRCHUE: Convergence failed at  23  side 2    Res =  0.1870E+01
 MRCHUE: Convergence failed at  24  side 2    Res =  0.1557E+01
 MRCHUE: Convergence failed at  25  side 2    Res =  0.1051E+01
 MRCHUE: Inverse mode at  26     Hk =   4.884
 MRCHUE: Inverse mode at  27     Hk =   5.900
 MRCHUE: Convergence failed at  28  side 2    Res =  0.8793E+01
 MRCHUE: Inverse mode at  29     Hk =   6.918
 MRCHUE: Inverse mode at  30     Hk =   7.971
 MRCHUE: Inverse mode at  31     Hk =   5.174
 MRCHUE: Inverse mode at  32     Hk =   2.500
 MRCHUE: Inverse mode at  33     Hk =   2.500
 MRCHUE: Inverse mode at  34     Hk =   2.500
 MRCHUE: Inverse mode at  35     Hk =   2.500
 MRCHUE: Inverse mode at  36     Hk =   2.500
 MRCHUE: Inverse mode at  37     Hk =   2.500
 MRCHUE: Inverse mode at  38     Hk =   2.500
 MRCHUE: Inverse mode at  39     Hk =   2.500
 MRCHUE: Inverse mode at  40     Hk =   2.500
 MRCHUE: Inverse mode at  41     Hk =   2.500
 MRCHUE: Inverse mode at  89     Hk =   2.500

 MRCHDU: Convergence failed at  23  side 2    Res =  0.2861E+01
 MRCHDU: Convergence failed at  24  side 2    Res =  0.3234E+01
 MRCHDU: Convergence failed at  25  side 2    Res =  0.8191E+01
 MRCHDU: Convergence failed at  26  side 2    Res =  0.6964E+01
 MRCHDU: Convergence failed at  27  side 2    Res =  0.1954E+02
 MRCHDU: Convergence failed at  28  side 2    Res =  0.2156E+02
 MRCHDU: Convergence failed at  29  side 2    Res =  0.8374E+02
 MRCHDU: Convergence failed at  30  side 2    Res =  0.1118E+02
 MRCHDU: Convergence failed at  31  side 2    Res =  0.2373E+02
 MRCHDU: Convergence failed at  32  side 2    Res =  0.8189E+01
 MRCHDU: Convergence failed at  33  side 2    Res =  0.1762E+02
 MRCHDU: Convergence failed at  34  side 2    Res =  0.5433E+02
 MRCHDU: Convergence failed at  35  side 2    Res =  0.2277E+02
 MRCHDU: Convergence failed at  36  side 2    Res =  0.3779E+02
 MRCHDU: Convergence failed at  37  side 2    Res =  0.2271E+02
 MRCHDU: Convergence failed at  38  side 2    Res =  0.1932E+02
 MRCHDU: Convergence failed at  39  side 2    Res =  0.1446E+02
 MRCHDU: Convergence failed at  40  side 2    Res =  0.1373E+02
 MRCHDU: Convergence failed at  41  side 2    Res =  0.1245E+02
 MRCHDU: Convergence failed at  42  side 2    Res =  0.6458E+01
 MRCHDU: Convergence failed at  43  side 2    Res =  0.1258E+02
 MRCHDU: Convergence failed at  44  side 2    Res =  0.1243E+02
 MRCHDU: Convergence failed at  45  side 2    Res =  0.5501E+01
 MRCHDU: Convergence failed at  46  side 2    Res =  0.4983E+02
 MRCHDU: Convergence failed at  47  side 2    Res =  0.1297E+02
 MRCHDU: Convergence failed at  48  side 2    Res =  0.1204E+02
 MRCHDU: Convergence failed at  49  side 2    Res =  0.1213E+02
 MRCHDU: Convergence failed at  50  side 2    Res =  0.1227E+02
 MRCHDU: Convergence failed at  51  side 2    Res =  0.1248E+02
 MRCHDU: Convergence failed at  52  side 2    Res =  0.1285E+02
 MRCHDU: Convergence failed at  53  side 2    Res =  0.1342E+02
 MRCHDU: Convergence failed at  54  side 2    Res =  0.1386E+02
 MRCHDU: Convergence failed at  55  side 2    Res =  0.1466E+02
 MRCHDU: Convergence failed at  56  side 2    Res =  0.1558E+02
 MRCHDU: Convergence failed at  57  side 2    Res =  0.1679E+02
 MRCHDU: Convergence failed at  58  side 2    Res =  0.1840E+02
 MRCHDU: Convergence failed at  59  side 2    Res =  0.1949E+02
 MRCHDU: Convergence failed at  60  side 2    Res =  0.2186E+02
 MRCHDU: Convergence failed at  61  side 2    Res =  0.2477E+02
 MRCHDU: Convergence failed at  62  side 2    Res =  0.2847E+02
 MRCHDU: Convergence failed at  63  side 2    Res =  0.3406E+02
 MRCHDU: Convergence failed at  64  side 2    Res =  0.4206E+02
 MRCHDU: Convergence failed at  65  side 2    Res =  0.5413E+02
 MRCHDU: Convergence failed at  66  side 2    Res =  0.7679E+02
 MRCHDU: Convergence failed at  67  side 2    Res =  0.1283E+03
 MRCHDU: Convergence failed at  68  side 2    Res =  0.3263E+03
 MRCHDU: Convergence failed at  69  side 2    Res =  0.5568E+03
 MRCHDU: Convergence failed at  70  side 2    Res =  0.1625E+03
 MRCHDU: Convergence failed at  71  side 2    Res =  0.9809E+02
 MRCHDU: Convergence failed at  72  side 2    Res =  0.8125E+02
 MRCHDU: Convergence failed at  73  side 2    Res =  0.1359E+02
 MRCHDU: Convergence failed at  74  side 2    Res =  0.8320E+02
 MRCHDU: Convergence failed at  75  side 2    Res =  0.1025E+03
 MRCHDU: Convergence failed at  76  side 2    Res =  0.1616E+03
 MRCHDU: Convergence failed at  77  side 2    Res =  0.7146E+05
 MRCHDU: Convergence failed at  78  side 2    Res =  0.1380E+03
 MRCHDU: Convergence failed at  79  side 2    Res =  0.8213E+02
 MRCHDU: Convergence failed at  80  side 2    Res =  0.4658E+02
 MRCHDU: Convergence failed at  81  side 2    Res =  0.3343E+02
 MRCHDU: Convergence failed at  82  side 2    Res =  0.2542E+02
 MRCHDU: Convergence failed at  83  side 2    Res =  0.1986E+02
 MRCHDU: Convergence failed at  84  side 2    Res =  0.1601E+02
 MRCHDU: Convergence failed at  85  side 2    Res =  0.1322E+02
 MRCHDU: Convergence failed at  86  side 2    Res =  0.1140E+02
 MRCHDU: Convergence failed at  87  side 2    Res =  0.9985E+01
 MRCHDU: Convergence failed at  88  side 2    Res =  0.9691E+01
 MRCHDU: Convergence failed at  89  side 2    Res =  0.9968E+01
 Side 1  free  transition at x/c =  0.6463   50
 Side 2  free  transition at x/c =  0.0901   32

   1   rms: 0.1913E+01   max: -.1745E+01   U at   89  2   RLX: 0.205
       a = -4.000      CL = -3.7162
      Cm =  0.9422     CD =  0.01066   =>   CDf =  0.00522    CDp =  0.00545

 Side 1  free  transition at x/c =  0.6442   50
 Side 2 forced transition at x/c =  1.0000   89

   2   rms: 0.1686E+01   max: -.1315E+01   U at   89  2   RLX: 0.122
       a = -4.000      CL = -3.0309
      Cm =  0.7697     CD =  0.01085   =>   CDf =  0.01339    CDp = -0.00254

 Side 1  free  transition at x/c =  0.6420   50
 Side 2  free  transition at x/c =  0.9447   85

   3   rms: 0.2355E+01   max: 0.8624E+01   D at   88  2   RLX: 0.102
       a = -4.000      CL = -2.3528
      Cm =  0.5913     CD =  0.01088   =>   CDf =  0.01196    CDp = -0.00108

 Side 1  free  transition at x/c =  0.6395   51
 Side 2  free  transition at x/c =  0.9647   85

   4   rms: 0.1904E+01   max: -.1688E+02   C at   85  2   RLX: 0.030
       a = -4.000      CL = -2.2252
      Cm =  0.5602     CD =  0.01122   =>   CDf =  0.01108    CDp =  0.00014

 Side 1  free  transition at x/c =  0.6388   51
 Side 2  free  transition at x/c =  0.9292   83

   5   rms: 0.1085E+02   max: -.5794E+02   C at   84  2   RLX: 0.009
       a = -4.000      CL = -2.2603
      Cm =  0.5593     CD =  0.01126   =>   CDf =  0.01085    CDp =  0.00041

 Side 1  free  transition at x/c =  0.6392   51
 Side 2  free  transition at x/c =  0.1070   32

   6   rms: 0.4514E+01   max: 0.9494E+02   C at   32  2   RLX: 0.016
       a = -4.000      CL = -2.1991
      Cm =  0.5417     CD =  0.01335   =>   CDf =  0.02006    CDp = -0.00671

 Side 1  free  transition at x/c =  0.6390   51
 Side 2  free  transition at x/c =  0.0851   30

   7   rms: 0.2078E+01   max: 0.3750E+02   C at   30  2   RLX: 0.040
       a = -4.000      CL = -2.0815
      Cm =  0.5108     CD =  0.01357   =>   CDf =  0.02006    CDp = -0.00650

 Side 1  free  transition at x/c =  0.6385   51
 Side 2  free  transition at x/c =  0.0688   29

   8   rms: 0.1198E+01   max: 0.5066E+01   T at   29  2   RLX: 0.235
       a = -4.000      CL = -1.4631
      Cm =  0.3472     CD =  0.01494   =>   CDf =  0.01968    CDp = -0.00473

 MRCHDU: Convergence failed at  29  side 2    Res =  0.1107E+02
 MRCHDU: Convergence failed at  30  side 2    Res =  0.3682E+02
 MRCHDU: Convergence failed at  31  side 2    Res =  0.1494E+02
 MRCHDU: Convergence failed at  32  side 2    Res =  0.1165E+02
 MRCHDU: Convergence failed at  33  side 2    Res =  0.9387E+01
 MRCHDU: Convergence failed at  34  side 2    Res =  0.4032E+02
 MRCHDU: Convergence failed at  35  side 2    Res =  0.3599E+02
 MRCHDU: Convergence failed at  36  side 2    Res =  0.3234E+02
 MRCHDU: Convergence failed at  37  side 2    Res =  0.3269E+02
 MRCHDU: Convergence failed at  38  side 2    Res =  0.3064E+02
 MRCHDU: Convergence failed at  39  side 2    Res =  0.2912E+02
 MRCHDU: Convergence failed at  40  side 2    Res =  0.2857E+02
 MRCHDU: Convergence failed at  41  side 2    Res =  0.2831E+02
 MRCHDU: Convergence failed at  42  side 2    Res =  0.2852E+02
 MRCHDU: Convergence failed at  43  side 2    Res =  0.2908E+02
 MRCHDU: Convergence failed at  44  side 2    Res =  0.2862E+02
 MRCHDU: Convergence failed at  45  side 2    Res =  0.2738E+02
 MRCHDU: Convergence failed at  46  side 2    Res =  0.2652E+02
 MRCHDU: Convergence failed at  47  side 2    Res =  0.2606E+02
 MRCHDU: Convergence failed at  48  side 2    Res =  0.2590E+02
 MRCHDU: Convergence failed at  49  side 2    Res =  0.2756E+02
 MRCHDU: Convergence failed at  50  side 2    Res =  0.2778E+02
 MRCHDU: Convergence failed at  51  side 2    Res =  0.2801E+02
 MRCHDU: Convergence failed at  52  side 2    Res =  0.2791E+02
 MRCHDU: Convergence failed at  53  side 2    Res =  0.2824E+02
 MRCHDU: Convergence failed at  54  side 2    Res =  0.2867E+02
 MRCHDU: Convergence failed at  55  side 2    Res =  0.2907E+02
 MRCHDU: Convergence failed at  56  side 2    Res =  0.2944E+02
 MRCHDU: Convergence failed at  57  side 2    Res =  0.2897E+02
 MRCHDU: Convergence failed at  58  side 2    Res =  0.2892E+02
 MRCHDU: Convergence failed at  59  side 2    Res =  0.2916E+02
 MRCHDU: Convergence failed at  60  side 2    Res =  0.2933E+02
 MRCHDU: Convergence failed at  61  side 2    Res =  0.2944E+02
 MRCHDU: Convergence failed at  62  side 2    Res =  0.2953E+02
 MRCHDU: Convergence failed at  63  side 2    Res =  0.2955E+02
 MRCHDU: Convergence failed at  64  side 2    Res =  0.2952E+02
 MRCHDU: Convergence failed at  65  side 2    Res =  0.2944E+02
 MRCHDU: Convergence failed at  66  side 2    Res =  0.2929E+02
 MRCHDU: Convergence failed at  67  side 2    Res =  0.2910E+02
 MRCHDU: Convergence failed at  68  side 2    Res =  0.2886E+02
 MRCHDU: Convergence failed at  69  side 2    Res =  0.2861E+02
 MRCHDU: Convergence failed at  70  side 2    Res =  0.2833E+02
 MRCHDU: Convergence failed at  71  side 2    Res =  0.2804E+02
 MRCHDU: Convergence failed at  72  side 2    Res =  0.2769E+02
 MRCHDU: Convergence failed at  73  side 2    Res =  0.2727E+02
 MRCHDU: Convergence failed at  74  side 2    Res =  0.2676E+02
 MRCHDU: Convergence failed at  75  side 2    Res =  0.2620E+02
 MRCHDU: Convergence failed at  76  side 2    Res =  0.2561E+02
 MRCHDU: Convergence failed at  77  side 2    Res =  0.2501E+02
 MRCHDU: Convergence failed at  78  side 2    Res =  0.2438E+02
 MRCHDU: Convergence failed at  79  side 2    Res =  0.2398E+02
 MRCHDU: Convergence failed at  80  side 2    Res =  0.2322E+02
 MRCHDU: Convergence failed at  81  side 2    Res =  0.2248E+02
 MRCHDU: Convergence failed at  82  side 2    Res =  0.2144E+02
 MRCHDU: Convergence failed at  83  side 2    Res =  0.2546E+02
 MRCHDU: Convergence failed at  84  side 2    Res =  0.2744E+02
 MRCHDU: Convergence failed at  85  side 2    Res =  0.3383E+02
 MRCHDU: Convergence failed at  86  side 2    Res =  0.3459E+02
 MRCHDU: Convergence failed at  87  side 2    Res =  0.3524E+02
 MRCHDU: Convergence failed at  88  side 2    Res =  0.4678E+02
 Side 1  free  transition at x/c =  0.6357   51
 Side 2  free  transition at x/c =  0.0613   28

   9   rms: 0.1589E+01   max: 0.4557E+01   D at   39  2   RLX: 0.310
       a = -4.000      CL = -1.7283
      Cm =  0.4525     CD =  0.01171   =>   CDf =  0.00455    CDp =  0.00715

 Side 1  free  transition at x/c =  0.6325   51
 Side 2  free  transition at x/c =  0.0755   29
 idif Ue xi dudx           1  0.15173967      4.92608547E-03   30.803297    
 Uenew xinew           2  4.84635718E-02  1.57332420E-03

  10   rms: 0.3118E+01   max: 0.3317E+02   T at   29  2   RLX: 0.043
       a = -4.000      CL = -1.1597
      Cm =  0.2444     CD =  0.05687   =>   CDf =  0.00490    CDp =  0.05197

 Side 1  free  transition at x/c =  0.6350   50
 Side 2  free  transition at x/c =  0.0710   29

  11   rms: 0.1033E+01   max: -.9921E+01   T at   29  2   RLX: 0.050
       a = -4.000      CL = -1.1964
      Cm =  0.2488     CD =  0.05944   =>   CDf =  0.00509    CDp =  0.05435

 Side 1  free  transition at x/c =  0.6358   51
 Side 2  free  transition at x/c =  0.0744   30

  12   rms: 0.2735E+01   max: 0.2654E+02   T at   30  2   RLX: 0.057
       a = -4.000      CL = -1.0261
      Cm =  0.1794     CD =  0.05343   =>   CDf =  0.00505    CDp =  0.04838

 MRCHDU: Convergence failed at  30  side 2    Res =  0.2822E+02
 MRCHDU: Convergence failed at  31  side 2    Res =  0.3745E+02
 MRCHDU: Convergence failed at  32  side 2    Res =  0.2662E+02
 MRCHDU: Convergence failed at  33  side 2    Res =  0.2153E+03
 MRCHDU: Convergence failed at  34  side 2    Res =  0.3640E+02
 MRCHDU: Convergence failed at  35  side 2    Res =  0.3753E+02
 MRCHDU: Convergence failed at  36  side 2    Res =  0.8344E+02
 MRCHDU: Convergence failed at  37  side 2    Res =  0.3239E+03
 MRCHDU: Convergence failed at  38  side 2    Res =  0.6069E+02
 MRCHDU: Convergence failed at  39  side 2    Res =  0.3393E+02
 MRCHDU: Convergence failed at  40  side 2    Res =  0.2896E+02
 MRCHDU: Convergence failed at  41  side 2    Res =  0.3599E+02
 MRCHDU: Convergence failed at  42  side 2    Res =  0.4612E+02
 MRCHDU: Convergence failed at  43  side 2    Res =  0.6038E+02
 MRCHDU: Convergence failed at  44  side 2    Res =  0.8722E+02
 MRCHDU: Convergence failed at  45  side 2    Res =  0.1606E+03
 MRCHDU: Convergence failed at  46  side 2    Res =  0.6308E+03
 MRCHDU: Convergence failed at  47  side 2    Res =  0.3566E+03
 MRCHDU: Convergence failed at  48  side 2    Res =  0.1483E+03
 MRCHDU: Convergence failed at  49  side 2    Res =  0.9747E+02
 MRCHDU: Convergence failed at  50  side 2    Res =  0.7629E+02
 MRCHDU: Convergence failed at  51  side 2    Res =  0.6418E+02
 MRCHDU: Convergence failed at  52  side 2    Res =  0.5643E+02
 MRCHDU: Convergence failed at  53  side 2    Res =  0.5125E+02
 MRCHDU: Convergence failed at  54  side 2    Res =  0.4750E+02
 MRCHDU: Convergence failed at  55  side 2    Res =  0.4544E+02
 MRCHDU: Convergence failed at  56  side 2    Res =  0.4319E+02
 MRCHDU: Convergence failed at  57  side 2    Res =  0.4207E+02
 MRCHDU: Convergence failed at  58  side 2    Res =  0.4133E+02
 MRCHDU: Convergence failed at  59  side 2    Res =  0.4124E+02
 MRCHDU: Convergence failed at  60  side 2    Res =  0.4127E+02
 MRCHDU: Convergence failed at  61  side 2    Res =  0.4110E+02
 MRCHDU: Convergence failed at  62  side 2    Res =  0.4160E+02
 MRCHDU: Convergence failed at  63  side 2    Res =  0.4214E+02
 MRCHDU: Convergence failed at  64  side 2    Res =  0.4257E+02
 MRCHDU: Convergence failed at  65  side 2    Res =  0.4306E+02
 MRCHDU: Convergence failed at  66  side 2    Res =  0.4372E+02
 MRCHDU: Convergence failed at  67  side 2    Res =  0.9333E+02
 MRCHDU: Convergence failed at  68  side 2    Res =  0.1017E+03
 MRCHDU: Convergence failed at  69  side 2    Res =  0.1073E+03
 MRCHDU: Convergence failed at  70  side 2    Res =  0.1153E+03
 MRCHDU: Convergence failed at  71  side 2    Res =  0.1214E+03
 MRCHDU: Convergence failed at  72  side 2    Res =  0.1243E+03
 MRCHDU: Convergence failed at  73  side 2    Res =  0.1241E+03
 MRCHDU: Convergence failed at  74  side 2    Res =  0.1207E+03
 MRCHDU: Convergence failed at  75  side 2    Res =  0.1169E+03
 MRCHDU: Convergence failed at  76  side 2    Res =  0.1101E+03
 MRCHDU: Convergence failed at  77  side 2    Res =  0.1011E+03
 MRCHDU: Convergence failed at  78  side 2    Res =  0.9162E+02
 MRCHDU: Convergence failed at  79  side 2    Res =  0.8109E+02
 MRCHDU: Convergence failed at  80  side 2    Res =  0.6840E+02
 MRCHDU: Convergence failed at  81  side 2    Res =  0.3741E+02
 MRCHDU: Convergence failed at  82  side 2    Res =  0.3496E+02
 MRCHDU: Convergence failed at  83  side 2    Res =  0.3330E+02
 MRCHDU: Convergence failed at  84  side 2    Res =  0.3309E+02
 MRCHDU: Convergence failed at  85  side 2    Res =  0.3330E+02
 MRCHDU: Convergence failed at  86  side 2    Res =  0.3351E+02
 MRCHDU: Convergence failed at  87  side 2    Res =  0.3458E+02
 MRCHDU: Convergence failed at  88  side 2    Res =  0.7711E+02
 Side 1  free  transition at x/c =  0.6368   51
 Side 2  free  transition at x/c =  0.0697   29

  13   rms: 0.1424E+01   max: -.1059E+02   T at   29  2   RLX: 0.047
       a = -4.000      CL = -2.4598
      Cm =  0.6381     CD =  0.01294   =>   CDf =  0.00444    CDp =  0.00850

 Side 1  free  transition at x/c =  0.6360   51
 Side 2  free  transition at x/c =  0.0736   30
 idif Ue xi dudx           1  0.15976663      5.71072102E-03   27.976612    
 Uenew xinew           2  4.87187319E-02  1.74140930E-03

  14   rms: 0.1875E+01   max: 0.1445E+02   T at   30  2   RLX: 0.104
       a = -4.000      CL = -1.5588
      Cm =  0.3228     CD =  0.06076   =>   CDf =  0.00483    CDp =  0.05593

 Side 1  free  transition at x/c =  0.6390   50
 Side 2  free  transition at x/c =  0.0727   30

  15   rms: 0.1802E+01   max: -.1232E+02   T at   30  2   RLX: 0.041
       a = -4.000      CL = -1.6274
      Cm =  0.3207     CD =  0.06344   =>   CDf =  0.00491    CDp =  0.05853

 Side 1  free  transition at x/c =  0.6396   50
 Side 2  free  transition at x/c =  0.0747   31

  16   rms: 0.9789E+00   max: -.1200E+02   T at   31  2   RLX: 0.042
       a = -4.000      CL = -1.4185
      Cm =  0.2527     CD =  0.06075   =>   CDf =  0.00484    CDp =  0.05591

 Side 1  free  transition at x/c =  0.6397   50
 Side 2  free  transition at x/c =  0.0819   31

  17   rms: 0.1644E+01   max: -.2350E+02   T at   31  2   RLX: 0.021
       a = -4.000      CL = -1.5673
      Cm =  0.2965     CD =  0.06383   =>   CDf =  0.00481    CDp =  0.05902

 Side 1  free  transition at x/c =  0.6395   50
 Side 2  free  transition at x/c =  0.0919   32

  18   rms: 0.2983E+01   max: 0.2451E+02   T at   32  2   RLX: 0.061
       a = -4.000      CL = -1.4802
      Cm =  0.2316     CD =  0.05145   =>   CDf =  0.00478    CDp =  0.04667

 MRCHDU: Convergence failed at  32  side 2    Res =  0.4976E+02
 MRCHDU: Convergence failed at  33  side 2    Res =  0.5965E+02
 MRCHDU: Convergence failed at  34  side 2    Res =  0.9836E+02
 MRCHDU: Convergence failed at  35  side 2    Res =  0.3469E+02
 MRCHDU: Convergence failed at  36  side 2    Res =  0.4584E+02
 MRCHDU: Convergence failed at  37  side 2    Res =  0.7918E+02
 MRCHDU: Convergence failed at  38  side 2    Res =  0.8769E+02
 MRCHDU: Convergence failed at  39  side 2    Res =  0.1670E+03
 MRCHDU: Convergence failed at  40  side 2    Res =  0.1007E+03
 MRCHDU: Convergence failed at  41  side 2    Res =  0.1008E+03
 MRCHDU: Convergence failed at  42  side 2    Res =  0.3982E+02
 MRCHDU: Convergence failed at  43  side 2    Res =  0.1353E+03
 MRCHDU: Convergence failed at  44  side 2    Res =  0.8557E+02
 MRCHDU: Convergence failed at  45  side 2    Res =  0.4751E+02
 MRCHDU: Convergence failed at  46  side 2    Res =  0.1023E+03
 MRCHDU: Convergence failed at  47  side 2    Res =  0.8594E+02
 MRCHDU: Convergence failed at  48  side 2    Res =  0.1076E+03
 MRCHDU: Convergence failed at  49  side 2    Res =  0.7563E+03
 MRCHDU: Convergence failed at  50  side 2    Res =  0.3756E+03
 MRCHDU: Convergence failed at  51  side 2    Res =  0.1181E+03
 MRCHDU: Convergence failed at  52  side 2    Res =  0.8826E+02
 MRCHDU: Convergence failed at  53  side 2    Res =  0.5754E+03
 MRCHDU: Convergence failed at  54  side 2    Res =  0.2960E+03
 MRCHDU: Convergence failed at  55  side 2    Res =  0.7656E+02
 MRCHDU: Convergence failed at  56  side 2    Res =  0.4597E+02
 MRCHDU: Convergence failed at  57  side 2    Res =  0.3791E+03
 MRCHDU: Convergence failed at  58  side 2    Res =  0.1076E+03
 MRCHDU: Convergence failed at  59  side 2    Res =  0.6216E+02
 MRCHDU: Convergence failed at  60  side 2    Res =  0.6981E+02
 MRCHDU: Convergence failed at  61  side 2    Res =  0.1005E+03
 MRCHDU: Convergence failed at  62  side 2    Res =  0.4579E+02
 MRCHDU: Convergence failed at  63  side 2    Res =  0.1022E+03
 MRCHDU: Convergence failed at  64  side 2    Res =  0.1277E+03
 MRCHDU: Convergence failed at  65  side 2    Res =  0.1645E+03
 MRCHDU: Convergence failed at  66  side 2    Res =  0.1430E+03
 MRCHDU: Convergence failed at  67  side 2    Res =  0.1001E+03
 MRCHDU: Convergence failed at  68  side 2    Res =  0.1233E+03
 MRCHDU: Convergence failed at  69  side 2    Res =  0.1113E+04
 MRCHDU: Convergence failed at  70  side 2    Res =  0.4196E+03
 MRCHDU: Convergence failed at  71  side 2    Res =  0.2093E+03
 MRCHDU: Convergence failed at  72  side 2    Res =  0.1011E+03
 MRCHDU: Convergence failed at  73  side 2    Res =  0.1374E+03
 MRCHDU: Convergence failed at  74  side 2    Res =  0.1028E+03
 MRCHDU: Convergence failed at  75  side 2    Res =  0.8554E+02
 MRCHDU: Convergence failed at  76  side 2    Res =  0.7569E+02
 MRCHDU: Convergence failed at  77  side 2    Res =  0.9433E+02
 MRCHDU: Convergence failed at  78  side 2    Res =  0.2520E+03
 MRCHDU: Convergence failed at  79  side 2    Res =  0.1771E+03
 MRCHDU: Convergence failed at  80  side 2    Res =  0.8327E+02
 MRCHDU: Convergence failed at  81  side 2    Res =  0.4554E+02
 MRCHDU: Convergence failed at  82  side 2    Res =  0.2691E+03
 MRCHDU: Convergence failed at  83  side 2    Res =  0.4648E+02
 MRCHDU: Convergence failed at  84  side 2    Res =  0.1151E+03
 MRCHDU: Convergence failed at  85  side 2    Res =  0.1065E+03
 MRCHDU: Convergence failed at  86  side 2    Res =  0.1031E+03
 MRCHDU: Convergence failed at  87  side 2    Res =  0.6115E+02
 MRCHDU: Convergence failed at  88  side 2    Res =  0.6337E+02
 MRCHDU: Convergence failed at  89  side 2    Res =  0.1022E+03
 Side 1  free  transition at x/c =  0.6417   50
 Side 2  free  transition at x/c =  0.0818   31

  19   rms: 0.2415E+01   max: -.3657E+02   T at   31  2   RLX: 0.014
       a = -4.000      CL = -3.4900
      Cm =  0.8857     CD =  0.01339   =>   CDf =  0.00409    CDp =  0.00930

 Side 1  free  transition at x/c =  0.6412   50
 Side 2  free  transition at x/c =  0.0859   31
 idif Ue xi dudx           1  0.15086313      5.91051579E-03   25.524529    
 Uenew xinew           2  2.93139592E-02  1.14846230E-03

  20   rms: 0.2952E+01   max: 0.2703E+02   T at   32  2   RLX: 0.045
       a = -4.000      CL = -2.6134
      Cm =  0.5753     CD =  0.06718   =>   CDf =  0.00445    CDp =  0.06273

 Side 1  free  transition at x/c =  0.6437   49
 Side 2  free  transition at x/c =  0.0858   32

  21   rms: 0.1463E+01   max: 0.6939E+01   T at   33  2   RLX: 0.094
       a = -4.000      CL = -2.5748
      Cm =  0.5584     CD =  0.07489   =>   CDf =  0.00465    CDp =  0.07024

 Side 1  free  transition at x/c =  0.6469   49
 Side 2  free  transition at x/c =  0.0831   32

  22   rms: 0.1102E+01   max: 0.2116E+01   D at   95  2   RLX: 0.206
       a = -4.000      CL = -1.9372
      Cm =  0.3950     CD =  0.07810   =>   CDf =  0.00489    CDp =  0.07322

 Side 1  free  transition at x/c =  0.6465   50
 Side 2  free  transition at x/c =  0.0821   31

  23   rms: 0.9628E+00   max: -.1206E+01   C at  103  2   RLX: 0.187
       a = -4.000      CL = -1.5131
      Cm =  0.2995     CD =  0.08393   =>   CDf =  0.00476    CDp =  0.07917

 Side 1  free  transition at x/c =  0.6418   50
 Side 2  free  transition at x/c =  0.0818   31

  24   rms: 0.7994E+00   max: -.1063E+01   C at  104  2   RLX: 0.307
       a = -4.000      CL = -0.9515
      Cm =  0.1747     CD =  0.08479   =>   CDf =  0.00499    CDp =  0.07980

 Side 1  free  transition at x/c =  0.6356   51
 Side 2  free  transition at x/c =  0.0784   30

  25   rms: 0.5762E+00   max: 0.2534E+01   T at   30  2   RLX: 0.487
       a = -4.000      CL = -0.4247
      Cm =  0.0542     CD =  0.07835   =>   CDf =  0.00496    CDp =  0.07339

 Side 1  free  transition at x/c =  0.6315   50
 Side 2  free  transition at x/c =  0.0679   29

  26   rms: 0.3630E+00   max: 0.1813E+01   T at   29  2   RLX: 0.669
       a = -4.000      CL = -0.1030
      Cm = -0.0191     CD =  0.07090   =>   CDf =  0.00508    CDp =  0.06583

 Side 1  free  transition at x/c =  0.6187   50
 Side 2  free  transition at x/c =  0.0604   27

  27   rms: 0.2446E+00   max: -.8709E+00   D at  103  2   RLX: 0.574
       a = -4.000      CL = -0.0317
      Cm = -0.0395     CD =  0.06987   =>   CDf =  0.00487    CDp =  0.06501

 Side 1  free  transition at x/c =  0.6163   50
 Side 2  free  transition at x/c =  0.0584   27

  28   rms: 0.2116E+00   max: -.7957E+00   D at   77  2   RLX: 0.628
       a = -4.000      CL =  0.0093
      Cm = -0.0593     CD =  0.06407   =>   CDf =  0.00476    CDp =  0.05931

 Side 1  free  transition at x/c =  0.6142   50
 Side 2  free  transition at x/c =  0.0564   27

  29   rms: 0.1246E+00   max: -.6139E+00   D at   79  2   RLX: 0.814
       a = -4.000      CL =  0.0579
      Cm = -0.0588     CD =  0.06193   =>   CDf =  0.00476    CDp =  0.05717

 Side 1  free  transition at x/c =  0.6106   50
 Side 2  free  transition at x/c =  0.0578   27

  30   rms: 0.6438E-01   max: -.4001E+00   D at   79  2
       a = -4.000      CL =  0.0893
      Cm = -0.0578     CD =  0.06103   =>   CDf =  0.00494    CDp =  0.05609

 Side 1  free  transition at x/c =  0.6098   50
 Side 2  free  transition at x/c =  0.0597   27

  31   rms: 0.2822E-01   max: -.1844E+00   T at   27  2
       a = -4.000      CL =  0.0988
      Cm = -0.0581     CD =  0.06101   =>   CDf =  0.00514    CDp =  0.05587

 Side 1  free  transition at x/c =  0.6098   50
 Side 2  free  transition at x/c =  0.0607   27

  32   rms: 0.3775E-01   max: -.2682E+00   T at   27  2
       a = -4.000      CL =  0.1079
      Cm = -0.0595     CD =  0.06208   =>   CDf =  0.00523    CDp =  0.05685

 Side 1  free  transition at x/c =  0.6096   50
 Side 2  free  transition at x/c =  0.0612   27

  33   rms: 0.2274E-01   max: 0.1345E+00   T at   28  2
       a = -4.000      CL =  0.1117
      Cm = -0.0601     CD =  0.06283   =>   CDf =  0.00537    CDp =  0.05746

 Side 1  free  transition at x/c =  0.6096   50
 Side 2  free  transition at x/c =  0.0617   27

  34   rms: 0.1317E+02   max: 0.7038E+02   T at   28  2   RLX: 0.010
       a = -4.000      CL =  0.1358
      Cm = -0.0641     CD =  0.07022   =>   CDf =  0.00537    CDp =  0.06485

 Side 1  free  transition at x/c =  0.6093   50
 Side 2  free  transition at x/c =  0.0600   27

  35   rms: 0.7568E+00   max: 0.2648E+01   D at   46  2   RLX: 0.567
       a = -4.000      CL =  0.1205
      Cm = -0.0620     CD =  0.05997   =>   CDf =  0.00651    CDp =  0.05346

 Side 1  free  transition at x/c =  0.6086   50
 Side 2  free  transition at x/c =  0.0591   27

  36   rms: 0.2627E+00   max: 0.2694E+01   D at   42  2   RLX: 0.557
       a = -4.000      CL =  0.1095
      Cm = -0.0667     CD =  0.04881   =>   CDf =  0.00590    CDp =  0.04291

 MRCHDU: Convergence failed at  42  side 2    Res =  0.2212E+01
 MRCHDU: Convergence failed at  43  side 2    Res =  0.2628E+01
 MRCHDU: Convergence failed at  44  side 2    Res =  0.1447E+02
 MRCHDU: Convergence failed at  45  side 2    Res =  0.3920E+01
 MRCHDU: Convergence failed at  46  side 2    Res =  0.3148E+01
 MRCHDU: Convergence failed at  47  side 2    Res =  0.2898E+01
 MRCHDU: Convergence failed at  48  side 2    Res =  0.2701E+01
 MRCHDU: Convergence failed at  49  side 2    Res =  0.2949E+01
 MRCHDU: Convergence failed at  50  side 2    Res =  0.3919E+01
 MRCHDU: Convergence failed at  51  side 2    Res =  0.6499E+01
 MRCHDU: Convergence failed at  52  side 2    Res =  0.2275E+02
 MRCHDU: Convergence failed at  53  side 2    Res =  0.3801E+02
 MRCHDU: Convergence failed at  54  side 2    Res =  0.3070E+02
 MRCHDU: Convergence failed at  55  side 2    Res =  0.1105E+02
 MRCHDU: Convergence failed at  56  side 2    Res =  0.6515E+01
 MRCHDU: Convergence failed at  57  side 2    Res =  0.4929E+01
 MRCHDU: Convergence failed at  58  side 2    Res =  0.3957E+01
 MRCHDU: Convergence failed at  59  side 2    Res =  0.3327E+01
 MRCHDU: Convergence failed at  60  side 2    Res =  0.2932E+01
 MRCHDU: Convergence failed at  61  side 2    Res =  0.2631E+01
 MRCHDU: Convergence failed at  62  side 2    Res =  0.2313E+01
 MRCHDU: Convergence failed at  63  side 2    Res =  0.2200E+01
 MRCHDU: Convergence failed at  64  side 2    Res =  0.2346E+01
 MRCHDU: Convergence failed at  65  side 2    Res =  0.2506E+01
 MRCHDU: Convergence failed at  66  side 2    Res =  0.2749E+01
 MRCHDU: Convergence failed at  67  side 2    Res =  0.2981E+01
 MRCHDU: Convergence failed at  68  side 2    Res =  0.3239E+01
 MRCHDU: Convergence failed at  69  side 2    Res =  0.3567E+01
 MRCHDU: Convergence failed at  70  side 2    Res =  0.3930E+01
 MRCHDU: Convergence failed at  71  side 2    Res =  0.4364E+01
 MRCHDU: Convergence failed at  72  side 2    Res =  0.4844E+01
 MRCHDU: Convergence failed at  73  side 2    Res =  0.5380E+01
 MRCHDU: Convergence failed at  74  side 2    Res =  0.5918E+01
 MRCHDU: Convergence failed at  75  side 2    Res =  0.6474E+01
 MRCHDU: Convergence failed at  76  side 2    Res =  0.6844E+01
 MRCHDU: Convergence failed at  77  side 2    Res =  0.7073E+01
 MRCHDU: Convergence failed at  78  side 2    Res =  0.7088E+01
 MRCHDU: Convergence failed at  79  side 2    Res =  0.6835E+01
 MRCHDU: Convergence failed at  80  side 2    Res =  0.6359E+01
 MRCHDU: Convergence failed at  81  side 2    Res =  0.5800E+01
 MRCHDU: Convergence failed at  82  side 2    Res =  0.5013E+01
 MRCHDU: Convergence failed at  83  side 2    Res =  0.4242E+01
 MRCHDU: Convergence failed at  84  side 2    Res =  0.3732E+01
 MRCHDU: Convergence failed at  85  side 2    Res =  0.3364E+01
 MRCHDU: Convergence failed at  86  side 2    Res =  0.3440E+01
 MRCHDU: Convergence failed at  87  side 2    Res =  0.3674E+01
 Side 1  free  transition at x/c =  0.6105   50
 Side 2  free  transition at x/c =  0.0601   27

  37   rms: 0.3022E+00   max: -.1809E+01   T at   27  2   RLX: 0.276
       a = -4.000      CL = -0.0238
      Cm = -0.0020     CD =  0.04544   =>   CDf =  0.00461    CDp =  0.04083

 Side 1  free  transition at x/c =  0.6096   50
 Side 2  free  transition at x/c =  0.0593   27

  38   rms: 0.4400E+00   max: 0.1749E+01   D at   49  2   RLX: 0.858
       a = -4.000      CL =  0.0051
      Cm = -0.0439     CD =  0.05018   =>   CDf =  0.00744    CDp =  0.04273

 MRCHDU: Convergence failed at  47  side 2    Res =  0.1669E+01
 MRCHDU: Convergence failed at  48  side 2    Res =  0.5029E+01
 MRCHDU: Convergence failed at  49  side 2    Res =  0.2540E+02
 MRCHDU: Convergence failed at  50  side 2    Res =  0.5497E+01
 MRCHDU: Convergence failed at  51  side 2    Res =  0.3511E+01
 MRCHDU: Convergence failed at  52  side 2    Res =  0.2819E+01
 MRCHDU: Convergence failed at  53  side 2    Res =  0.2383E+01
 MRCHDU: Convergence failed at  54  side 2    Res =  0.2151E+01
 MRCHDU: Convergence failed at  55  side 2    Res =  0.2509E+01
 MRCHDU: Convergence failed at  56  side 2    Res =  0.3045E+01
 MRCHDU: Convergence failed at  57  side 2    Res =  0.3724E+01
 MRCHDU: Convergence failed at  58  side 2    Res =  0.4778E+01
 MRCHDU: Convergence failed at  59  side 2    Res =  0.6619E+01
 MRCHDU: Convergence failed at  60  side 2    Res =  0.1049E+02
 MRCHDU: Convergence failed at  61  side 2    Res =  0.2475E+02
 MRCHDU: Convergence failed at  62  side 2    Res =  0.3674E+02
 MRCHDU: Convergence failed at  63  side 2    Res =  0.1162E+02
 MRCHDU: Convergence failed at  64  side 2    Res =  0.7110E+01
 MRCHDU: Convergence failed at  65  side 2    Res =  0.5119E+01
 MRCHDU: Convergence failed at  66  side 2    Res =  0.3996E+01
 MRCHDU: Convergence failed at  67  side 2    Res =  0.3287E+01
 MRCHDU: Convergence failed at  68  side 2    Res =  0.2810E+01
 MRCHDU: Convergence failed at  69  side 2    Res =  0.2477E+01
 MRCHDU: Convergence failed at  70  side 2    Res =  0.2216E+01
 MRCHDU: Convergence failed at  71  side 2    Res =  0.2018E+01
 MRCHDU: Convergence failed at  72  side 2    Res =  0.1883E+01
 MRCHDU: Convergence failed at  73  side 2    Res =  0.1797E+01
 MRCHDU: Convergence failed at  74  side 2    Res =  0.1443E+01
 MRCHDU: Convergence failed at  75  side 2    Res =  0.1400E+01
 MRCHDU: Convergence failed at  76  side 2    Res =  0.1378E+01
 MRCHDU: Convergence failed at  77  side 2    Res =  0.1382E+01
 MRCHDU: Convergence failed at  78  side 2    Res =  0.1397E+01
 MRCHDU: Convergence failed at  79  side 2    Res =  0.1435E+01
 MRCHDU: Convergence failed at  80  side 2    Res =  0.1499E+01
 MRCHDU: Convergence failed at  81  side 2    Res =  0.1814E+01
 MRCHDU: Convergence failed at  82  side 2    Res =  0.2080E+01
 MRCHDU: Convergence failed at  83  side 2    Res =  0.2393E+01
 MRCHDU: Convergence failed at  84  side 2    Res =  0.2644E+01
 MRCHDU: Convergence failed at  85  side 2    Res =  0.2913E+01
 MRCHDU: Convergence failed at  86  side 2    Res =  0.3075E+01
 MRCHDU: Convergence failed at  87  side 2    Res =  0.3174E+01
 Side 1  free  transition at x/c =  0.6117   50
 Side 2  free  transition at x/c =  0.0558   27

  39   rms: 0.2575E+00   max: -.1100E+01   T at   27  2   RLX: 0.455
       a = -4.000      CL =  0.0112
      Cm = -0.0281     CD =  0.04750   =>   CDf =  0.00450    CDp =  0.04300

 Side 1  free  transition at x/c =  0.6101   50
 Side 2  free  transition at x/c =  0.0583   27

  40   rms: 0.1545E+00   max: 0.6588E+00   D at   87  2
       a = -4.000      CL =  0.0422
      Cm = -0.0469     CD =  0.05868   =>   CDf =  0.00569    CDp =  0.05299

 Side 1  free  transition at x/c =  0.6108   50
 Side 2  free  transition at x/c =  0.0569   27

  41   rms: 0.4182E-01   max: -.3086E+00   T at   27  2
       a = -4.000      CL =  0.0891
      Cm = -0.0560     CD =  0.06069   =>   CDf =  0.00511    CDp =  0.05558

 Side 1  free  transition at x/c =  0.6098   50
 Side 2  free  transition at x/c =  0.0596   27

  42   rms: 0.2652E-01   max: -.1750E+00   T at   27  2
       a = -4.000      CL =  0.0983
      Cm = -0.0578     CD =  0.06080   =>   CDf =  0.00516    CDp =  0.05564

 Side 1  free  transition at x/c =  0.6098   50
 Side 2  free  transition at x/c =  0.0607   27

  43   rms: 0.3609E-01   max: -.2641E+00   T at   27  2
       a = -4.000      CL =  0.1073
      Cm = -0.0594     CD =  0.06196   =>   CDf =  0.00523    CDp =  0.05673

 Side 1  free  transition at x/c =  0.6097   50
 Side 2  free  transition at x/c =  0.0612   27

  44   rms: 0.2154E-01   max: 0.1367E+00   T at   28  2
       a = -4.000      CL =  0.1114
      Cm = -0.0600     CD =  0.06277   =>   CDf =  0.00535    CDp =  0.05742

 Side 1  free  transition at x/c =  0.6096   50
 Side 2  free  transition at x/c =  0.0617   27

  45   rms: 0.6072E+00   max: 0.3222E+01   T at   28  2   RLX: 0.206
       a = -4.000      CL =  0.1357
      Cm = -0.0641     CD =  0.06953   =>   CDf =  0.00537    CDp =  0.06416

 Side 1  free  transition at x/c =  0.6093   50
 Side 2  free  transition at x/c =  0.0600   27

  46   rms: 0.7724E+00   max: 0.2715E+01   D at   46  2   RLX: 0.552
       a = -4.000      CL =  0.1209
      Cm = -0.0620     CD =  0.05947   =>   CDf =  0.00654    CDp =  0.05294

 Side 1  free  transition at x/c =  0.6086   50
 Side 2  free  transition at x/c =  0.0591   27

  47   rms: 0.2788E+00   max: 0.2982E+01   D at   42  2   RLX: 0.503
       a = -4.000      CL =  0.1220
      Cm = -0.0641     CD =  0.04971   =>   CDf =  0.00620    CDp =  0.04351

 MRCHDU: Convergence failed at  42  side 2    Res =  0.2606E+01
 MRCHDU: Convergence failed at  43  side 2    Res =  0.2250E+01
 MRCHDU: Convergence failed at  44  side 2    Res =  0.1807E+01
 MRCHDU: Convergence failed at  45  side 2    Res =  0.8790E+01
 MRCHDU: Convergence failed at  46  side 2    Res =  0.2660E+02
 MRCHDU: Convergence failed at  47  side 2    Res =  0.7298E+01
 MRCHDU: Convergence failed at  48  side 2    Res =  0.4603E+01
 MRCHDU: Convergence failed at  49  side 2    Res =  0.3239E+01
 MRCHDU: Convergence failed at  50  side 2    Res =  0.2372E+01
 MRCHDU: Convergence failed at  51  side 2    Res =  0.2131E+01
 MRCHDU: Convergence failed at  52  side 2    Res =  0.2795E+01
 MRCHDU: Convergence failed at  53  side 2    Res =  0.2952E+01
 MRCHDU: Convergence failed at  54  side 2    Res =  0.3760E+01
 MRCHDU: Convergence failed at  55  side 2    Res =  0.5042E+01
 MRCHDU: Convergence failed at  56  side 2    Res =  0.8035E+01
 MRCHDU: Convergence failed at  57  side 2    Res =  0.1734E+02
 MRCHDU: Convergence failed at  58  side 2    Res =  0.1748E+03
 MRCHDU: Convergence failed at  59  side 2    Res =  0.1526E+02
 MRCHDU: Convergence failed at  60  side 2    Res =  0.7447E+01
 MRCHDU: Convergence failed at  61  side 2    Res =  0.5161E+01
 MRCHDU: Convergence failed at  62  side 2    Res =  0.4043E+01
 MRCHDU: Convergence failed at  63  side 2    Res =  0.3326E+01
 MRCHDU: Convergence failed at  64  side 2    Res =  0.2850E+01
 MRCHDU: Convergence failed at  65  side 2    Res =  0.2532E+01
 MRCHDU: Convergence failed at  66  side 2    Res =  0.2297E+01
 MRCHDU: Convergence failed at  67  side 2    Res =  0.2117E+01
 MRCHDU: Convergence failed at  68  side 2    Res =  0.1863E+01
 MRCHDU: Convergence failed at  69  side 2    Res =  0.1755E+01
 MRCHDU: Convergence failed at  70  side 2    Res =  0.1678E+01
 MRCHDU: Convergence failed at  71  side 2    Res =  0.1754E+01
 MRCHDU: Convergence failed at  72  side 2    Res =  0.1837E+01
 MRCHDU: Convergence failed at  73  side 2    Res =  0.1928E+01
 MRCHDU: Convergence failed at  74  side 2    Res =  0.2027E+01
 MRCHDU: Convergence failed at  75  side 2    Res =  0.2130E+01
 MRCHDU: Convergence failed at  76  side 2    Res =  0.2235E+01
 MRCHDU: Convergence failed at  77  side 2    Res =  0.2334E+01
 MRCHDU: Convergence failed at  78  side 2    Res =  0.2429E+01
 MRCHDU: Convergence failed at  79  side 2    Res =  0.2508E+01
 MRCHDU: Convergence failed at  80  side 2    Res =  0.2563E+01
 MRCHDU: Convergence failed at  81  side 2    Res =  0.2540E+01
 MRCHDU: Convergence failed at  82  side 2    Res =  0.2541E+01
 MRCHDU: Convergence failed at  83  side 2    Res =  0.2693E+01
 MRCHDU: Convergence failed at  84  side 2    Res =  0.3112E+01
 MRCHDU: Convergence failed at  85  side 2    Res =  0.3493E+01
 MRCHDU: Convergence failed at  86  side 2    Res =  0.3984E+01
 MRCHDU: Convergence failed at  87  side 2    Res =  0.4404E+01
 Side 1  free  transition at x/c =  0.6100   50
 Side 2  free  transition at x/c =  0.0601   27

  48   rms: 0.2690E+00   max: -.1413E+01   T at   27  2   RLX: 0.354
       a = -4.000      CL =  0.0387
      Cm = -0.0176     CD =  0.04620   =>   CDf =  0.00460    CDp =  0.04160

 Side 1  free  transition at x/c =  0.6091   50
 Side 2  free  transition at x/c =  0.0593   27

  49   rms: 0.4113E+00   max: 0.1633E+01   D at   50  2   RLX: 0.918
       a = -4.000      CL =  0.0112
      Cm = -0.0461     CD =  0.05351   =>   CDf =  0.00711    CDp =  0.04640

 MRCHDU: Convergence failed at  49  side 2    Res =  0.1819E+01
 MRCHDU: Convergence failed at  50  side 2    Res =  0.6888E+01
 MRCHDU: Convergence failed at  51  side 2    Res =  0.1787E+02
 MRCHDU: Convergence failed at  52  side 2    Res =  0.5780E+01
 MRCHDU: Convergence failed at  53  side 2    Res =  0.3805E+01
 MRCHDU: Convergence failed at  54  side 2    Res =  0.3060E+01
 MRCHDU: Convergence failed at  55  side 2    Res =  0.2541E+01
 MRCHDU: Convergence failed at  56  side 2    Res =  0.2264E+01
 MRCHDU: Convergence failed at  57  side 2    Res =  0.2431E+01
 MRCHDU: Convergence failed at  58  side 2    Res =  0.2868E+01
 MRCHDU: Convergence failed at  59  side 2    Res =  0.3375E+01
 MRCHDU: Convergence failed at  60  side 2    Res =  0.4078E+01
 MRCHDU: Convergence failed at  61  side 2    Res =  0.5169E+01
 MRCHDU: Convergence failed at  62  side 2    Res =  0.6931E+01
 MRCHDU: Convergence failed at  63  side 2    Res =  0.1028E+02
 MRCHDU: Convergence failed at  64  side 2    Res =  0.1986E+02
 MRCHDU: Convergence failed at  65  side 2    Res =  0.5172E+02
 MRCHDU: Convergence failed at  66  side 2    Res =  0.1441E+02
 MRCHDU: Convergence failed at  67  side 2    Res =  0.8581E+01
 MRCHDU: Convergence failed at  68  side 2    Res =  0.6034E+01
 MRCHDU: Convergence failed at  69  side 2    Res =  0.4659E+01
 MRCHDU: Convergence failed at  70  side 2    Res =  0.3733E+01
 MRCHDU: Convergence failed at  71  side 2    Res =  0.3231E+01
 MRCHDU: Convergence failed at  72  side 2    Res =  0.2834E+01
 MRCHDU: Convergence failed at  73  side 2    Res =  0.2550E+01
 MRCHDU: Convergence failed at  74  side 2    Res =  0.2321E+01
 MRCHDU: Convergence failed at  75  side 2    Res =  0.2149E+01
 MRCHDU: Convergence failed at  76  side 2    Res =  0.2042E+01
 MRCHDU: Convergence failed at  77  side 2    Res =  0.1957E+01
 MRCHDU: Convergence failed at  78  side 2    Res =  0.1904E+01
 MRCHDU: Convergence failed at  79  side 2    Res =  0.1705E+01
 MRCHDU: Convergence failed at  80  side 2    Res =  0.1775E+01
 MRCHDU: Convergence failed at  81  side 2    Res =  0.1888E+01
 MRCHDU: Convergence failed at  82  side 2    Res =  0.2048E+01
 MRCHDU: Convergence failed at  83  side 2    Res =  0.2270E+01
 MRCHDU: Convergence failed at  84  side 2    Res =  0.2560E+01
 MRCHDU: Convergence failed at  85  side 2    Res =  0.2959E+01
 MRCHDU: Convergence failed at  86  side 2    Res =  0.3342E+01
 MRCHDU: Convergence failed at  87  side 2    Res =  0.3697E+01
 Side 1  free  transition at x/c =  0.6116   50
 Side 2  free  transition at x/c =  0.0552   27

  50   rms: 0.2387E+00   max: -.1116E+01   T at   27  2   RLX: 0.448
       a = -4.000      CL =  0.0121
      Cm = -0.0280     CD =  0.04881   =>   CDf =  0.00444    CDp =  0.04437

 Side 1  free  transition at x/c =  0.6102   50
 Side 2  free  transition at x/c =  0.0575   27

  51   rms: 0.1180E+00   max: 0.5422E+00   D at   90  2
       a = -4.000      CL =  0.0526
      Cm = -0.0483     CD =  0.05917   =>   CDf =  0.00544    CDp =  0.05373

 Side 1  free  transition at x/c =  0.6106   50
 Side 2  free  transition at x/c =  0.0574   27

  52   rms: 0.3222E-01   max: -.3104E+00   T at   27  2
       a = -4.000      CL =  0.0937
      Cm = -0.0570     CD =  0.06062   =>   CDf =  0.00516    CDp =  0.05546

 Side 1  free  transition at x/c =  0.6098   50
 Side 2  free  transition at x/c =  0.0600   27

  53   rms: 0.2800E-01   max: -.1665E+00   T at   27  2
       a = -4.000      CL =  0.0999
      Cm = -0.0581     CD =  0.06094   =>   CDf =  0.00517    CDp =  0.05577

 Side 1  free  transition at x/c =  0.6098   50
 Side 2  free  transition at x/c =  0.0608   27

  54   rms: 0.5306E-01   max: -.3720E+00   T at   27  2
       a = -4.000      CL =  0.1125
      Cm = -0.0603     CD =  0.06272   =>   CDf =  0.00525    CDp =  0.05747

 Side 1  free  transition at x/c =  0.6096   50
 Side 2  free  transition at x/c =  0.0607   27

  55   rms: 0.8267E-01   max: 0.3621E+00   D at   28  2
       a = -4.000      CL =  0.1108
      Cm = -0.0597     CD =  0.06351   =>   CDf =  0.00551    CDp =  0.05800

 Side 1  free  transition at x/c =  0.6094   50
 Side 2  free  transition at x/c =  0.0614   27

  56   rms: 0.1524E+00   max: 0.9431E+00   T at   28  2   RLX: 0.623
       a = -4.000      CL =  0.1334
      Cm = -0.0629     CD =  0.06524   =>   CDf =  0.00540    CDp =  0.05984

 Side 1  free  transition at x/c =  0.6093   50
 Side 2  free  transition at x/c =  0.0598   27

  57   rms: 0.4573E+00   max: 0.1548E+01   D at   28  2   RLX: 0.969
       a = -4.000      CL =  0.1019
      Cm = -0.0587     CD =  0.06975   =>   CDf =  0.00614    CDp =  0.06361

 Side 1  free  transition at x/c =  0.6087   50
 Side 2  free  transition at x/c =  0.0577   27

  58   rms: 0.5697E+00   max: 0.3726E+01   D at   45  2   RLX: 0.403
       a = -4.000      CL =  0.1298
      Cm = -0.0583     CD =  0.04906   =>   CDf =  0.00798    CDp =  0.04108

 MRCHDU: Convergence failed at  45  side 2    Res =  0.4067E+01
 MRCHDU: Convergence failed at  46  side 2    Res =  0.1521E+01
 MRCHDU: Convergence failed at  47  side 2    Res =  0.2316E+02
 MRCHDU: Convergence failed at  48  side 2    Res =  0.2636E+01
 Side 1  free  transition at x/c =  0.6093   50
 Side 2  free  transition at x/c =  0.0592   27

  59   rms: 0.1442E+00   max: 0.1227E+01   D at   44  2
       a = -4.000      CL =  0.1117
      Cm = -0.0620     CD =  0.06151   =>   CDf =  0.00567    CDp =  0.05584

 Side 1  free  transition at x/c =  0.6096   50
 Side 2  free  transition at x/c =  0.0613   27

  60   rms: 0.7074E-01   max: 0.3936E+00   D at   48  2
       a = -4.000      CL =  0.0971
      Cm = -0.0567     CD =  0.06042   =>   CDf =  0.00530    CDp =  0.05512

 Side 1  free  transition at x/c =  0.6097   50
 Side 2  free  transition at x/c =  0.0600   27

  61   rms: 0.5364E-01   max: -.1838E+00   D at   47  2
       a = -4.000      CL =  0.0981
      Cm = -0.0578     CD =  0.06059   =>   CDf =  0.00510    CDp =  0.05549

 Side 1  free  transition at x/c =  0.6098   50
 Side 2  free  transition at x/c =  0.0606   27

  62   rms: 0.3692E-01   max: -.2957E+00   T at   27  2
       a = -4.000      CL =  0.1082
      Cm = -0.0595     CD =  0.06204   =>   CDf =  0.00525    CDp =  0.05679

 Side 1  free  transition at x/c =  0.6096   50
 Side 2  free  transition at x/c =  0.0611   27

  63   rms: 0.2294E-01   max: -.1464E+00   D at   27  2
       a = -4.000      CL =  0.1107
      Cm = -0.0599     CD =  0.06272   =>   CDf =  0.00536    CDp =  0.05736

 Side 1  free  transition at x/c =  0.6096   50
 Side 2  free  transition at x/c =  0.0617   27

  64   rms: 0.1541E+00   max: -.8803E+00   T at   28  2   RLX: 0.568
       a = -4.000      CL =  0.0915
      Cm = -0.0567     CD =  0.06016   =>   CDf =  0.00536    CDp =  0.05480

 Side 1  free  transition at x/c =  0.6098   50
 Side 2  free  transition at x/c =  0.0591   27

  65   rms: 0.8584E-01   max: -.2733E+00   D at   67  2
       a = -4.000      CL =  0.0910
      Cm = -0.0565     CD =  0.05990   =>   CDf =  0.00497    CDp =  0.05493

 Side 1  free  transition at x/c =  0.6099   50
 Side 2  free  transition at x/c =  0.0598   27

  66   rms: 0.1969E-01   max: -.2107E+00   T at   27  2
       a = -4.000      CL =  0.1008
      Cm = -0.0583     CD =  0.06102   =>   CDf =  0.00521    CDp =  0.05581

 Side 1  free  transition at x/c =  0.6097   50
 Side 2  free  transition at x/c =  0.0609   27

  67   rms: 0.4890E-01   max: 0.3249E+00   T at   28  2
       a = -4.000      CL =  0.1111
      Cm = -0.0600     CD =  0.06257   =>   CDf =  0.00524    CDp =  0.05733

 Side 1  free  transition at x/c =  0.6096   50
 Side 2  free  transition at x/c =  0.0610   27

  68   rms: 0.5348E-01   max: 0.2409E+00   D at   28  2
       a = -4.000      CL =  0.1121
      Cm = -0.0601     CD =  0.06321   =>   CDf =  0.00546    CDp =  0.05775

 Side 1  free  transition at x/c =  0.6095   50
 Side 2  free  transition at x/c =  0.0616   27

  69   rms: 0.2805E+00   max: -.1604E+01   T at   28  2   RLX: 0.312
       a = -4.000      CL =  0.0934
      Cm = -0.0569     CD =  0.06018   =>   CDf =  0.00538    CDp =  0.05479

 Side 1  free  transition at x/c =  0.6098   50
 Side 2  free  transition at x/c =  0.0590   27

  70   rms: 0.8625E-01   max: -.2732E+00   D at   67  2
       a = -4.000      CL =  0.0918
      Cm = -0.0565     CD =  0.05990   =>   CDf =  0.00497    CDp =  0.05493

 Side 1  free  transition at x/c =  0.6098   50
 Side 2  free  transition at x/c =  0.0598   27

  71   rms: 0.2073E-01   max: -.2123E+00   T at   27  2
       a = -4.000      CL =  0.1009
      Cm = -0.0583     CD =  0.06102   =>   CDf =  0.00522    CDp =  0.05580

 Side 1  free  transition at x/c =  0.6097   50
 Side 2  free  transition at x/c =  0.0609   27

  72   rms: 0.4973E-01   max: 0.3303E+00   T at   28  2
       a = -4.000      CL =  0.1114
      Cm = -0.0601     CD =  0.06260   =>   CDf =  0.00524    CDp =  0.05736

 Side 1  free  transition at x/c =  0.6096   50
 Side 2  free  transition at x/c =  0.0610   27

  73   rms: 0.5683E-01   max: 0.2551E+00   D at   28  2
       a = -4.000      CL =  0.1119
      Cm = -0.0600     CD =  0.06326   =>   CDf =  0.00547    CDp =  0.05779

 Side 1  free  transition at x/c =  0.6095   50
 Side 2  free  transition at x/c =  0.0616   27

  74   rms: 0.2767E+00   max: -.1567E+01   T at   28  2   RLX: 0.319
       a = -4.000      CL =  0.0934
      Cm = -0.0568     CD =  0.05996   =>   CDf =  0.00538    CDp =  0.05458

 Side 1  free  transition at x/c =  0.6098   50
 Side 2  free  transition at x/c =  0.0589   27

  75   rms: 0.8755E-01   max: -.2767E+00   D at   67  2
       a = -4.000      CL =  0.0916
      Cm = -0.0565     CD =  0.05989   =>   CDf =  0.00497    CDp =  0.05493

 Side 1  free  transition at x/c =  0.6098   50
 Side 2  free  transition at x/c =  0.0598   27

  76   rms: 0.2086E-01   max: -.2135E+00   T at   27  2
       a = -4.000      CL =  0.1008
      Cm = -0.0583     CD =  0.06100   =>   CDf =  0.00521    CDp =  0.05579

 Side 1  free  transition at x/c =  0.6097   50
 Side 2  free  transition at x/c =  0.0609   27

  77   rms: 0.4876E-01   max: 0.3231E+00   T at   28  2
       a = -4.000      CL =  0.1110
      Cm = -0.0600     CD =  0.06256   =>   CDf =  0.00524    CDp =  0.05732

 Side 1  free  transition at x/c =  0.6096   50
 Side 2  free  transition at x/c =  0.0610   27

  78   rms: 0.5215E-01   max: 0.2354E+00   D at   28  2
       a = -4.000      CL =  0.1121
      Cm = -0.0601     CD =  0.06320   =>   CDf =  0.00546    CDp =  0.05774

 Side 1  free  transition at x/c =  0.6095   50
 Side 2  free  transition at x/c =  0.0616   27

  79   rms: 0.2696E+00   max: -.1537E+01   T at   28  2   RLX: 0.325
       a = -4.000      CL =  0.0933
      Cm = -0.0569     CD =  0.06021   =>   CDf =  0.00538    CDp =  0.05483

 Side 1  free  transition at x/c =  0.6098   50
 Side 2  free  transition at x/c =  0.0590   27

  80   rms: 0.8633E-01   max: -.2736E+00   D at   67  2
       a = -4.000      CL =  0.0917
      Cm = -0.0565     CD =  0.05989   =>   CDf =  0.00497    CDp =  0.05492

 Side 1  free  transition at x/c =  0.6098   50
 Side 2  free  transition at x/c =  0.0598   27

  81   rms: 0.2060E-01   max: -.2119E+00   T at   27  2
       a = -4.000      CL =  0.1009
      Cm = -0.0583     CD =  0.06102   =>   CDf =  0.00522    CDp =  0.05580

 Side 1  free  transition at x/c =  0.6097   50
 Side 2  free  transition at x/c =  0.0609   27

  82   rms: 0.4958E-01   max: 0.3292E+00   T at   28  2
       a = -4.000      CL =  0.1113
      Cm = -0.0601     CD =  0.06259   =>   CDf =  0.00524    CDp =  0.05736

 Side 1  free  transition at x/c =  0.6096   50
 Side 2  free  transition at x/c =  0.0610   27

  83   rms: 0.5617E-01   max: 0.2523E+00   D at   28  2
       a = -4.000      CL =  0.1120
      Cm = -0.0600     CD =  0.06325   =>   CDf =  0.00547    CDp =  0.05779

 Side 1  free  transition at x/c =  0.6095   50
 Side 2  free  transition at x/c =  0.0616   27

  84   rms: 0.2651E+00   max: -.1500E+01   T at   28  2   RLX: 0.333
       a = -4.000      CL =  0.0933
      Cm = -0.0568     CD =  0.05997   =>   CDf =  0.00538    CDp =  0.05458

 Side 1  free  transition at x/c =  0.6098   50
 Side 2  free  transition at x/c =  0.0589   27

  85   rms: 0.8756E-01   max: -.2768E+00   D at   67  2
       a = -4.000      CL =  0.0915
      Cm = -0.0565     CD =  0.05989   =>   CDf =  0.00497    CDp =  0.05492

 Side 1  free  transition at x/c =  0.6098   50
 Side 2  free  transition at x/c =  0.0598   27

  86   rms: 0.2080E-01   max: -.2133E+00   T at   27  2
       a = -4.000      CL =  0.1008
      Cm = -0.0583     CD =  0.06100   =>   CDf =  0.00521    CDp =  0.05579

 Side 1  free  transition at x/c =  0.6097   50
 Side 2  free  transition at x/c =  0.0609   27

  87   rms: 0.4874E-01   max: 0.3230E+00   T at   28  2
       a = -4.000      CL =  0.1110
      Cm = -0.0600     CD =  0.06255   =>   CDf =  0.00524    CDp =  0.05732

 Side 1  free  transition at x/c =  0.6096   50
 Side 2  free  transition at x/c =  0.0610   27

  88   rms: 0.5208E-01   max: 0.2351E+00   D at   28  2
       a = -4.000      CL =  0.1121
      Cm = -0.0601     CD =  0.06320   =>   CDf =  0.00546    CDp =  0.05774

 Side 1  free  transition at x/c =  0.6095   50
 Side 2  free  transition at x/c =  0.0616   27

  89   rms: 0.2690E+00   max: -.1534E+01   T at   28  2   RLX: 0.326
       a = -4.000      CL =  0.0933
      Cm = -0.0569     CD =  0.06021   =>   CDf =  0.00538    CDp =  0.05483

 Side 1  free  transition at x/c =  0.6098   50
 Side 2  free  transition at x/c =  0.0590   27

  90   rms: 0.8633E-01   max: -.2736E+00   D at   67  2
       a = -4.000      CL =  0.0917
      Cm = -0.0565     CD =  0.05989   =>   CDf =  0.00497    CDp =  0.05492

 Side 1  free  transition at x/c =  0.6098   50
 Side 2  free  transition at x/c =  0.0598   27

  91   rms: 0.2059E-01   max: -.2119E+00   T at   27  2
       a = -4.000      CL =  0.1009
      Cm = -0.0583     CD =  0.06102   =>   CDf =  0.00522    CDp =  0.05580

 Side 1  free  transition at x/c =  0.6097   50
 Side 2  free  transition at x/c =  0.0609   27

  92   rms: 0.4957E-01   max: 0.3292E+00   T at   28  2
       a = -4.000      CL =  0.1113
      Cm = -0.0601     CD =  0.06259   =>   CDf =  0.00524    CDp =  0.05736

 Side 1  free  transition at x/c =  0.6096   50
 Side 2  free  transition at x/c =  0.0610   27

  93   rms: 0.5613E-01   max: 0.2522E+00   D at   28  2
       a = -4.000      CL =  0.1120
      Cm = -0.0600     CD =  0.06325   =>   CDf =  0.00547    CDp =  0.05779

 Side 1  free  transition at x/c =  0.6095   50
 Side 2  free  transition at x/c =  0.0616   27

  94   rms: 0.2650E+00   max: -.1500E+01   T at   28  2   RLX: 0.333
       a = -4.000      CL =  0.0933
      Cm = -0.0568     CD =  0.05997   =>   CDf =  0.00538    CDp =  0.05458

 Side 1  free  transition at x/c =  0.6098   50
 Side 2  free  transition at x/c =  0.0589   27

  95   rms: 0.8756E-01   max: -.2768E+00   D at   67  2
       a = -4.000      CL =  0.0915
      Cm = -0.0565     CD =  0.05989   =>   CDf =  0.00497    CDp =  0.05492

 Side 1  free  transition at x/c =  0.6098   50
 Side 2  free  transition at x/c =  0.0598   27

  96   rms: 0.2080E-01   max: -.2132E+00   T at   27  2
       a = -4.000      CL =  0.1008
      Cm = -0.0583     CD =  0.06100   =>   CDf =  0.00521    CDp =  0.05579

 Side 1  free  transition at x/c =  0.6097   50
 Side 2  free  transition at x/c =  0.0609   27

  97   rms: 0.4874E-01   max: 0.3230E+00   T at   28  2
       a = -4.000      CL =  0.1110
      Cm = -0.0600     CD =  0.06255   =>   CDf =  0.00524    CDp =  0.05732

 Side 1  free  transition at x/c =  0.6096   50
 Side 2  free  transition at x/c =  0.0610   27

  98   rms: 0.5212E-01   max: 0.2352E+00   D at   28  2
       a = -4.000      CL =  0.1121
      Cm = -0.0601     CD =  0.06320   =>   CDf =  0.00546    CDp =  0.05774

 Side 1  free  transition at x/c =  0.6095   50
 Side 2  free  transition at x/c =  0.0616   27

  99   rms: 0.2689E+00   max: -.1534E+01   T at   28  2   RLX: 0.326
       a = -4.000      CL =  0.0933
      Cm = -0.0569     CD =  0.06021   =>   CDf =  0.00538    CDp =  0.05483

 Side 1  free  transition at x/c =  0.6098   50
 Side 2  free  transition at x/c =  0.0590   27

 100   rms: 0.8633E-01   max: -.2736E+00   D at   67  2
       a = -4.000      CL =  0.0917
      Cm = -0.0565     CD =  0.05989   =>   CDf =  0.00497    CDp =  0.05492

 Side 1  free  transition at x/c =  0.6098   50
 Side 2  free  transition at x/c =  0.0598   27

 101   rms: 0.2059E-01   max: -.2119E+00   T at   27  2
       a = -4.000      CL =  0.1009
      Cm = -0.0583     CD =  0.06102   =>   CDf =  0.00522    CDp =  0.05580

 Side 1  free  transition at x/c =  0.6097   50
 Side 2  free  transition at x/c =  0.0609   27

 102   rms: 0.4958E-01   max: 0.3292E+00   T at   28  2
       a = -4.000      CL =  0.1113
      Cm = -0.0601     CD =  0.06259   =>   CDf =  0.00524    CDp =  0.05736

 Side 1  free  transition at x/c =  0.6096   50
 Side 2  free  transition at x/c =  0.0610   27

 103   rms: 0.5617E-01   max: 0.2523E+00   D at   28  2
       a = -4.000      CL =  0.1120
      Cm = -0.0600     CD =  0.06325   =>   CDf =  0.00547    CDp =  0.05779

 Side 1  free  transition at x/c =  0.6095   50
 Side 2  free  transition at x/c =  0.0616   27

 104   rms: 0.2651E+00   max: -.1501E+01   T at   28  2   RLX: 0.333
       a = -4.000      CL =  0.0933
      Cm = -0.0568     CD =  0.05997   =>   CDf =  0.00538    CDp =  0.05458

 Side 1  free  transition at x/c =  0.6098   50
 Side 2  free  transition at x/c =  0.0589   27

 105   rms: 0.8756E-01   max: -.2768E+00   D at   67  2
       a = -4.000      CL =  0.0915
      Cm = -0.0565     CD =  0.05989   =>   CDf =  0.00497    CDp =  0.05492

 Side 1  free  transition at x/c =  0.6098   50
 Side 2  free  transition at x/c =  0.0598   27

 106   rms: 0.2080E-01   max: -.2133E+00   T at   27  2
       a = -4.000      CL =  0.1008
      Cm = -0.0583     CD =  0.06100   =>   CDf =  0.00521    CDp =  0.05579

 Side 1  free  transition at x/c =  0.6097   50
 Side 2  free  transition at x/c =  0.0609   27

 107   rms: 0.4873E-01   max: 0.3230E+00   T at   28  2
       a = -4.000      CL =  0.1110
      Cm = -0.0600     CD =  0.06255   =>   CDf =  0.00524    CDp =  0.05732

 Side 1  free  transition at x/c =  0.6096   50
 Side 2  free  transition at x/c =  0.0610   27

 108   rms: 0.5206E-01   max: 0.2350E+00   D at   28  2
       a = -4.000      CL =  0.1121
      Cm = -0.0601     CD =  0.06320   =>   CDf =  0.00546    CDp =  0.05774

 Side 1  free  transition at x/c =  0.6095   50
 Side 2  free  transition at x/c =  0.0616   27

 109   rms: 0.2701E+00   max: -.1540E+01   T at   28  2   RLX: 0.325
       a = -4.000      CL =  0.0933
      Cm = -0.0569     CD =  0.06021   =>   CDf =  0.00538    CDp =  0.05483

 Side 1  free  transition at x/c =  0.6098   50
 Side 2  free  transition at x/c =  0.0590   27

 110   rms: 0.8634E-01   max: -.2736E+00   D at   67  2
       a = -4.000      CL =  0.0917
      Cm = -0.0565     CD =  0.05989   =>   CDf =  0.00497    CDp =  0.05492

 Side 1  free  transition at x/c =  0.6098   50
 Side 2  free  transition at x/c =  0.0598   27

 111   rms: 0.2059E-01   max: -.2120E+00   T at   27  2
       a = -4.000      CL =  0.1009
      Cm = -0.0583     CD =  0.06102   =>   CDf =  0.00522    CDp =  0.05580

 Side 1  free  transition at x/c =  0.6097   50
 Side 2  free  transition at x/c =  0.0609   27

 112   rms: 0.4958E-01   max: 0.3293E+00   T at   28  2
       a = -4.000      CL =  0.1113
      Cm = -0.0601     CD =  0.06259   =>   CDf =  0.00524    CDp =  0.05736

 Side 1  free  transition at x/c =  0.6096   50
 Side 2  free  transition at x/c =  0.0610   27

 113   rms: 0.5619E-01   max: 0.2524E+00   D at   28  2
       a = -4.000      CL =  0.1120
      Cm = -0.0600     CD =  0.06325   =>   CDf =  0.00547    CDp =  0.05779

 Side 1  free  transition at x/c =  0.6095   50
 Side 2  free  transition at x/c =  0.0616   27

 114   rms: 0.2650E+00   max: -.1500E+01   T at   28  2   RLX: 0.333
       a = -4.000      CL =  0.0933
      Cm = -0.0568     CD =  0.05997   =>   CDf =  0.00538    CDp =  0.05458

 Side 1  free  transition at x/c =  0.6098   50
 Side 2  free  transition at x/c =  0.0589   27

 115   rms: 0.8755E-01   max: -.2768E+00   D at   67  2
       a = -4.000      CL =  0.0915
      Cm = -0.0565     CD =  0.05989   =>   CDf =  0.00497    CDp =  0.05492

 Side 1  free  transition at x/c =  0.6098   50
 Side 2  free  transition at x/c =  0.0598   27

 116   rms: 0.2080E-01   max: -.2132E+00   T at   27  2
       a = -4.000      CL =  0.1008
      Cm = -0.0583     CD =  0.06100   =>   CDf =  0.00521    CDp =  0.05579

 Side 1  free  transition at x/c =  0.6097   50
 Side 2  free  transition at x/c =  0.0609   27

 117   rms: 0.4874E-01   max: 0.3230E+00   T at   28  2
       a = -4.000      CL =  0.1110
      Cm = -0.0600     CD =  0.06255   =>   CDf =  0.00524    CDp =  0.05732

 Side 1  free  transition at x/c =  0.6096   50
 Side 2  free  transition at x/c =  0.0610   27

 118   rms: 0.5211E-01   max: 0.2352E+00   D at   28  2
       a = -4.000      CL =  0.1121
      Cm = -0.0601     CD =  0.06320   =>   CDf =  0.00546    CDp =  0.05774

 Side 1  free  transition at x/c =  0.6095   50
 Side 2  free  transition at x/c =  0.0616   27

 119   rms: 0.2696E+00   max: -.1538E+01   T at   28  2   RLX: 0.325
       a = -4.000      CL =  0.0933
      Cm = -0.0569     CD =  0.06021   =>   CDf =  0.00538    CDp =  0.05483

 Side 1  free  transition at x/c =  0.6098   50
 Side 2  free  transition at x/c =  0.0590   27

 120   rms: 0.8633E-01   max: -.2736E+00   D at   67  2
       a = -4.000      CL =  0.0917
      Cm = -0.0565     CD =  0.05989   =>   CDf =  0.00497    CDp =  0.05492

 Side 1  free  transition at x/c =  0.6098   50
 Side 2  free  transition at x/c =  0.0598   27

 121   rms: 0.2061E-01   max: -.2120E+00   T at   27  2
       a = -4.000      CL =  0.1009
      Cm = -0.0583     CD =  0.06102   =>   CDf =  0.00522    CDp =  0.05580

 Side 1  free  transition at x/c =  0.6097   50
 Side 2  free  transition at x/c =  0.0609   27

 122   rms: 0.4957E-01   max: 0.3291E+00   T at   28  2
       a = -4.000      CL =  0.1113
      Cm = -0.0601     CD =  0.06259   =>   CDf =  0.00524    CDp =  0.05736

 Side 1  free  transition at x/c =  0.6096   50
 Side 2  free  transition at x/c =  0.0610   27

 123   rms: 0.5611E-01   max: 0.2521E+00   D at   28  2
       a = -4.000      CL =  0.1120
      Cm = -0.0600     CD =  0.06325   =>   CDf =  0.00547    CDp =  0.05779

 Side 1  free  transition at x/c =  0.6095   50
 Side 2  free  transition at x/c =  0.0616   27

 124   rms: 0.2656E+00   max: -.1503E+01   T at   28  2   RLX: 0.333
       a = -4.000      CL =  0.0933
      Cm = -0.0568     CD =  0.05997   =>   CDf =  0.00538    CDp =  0.05458

 Side 1  free  transition at x/c =  0.6098   50
 Side 2  free  transition at x/c =  0.0589   27

 125   rms: 0.8757E-01   max: -.2769E+00   D at   67  2
       a = -4.000      CL =  0.0915
      Cm = -0.0565     CD =  0.05989   =>   CDf =  0.00497    CDp =  0.05492

 Side 1  free  transition at x/c =  0.6098   50
 Side 2  free  transition at x/c =  0.0598   27

 126   rms: 0.2079E-01   max: -.2133E+00   T at   27  2
       a = -4.000      CL =  0.1008
      Cm = -0.0583     CD =  0.06100   =>   CDf =  0.00521    CDp =  0.05579

 Side 1  free  transition at x/c =  0.6097   50
 Side 2  free  transition at x/c =  0.0609   27

 127   rms: 0.4870E-01   max: 0.3228E+00   T at   28  2
       a = -4.000      CL =  0.1110
      Cm = -0.0600     CD =  0.06255   =>   CDf =  0.00524    CDp =  0.05732

 Side 1  free  transition at x/c =  0.6096   50
 Side 2  free  transition at x/c =  0.0610   27

 128   rms: 0.5195E-01   max: 0.2347E+00   D at   28  2
       a = -4.000      CL =  0.1121
      Cm = -0.0600     CD =  0.06319   =>   CDf =  0.00546    CDp =  0.05773

 Side 1  free  transition at x/c =  0.6095   50
 Side 2  free  transition at x/c =  0.0616   27

 129   rms: 0.2738E+00   max: -.1563E+01   T at   28  2   RLX: 0.320
       a = -4.000      CL =  0.0933
      Cm = -0.0569     CD =  0.06021   =>   CDf =  0.00538    CDp =  0.05483

 Side 1  free  transition at x/c =  0.6098   50
 Side 2  free  transition at x/c =  0.0590   27

 130   rms: 0.8643E-01   max: -.2738E+00   D at   67  2
       a = -4.000      CL =  0.0917
      Cm = -0.0565     CD =  0.05989   =>   CDf =  0.00497    CDp =  0.05492

 Side 1  free  transition at x/c =  0.6098   50
 Side 2  free  transition at x/c =  0.0598   27

 131   rms: 0.2066E-01   max: -.2122E+00   T at   27  2
       a = -4.000      CL =  0.1009
      Cm = -0.0583     CD =  0.06102   =>   CDf =  0.00522    CDp =  0.05580

 Side 1  free  transition at x/c =  0.6097   50
 Side 2  free  transition at x/c =  0.0609   27

 132   rms: 0.4954E-01   max: 0.3289E+00   T at   28  2
       a = -4.000      CL =  0.1113
      Cm = -0.0601     CD =  0.06259   =>   CDf =  0.00524    CDp =  0.05735

 Side 1  free  transition at x/c =  0.6096   50
 Side 2  free  transition at x/c =  0.0610   27

 133   rms: 0.5598E-01   max: 0.2515E+00   D at   28  2
       a = -4.000      CL =  0.1120
      Cm = -0.0600     CD =  0.06325   =>   CDf =  0.00547    CDp =  0.05779

 Side 1  free  transition at x/c =  0.6095   50
 Side 2  free  transition at x/c =  0.0616   27

 134   rms: 0.3352E+00   max: -.1922E+01   T at   28  2   RLX: 0.260
       a = -4.000      CL =  0.0936
      Cm = -0.0569     CD =  0.06012   =>   CDf =  0.00538    CDp =  0.05474

 Side 1  free  transition at x/c =  0.6098   50
 Side 2  free  transition at x/c =  0.0589   27

 135   rms: 0.8617E-01   max: -.2726E+00   D at   67  2
       a = -4.000      CL =  0.0919
      Cm = -0.0565     CD =  0.05990   =>   CDf =  0.00497    CDp =  0.05493

 Side 1  free  transition at x/c =  0.6098   50
 Side 2  free  transition at x/c =  0.0598   27

 136   rms: 0.2100E-01   max: -.2131E+00   T at   27  2
       a = -4.000      CL =  0.1009
      Cm = -0.0583     CD =  0.06101   =>   CDf =  0.00521    CDp =  0.05580

 Side 1  free  transition at x/c =  0.6097   50
 Side 2  free  transition at x/c =  0.0609   27

 137   rms: 0.5021E-01   max: 0.3339E+00   T at   28  2
       a = -4.000      CL =  0.1115
      Cm = -0.0601     CD =  0.06262   =>   CDf =  0.00524    CDp =  0.05738

 Side 1  free  transition at x/c =  0.6096   50
 Side 2  free  transition at x/c =  0.0610   27

 138   rms: 0.5899E-01   max: 0.2642E+00   D at   28  2
       a = -4.000      CL =  0.1119
      Cm = -0.0600     CD =  0.06329   =>   CDf =  0.00547    CDp =  0.05781

 Side 1  free  transition at x/c =  0.6095   50
 Side 2  free  transition at x/c =  0.0616   27

 139   rms: 0.3215E+00   max: -.1827E+01   T at   28  2   RLX: 0.274
       a = -4.000      CL =  0.0936
      Cm = -0.0568     CD =  0.05991   =>   CDf =  0.00539    CDp =  0.05452

 Side 1  free  transition at x/c =  0.6098   50
 Side 2  free  transition at x/c =  0.0589   27

 140   rms: 0.8740E-01   max: -.2758E+00   D at   67  2
       a = -4.000      CL =  0.0917
      Cm = -0.0565     CD =  0.05989   =>   CDf =  0.00497    CDp =  0.05493

 Side 1  free  transition at x/c =  0.6098   50
 Side 2  free  transition at x/c =  0.0598   27

 141   rms: 0.2108E-01   max: -.2138E+00   T at   27  2
       a = -4.000      CL =  0.1009
      Cm = -0.0583     CD =  0.06100   =>   CDf =  0.00521    CDp =  0.05579

 Side 1  free  transition at x/c =  0.6097   50
 Side 2  free  transition at x/c =  0.0609   27

 142   rms: 0.4902E-01   max: 0.3249E+00   T at   28  2
       a = -4.000      CL =  0.1111
      Cm = -0.0600     CD =  0.06257   =>   CDf =  0.00524    CDp =  0.05733

 Side 1  free  transition at x/c =  0.6096   50
 Side 2  free  transition at x/c =  0.0610   27

 143   rms: 0.5326E-01   max: 0.2401E+00   D at   28  2
       a = -4.000      CL =  0.1121
      Cm = -0.0601     CD =  0.06321   =>   CDf =  0.00546    CDp =  0.05775

 Side 1  free  transition at x/c =  0.6095   50
 Side 2  free  transition at x/c =  0.0616   27

 144   rms: 0.2798E+00   max: -.1598E+01   T at   28  2   RLX: 0.313
       a = -4.000      CL =  0.0934
      Cm = -0.0569     CD =  0.06019   =>   CDf =  0.00538    CDp =  0.05481

 Side 1  free  transition at x/c =  0.6098   50
 Side 2  free  transition at x/c =  0.0590   27

 145   rms: 0.8629E-01   max: -.2734E+00   D at   67  2
       a = -4.000      CL =  0.0918
      Cm = -0.0565     CD =  0.05990   =>   CDf =  0.00497    CDp =  0.05493

 Side 1  free  transition at x/c =  0.6098   50
 Side 2  free  transition at x/c =  0.0598   27

 146   rms: 0.2071E-01   max: -.2123E+00   T at   27  2
       a = -4.000      CL =  0.1009
      Cm = -0.0583     CD =  0.06102   =>   CDf =  0.00522    CDp =  0.05580

 Side 1  free  transition at x/c =  0.6097   50
 Side 2  free  transition at x/c =  0.0609   27

 147   rms: 0.4971E-01   max: 0.3301E+00   T at   28  2
       a = -4.000      CL =  0.1114
      Cm = -0.0601     CD =  0.06260   =>   CDf =  0.00524    CDp =  0.05736

 Side 1  free  transition at x/c =  0.6096   50
 Side 2  free  transition at x/c =  0.0610   27

 148   rms: 0.5675E-01   max: 0.2548E+00   D at   28  2
       a = -4.000      CL =  0.1119
      Cm = -0.0600     CD =  0.06326   =>   CDf =  0.00547    CDp =  0.05779

 Side 1  free  transition at x/c =  0.6095   50
 Side 2  free  transition at x/c =  0.0616   27

 149   rms: 0.2767E+00   max: -.1567E+01   T at   28  2   RLX: 0.319
       a = -4.000      CL =  0.0934
      Cm = -0.0568     CD =  0.05996   =>   CDf =  0.00538    CDp =  0.05458

 Side 1  free  transition at x/c =  0.6098   50
 Side 2  free  transition at x/c =  0.0589   27

 150   rms: 0.8755E-01   max: -.2767E+00   D at   67  2
       a = -4.000      CL =  0.0916
      Cm = -0.0565     CD =  0.05989   =>   CDf =  0.00497    CDp =  0.05493

 Side 1  free  transition at x/c =  0.6098   50
 Side 2  free  transition at x/c =  0.0598   27

 151   rms: 0.2086E-01   max: -.2135E+00   T at   27  2
       a = -4.000      CL =  0.1008
      Cm = -0.0583     CD =  0.06100   =>   CDf =  0.00521    CDp =  0.05579

 Side 1  free  transition at x/c =  0.6097   50
 Side 2  free  transition at x/c =  0.0609   27

 152   rms: 0.4879E-01   max: 0.3234E+00   T at   28  2
       a = -4.000      CL =  0.1111
      Cm = -0.0600     CD =  0.06256   =>   CDf =  0.00524    CDp =  0.05732

 Side 1  free  transition at x/c =  0.6096   50
 Side 2  free  transition at x/c =  0.0610   27

 153   rms: 0.5230E-01   max: 0.2361E+00   D at   28  2
       a = -4.000      CL =  0.1121
      Cm = -0.0601     CD =  0.06320   =>   CDf =  0.00546    CDp =  0.05774

 Side 1  free  transition at x/c =  0.6095   50
 Side 2  free  transition at x/c =  0.0616   27

 154   rms: 0.2706E+00   max: -.1544E+01   T at   28  2   RLX: 0.324
       a = -4.000      CL =  0.0933
      Cm = -0.0569     CD =  0.06020   =>   CDf =  0.00538    CDp =  0.05482

 Side 1  free  transition at x/c =  0.6098   50
 Side 2  free  transition at x/c =  0.0590   27

 155   rms: 0.8632E-01   max: -.2735E+00   D at   67  2
       a = -4.000      CL =  0.0917
      Cm = -0.0565     CD =  0.05989   =>   CDf =  0.00497    CDp =  0.05492
 VISCAL:  Convergence failed
 Calculating wake trajectory ...
 Calculating source influence matrix ...

 Solving BL system ...

 Side 1  free  transition at x/c =  0.6098   50
 Side 2  free  transition at x/c =  0.0598   27

   1   rms: 0.1464E+00   max: -.1799E+01   T at   27  2   RLX: 0.278
       a = -3.500      CL =  0.1172
      Cm = -0.0590     CD =  0.06052   =>   CDf =  0.00522    CDp =  0.05529

 Side 1  free  transition at x/c =  0.6077   50
 Side 2  free  transition at x/c =  0.0603   27

   2   rms: 0.7112E-01   max: -.4286E+00   T at   27  2
       a = -3.500      CL =  0.1541
      Cm = -0.0611     CD =  0.05839   =>   CDf =  0.00531    CDp =  0.05308

 Side 1  free  transition at x/c =  0.6031   51
 Side 2  free  transition at x/c =  0.0613   26

   3   rms: 0.6351E-01   max: 0.3573E+00   T at   27  2
       a = -3.500      CL =  0.1681
      Cm = -0.0626     CD =  0.06017   =>   CDf =  0.00566    CDp =  0.05451

 Side 1  free  transition at x/c =  0.6035   51
 Side 2  free  transition at x/c =  0.0706   27

   4   rms: 0.8108E+00   max: 0.4142E+01   D at   38  2   RLX: 0.362
       a = -3.500      CL =  0.1716
      Cm = -0.0621     CD =  0.04017   =>   CDf =  0.00847    CDp =  0.03170

 MRCHDU: Convergence failed at  38  side 2    Res =  0.2121E+01
 MRCHDU: Convergence failed at  39  side 2    Res =  0.1223E+01
 MRCHDU: Convergence failed at  40  side 2    Res =  0.1084E+01
 MRCHDU: Convergence failed at  41  side 2    Res =  0.1537E+01
 MRCHDU: Convergence failed at  42  side 2    Res =  0.1968E+01
 MRCHDU: Convergence failed at  43  side 2    Res =  0.2558E+01
 MRCHDU: Convergence failed at  44  side 2    Res =  0.3483E+01
 MRCHDU: Convergence failed at  45  side 2    Res =  0.5023E+01
 MRCHDU: Convergence failed at  46  side 2    Res =  0.2917E+01
 MRCHDU: Convergence failed at  47  side 2    Res =  0.1073E+02
 MRCHDU: Convergence failed at  48  side 2    Res =  0.2202E+02
 MRCHDU: Convergence failed at  49  side 2    Res =  0.4298E+02
 MRCHDU: Convergence failed at  50  side 2    Res =  0.8367E+02
 MRCHDU: Convergence failed at  51  side 2    Res =  0.8471E+01
 MRCHDU: Convergence failed at  52  side 2    Res =  0.5433E+01
 MRCHDU: Convergence failed at  53  side 2    Res =  0.4156E+01
 MRCHDU: Convergence failed at  54  side 2    Res =  0.3344E+01
 MRCHDU: Convergence failed at  55  side 2    Res =  0.2783E+01
 MRCHDU: Convergence failed at  56  side 2    Res =  0.2405E+01
 MRCHDU: Convergence failed at  57  side 2    Res =  0.2101E+01
 MRCHDU: Convergence failed at  58  side 2    Res =  0.1878E+01
 MRCHDU: Convergence failed at  59  side 2    Res =  0.1708E+01
 MRCHDU: Convergence failed at  60  side 2    Res =  0.1412E+01
 MRCHDU: Convergence failed at  61  side 2    Res =  0.1307E+01
 MRCHDU: Convergence failed at  62  side 2    Res =  0.1225E+01
 MRCHDU: Convergence failed at  63  side 2    Res =  0.1154E+01
 MRCHDU: Convergence failed at  64  side 2    Res =  0.1100E+01
 MRCHDU: Convergence failed at  65  side 2    Res =  0.1274E+01
 MRCHDU: Convergence failed at  66  side 2    Res =  0.1323E+01
 MRCHDU: Convergence failed at  67  side 2    Res =  0.1374E+01
 MRCHDU: Convergence failed at  68  side 2    Res =  0.1434E+01
 MRCHDU: Convergence failed at  69  side 2    Res =  0.1506E+01
 Side 1  free  transition at x/c =  0.6039   51
 Side 2  free  transition at x/c =  0.0657   27

   5   rms: 0.2508E+00   max: 0.1645E+01   D at   37  2   RLX: 0.912
       a = -3.500      CL =  0.1893
      Cm = -0.0675     CD =  0.05074   =>   CDf =  0.00505    CDp =  0.04570

 Side 1  free  transition at x/c =  0.6033   51
 Side 2  free  transition at x/c =  0.0649   27

   6   rms: 0.1463E+00   max: 0.7116E+00   D at   42  2
       a = -3.500      CL =  0.1407
      Cm = -0.0586     CD =  0.05798   =>   CDf =  0.00604    CDp =  0.05194

 Side 1  free  transition at x/c =  0.6037   51
 Side 2  free  transition at x/c =  0.0628   27

   7   rms: 0.6422E-01   max: -.2061E+00   D at   27  2
       a = -3.500      CL =  0.1438
      Cm = -0.0598     CD =  0.05619   =>   CDf =  0.00547    CDp =  0.05072

 Side 1  free  transition at x/c =  0.6038   51
 Side 2  free  transition at x/c =  0.0632   27

[...]

 Side 1  free  transition at x/c =  0.4446   55
 Side 2 forced transition at x/c =  1.0000   72

  21   rms: 0.8841E-01   max: 0.2502E+00   D at   83  2
       a =  9.000      CL =  1.3265
      Cm = -0.0585     CD =  0.04461   =>   CDf =  0.00745    CDp =  0.03716

 Side 1  free  transition at x/c =  0.4411   54
 Side 2 forced transition at x/c =  1.0000   72

  22   rms: 0.5640E-01   max: -.2032E+00   D at   67  1
       a =  9.000      CL =  1.3721
      Cm = -0.0615     CD =  0.04018   =>   CDf =  0.00739    CDp =  0.03279

 Side 1  free  transition at x/c =  0.4446   55
 Side 2 forced transition at x/c =  1.0000   72

  23   rms: 0.8837E-01   max: 0.2501E+00   D at   83  2
       a =  9.000      CL =  1.3265
      Cm = -0.0585     CD =  0.04461   =>   CDf =  0.00745    CDp =  0.03716

 Side 1  free  transition at x/c =  0.4411   54
 Side 2 forced transition at x/c =  1.0000   72

  24   rms: 0.5640E-01   max: -.2032E+00   D at   67  1
       a =  9.000      CL =  1.3721
      Cm = -0.0615     CD =  0.04018   =>   CDf =  0.00739    CDp =  0.03279

 Side 1  free  transition at x/c =  0.4446   55
 Side 2 forced transition at x/c =  1.0000   72

  25   rms: 0.8840E-01   max: 0.2502E+00   D at   83  2
       a =  9.000      CL =  1.3265
      Cm = -0.0585     CD =  0.04461   =>   CDf =  0.00745    CDp =  0.03716

 Side 1  free  transition at x/c =  0.4411   54
 Side 2 forced transition at x/c =  1.0000   72

  26   rms: 0.5640E-01   max: -.2032E+00   D at   67  1
       a =  9.000      CL =  1.3721
      Cm = -0.0615     CD =  0.04018   =>   CDf =  0.00739    CDp =  0.03279

 Side 1  free  transition at x/c =  0.4446   55
 Side 2 forced transition at x/c =  1.0000   72

  27   rms: 0.8839E-01   max: 0.2502E+00   D at   83  2
       a =  9.000      CL =  1.3265
      Cm = -0.0585     CD =  0.04461   =>   CDf =  0.00745    CDp =  0.03716

 Side 1  free  transition at x/c =  0.4411   54
 Side 2 forced transition at x/c =  1.0000   72

  28   rms: 0.5640E-01   max: -.2032E+00   D at   67  1
       a =  9.000      CL =  1.3721
      Cm = -0.0615     CD =  0.04018   =>   CDf =  0.00739    CDp =  0.03279

 Side 1  free  transition at x/c =  0.4446   55
 Side 2 forced transition at x/c =  1.0000   72

  29   rms: 0.8840E-01   max: 0.2502E+00   D at   83  2
       a =  9.000      CL =  1.3265
      Cm = -0.0585     CD =  0.04461   =>   CDf =  0.00745    CDp =  0.03716

 Side 1  free  transition at x/c =  0.4411   54
 Side 2 forced transition at x/c =  1.0000   72

  30   rms: 0.5640E-01   max: -.2032E+00   D at   67  1
       a =  9.000      CL =  1.3721
      Cm = -0.0615     CD =  0.04018   =>   CDf =  0.00739    CDp =  0.03279

 Side 1  free  transition at x/c =  0.4446   55
 Side 2 forced transition at x/c =  1.0000   72

  31   rms: 0.8841E-01   max: 0.2502E+00   D at   83  2
       a =  9.000      CL =  1.3265
      Cm = -0.0585     CD =  0.04461   =>   CDf =  0.00745    CDp =  0.03716

 Side 1  free  transition at x/c =  0.4411   54
 Side 2 forced transition at x/c =  1.0000   72

  32   rms: 0.5640E-01   max: -.2032E+00   D at   67  1
       a =  9.000      CL =  1.3721
      Cm = -0.0615     CD =  0.04018   =>   CDf =  0.00739    CDp =  0.03279

 Side 1  free  transition at x/c =  0.4446   55
 Side 2 forced transition at x/c =  1.0000   72

  33   rms: 0.8838E-01   max: 0.2502E+00   D at   83  2
       a =  9.000      CL =  1.3265
      Cm = -0.0585     CD =  0.04461   =>   CDf =  0.00745    CDp =  0.03716

 Side 1  free  transition at x/c =  0.4411   54
 Side 2 forced transition at x/c =  1.0000   72

  34   rms: 0.5640E-01   max: -.2032E+00   D at   67  1
       a =  9.000      CL =  1.3721
      Cm = -0.0615     CD =  0.04018   =>   CDf =  0.00739    CDp =  0.03279

 Side 1  free  transition at x/c =  0.4446   55
 Side 2 forced transition at x/c =  1.0000   72

  35   rms: 0.8839E-01   max: 0.2502E+00   D at   83  2
       a =  9.000      CL =  1.3265
      Cm = -0.0585     CD =  0.04461   =>   CDf =  0.00745    CDp =  0.03716

 Side 1  free  transition at x/c =  0.4411   54
 Side 2 forced transition at x/c =  1.0000   72

  36   rms: 0.5640E-01   max: -.2032E+00   D at   67  1
       a =  9.000      CL =  1.3721
      Cm = -0.0615     CD =  0.04018   =>   CDf =  0.00739    CDp =  0.03279

 Side 1  free  transition at x/c =  0.4446   55
 Side 2 forced transition at x/c =  1.0000   72

  37   rms: 0.8841E-01   max: 0.2502E+00   D at   83  2
       a =  9.000      CL =  1.3265
      Cm = -0.0585     CD =  0.04461   =>   CDf =  0.00745    CDp =  0.03716

 Side 1  free  transition at x/c =  0.4411   54
 Side 2 forced transition at x/c =  1.0000   72

  38   rms: 0.5640E-01   max: -.2032E+00   D at   67  1
       a =  9.000      CL =  1.3721
      Cm = -0.0615     CD =  0.04018   =>   CDf =  0.00739    CDp =  0.03279

 Side 1  free  transition at x/c =  0.4446   55
 Side 2 forced transition at x/c =  1.0000   72

  39   rms: 0.8839E-01   max: 0.2502E+00   D at   83  2
       a =  9.000      CL =  1.3265
      Cm = -0.0585     CD =  0.04461   =>   CDf =  0.00745    CDp =  0.03716

 Side 1  free  transition at x/c =  0.4411   54
 Side 2 forced transition at x/c =  1.0000   72

  40   rms: 0.5640E-01   max: -.2032E+00   D at   67  1
       a =  9.000      CL =  1.3721
      Cm = -0.0615     CD =  0.04018   =>   CDf =  0.00739    CDp =  0.03279

 Side 1  free  transition at x/c =  0.4446   55
 Side 2 forced transition at x/c =  1.0000   72

  41   rms: 0.8839E-01   max: 0.2502E+00   D at   83  2
       a =  9.000      CL =  1.3265
      Cm = -0.0585     CD =  0.04461   =>   CDf =  0.00745    CDp =  0.03716

 Side 1  free  transition at x/c =  0.4411   54
 Side 2 forced transition at x/c =  1.0000   72

  42   rms: 0.5640E-01   max: -.2032E+00   D at   67  1
       a =  9.000      CL =  1.3721
      Cm = -0.0615     CD =  0.04018   =>   CDf =  0.00739    CDp =  0.03279

 Side 1  free  transition at x/c =  0.4446   55
 Side 2 forced transition at x/c =  1.0000   72

  43   rms: 0.8838E-01   max: 0.2502E+00   D at   83  2
       a =  9.000      CL =  1.3265
      Cm = -0.0585     CD =  0.04461   =>   CDf =  0.00745    CDp =  0.03716

 Side 1  free  transition at x/c =  0.4411   54
 Side 2 forced transition at x/c =  1.0000   72

  44   rms: 0.5640E-01   max: -.2032E+00   D at   67  1
       a =  9.000      CL =  1.3721
      Cm = -0.0615     CD =  0.04018   =>   CDf =  0.00739    CDp =  0.03279

 Side 1  free  transition at x/c =  0.4446   55
 Side 2 forced transition at x/c =  1.0000   72

  45   rms: 0.8840E-01   max: 0.2502E+00   D at   83  2
       a =  9.000      CL =  1.3265
      Cm = -0.0585     CD =  0.04461   =>   CDf =  0.00745    CDp =  0.03716

 Side 1  free  transition at x/c =  0.4411   54
 Side 2 forced transition at x/c =  1.0000   72

  46   rms: 0.5640E-01   max: -.2032E+00   D at   67  1
       a =  9.000      CL =  1.3721
      Cm = -0.0615     CD =  0.04018   =>   CDf =  0.00739    CDp =  0.03279

 Side 1  free  transition at x/c =  0.4446   55
 Side 2 forced transition at x/c =  1.0000   72

  47   rms: 0.8837E-01   max: 0.2501E+00   D at   83  2
       a =  9.000      CL =  1.3265
      Cm = -0.0585     CD =  0.04461   =>   CDf =  0.00745    CDp =  0.03716

 Side 1  free  transition at x/c =  0.4411   54
 Side 2 forced transition at x/c =  1.0000   72

  48   rms: 0.5640E-01   max: -.2032E+00   D at   67  1
       a =  9.000      CL =  1.3721
      Cm = -0.0615     CD =  0.04018   =>   CDf =  0.00739    CDp =  0.03279

 Side 1  free  transition at x/c =  0.4446   55
 Side 2 forced transition at x/c =  1.0000   72

  49   rms: 0.8840E-01   max: 0.2502E+00   D at   83  2
       a =  9.000      CL =  1.3265
      Cm = -0.0585     CD =  0.04461   =>   CDf =  0.00745    CDp =  0.03716

 Side 1  free  transition at x/c =  0.4411   54
 Side 2 forced transition at x/c =  1.0000   72

  50   rms: 0.5640E-01   max: -.2032E+00   D at   67  1
       a =  9.000      CL =  1.3721
      Cm = -0.0615     CD =  0.04018   =>   CDf =  0.00739    CDp =  0.03279

 Side 1  free  transition at x/c =  0.4446   55
 Side 2 forced transition at x/c =  1.0000   72

  51   rms: 0.8840E-01   max: 0.2502E+00   D at   83  2
       a =  9.000      CL =  1.3265
      Cm = -0.0585     CD =  0.04461   =>   CDf =  0.00745    CDp =  0.03716

 Side 1  free  transition at x/c =  0.4411   54
 Side 2 forced transition at x/c =  1.0000   72

  52   rms: 0.5640E-01   max: -.2032E+00   D at   67  1
       a =  9.000      CL =  1.3721
      Cm = -0.0615     CD =  0.04018   =>   CDf =  0.00739    CDp =  0.03279

 Side 1  free  transition at x/c =  0.4446   55
 Side 2 forced transition at x/c =  1.0000   72

  53   rms: 0.8837E-01   max: 0.2501E+00   D at   83  2
       a =  9.000      CL =  1.3265
      Cm = -0.0585     CD =  0.04461   =>   CDf =  0.00745    CDp =  0.03716

 Side 1  free  transition at x/c =  0.4411   54
 Side 2 forced transition at x/c =  1.0000   72

  54   rms: 0.5640E-01   max: -.2032E+00   D at   67  1
       a =  9.000      CL =  1.3721
      Cm = -0.0615     CD =  0.04018   =>   CDf =  0.00739    CDp =  0.03279

 Side 1  free  transition at x/c =  0.4446   55
 Side 2 forced transition at x/c =  1.0000   72

  55   rms: 0.8841E-01   max: 0.2503E+00   D at   83  2
       a =  9.000      CL =  1.3265
      Cm = -0.0585     CD =  0.04461   =>   CDf =  0.00745    CDp =  0.03716

 Side 1  free  transition at x/c =  0.4411   54
 Side 2 forced transition at x/c =  1.0000   72

  56   rms: 0.5641E-01   max: -.2032E+00   D at   67  1
       a =  9.000      CL =  1.3721
      Cm = -0.0615     CD =  0.04018   =>   CDf =  0.00739    CDp =  0.03279

 Side 1  free  transition at x/c =  0.4446   55
 Side 2 forced transition at x/c =  1.0000   72

  57   rms: 0.8839E-01   max: 0.2502E+00   D at   83  2
       a =  9.000      CL =  1.3265
      Cm = -0.0585     CD =  0.04461   =>   CDf =  0.00745    CDp =  0.03716

 Side 1  free  transition at x/c =  0.4411   54
 Side 2 forced transition at x/c =  1.0000   72

  58   rms: 0.5640E-01   max: -.2032E+00   D at   67  1
       a =  9.000      CL =  1.3721
      Cm = -0.0615     CD =  0.04018   =>   CDf =  0.00739    CDp =  0.03279

 Side 1  free  transition at x/c =  0.4446   55
 Side 2 forced transition at x/c =  1.0000   72

  59   rms: 0.8837E-01   max: 0.2501E+00   D at   83  2
       a =  9.000      CL =  1.3265
      Cm = -0.0585     CD =  0.04461   =>   CDf =  0.00745    CDp =  0.03716

 Side 1  free  transition at x/c =  0.4411   54
 Side 2 forced transition at x/c =  1.0000   72

  60   rms: 0.5640E-01   max: -.2032E+00   D at   67  1
       a =  9.000      CL =  1.3721
      Cm = -0.0615     CD =  0.04018   =>   CDf =  0.00739    CDp =  0.03279

 Side 1  free  transition at x/c =  0.4446   55
 Side 2 forced transition at x/c =  1.0000   72

  61   rms: 0.8840E-01   max: 0.2502E+00   D at   83  2
       a =  9.000      CL =  1.3265
      Cm = -0.0585     CD =  0.04461   =>   CDf =  0.00745    CDp =  0.03716

 Side 1  free  transition at x/c =  0.4411   54
 Side 2 forced transition at x/c =  1.0000   72

  62   rms: 0.5640E-01   max: -.2032E+00   D at   67  1
       a =  9.000      CL =  1.3721
      Cm = -0.0615     CD =  0.04018   =>   CDf =  0.00739    CDp =  0.03279

 Side 1  free  transition at x/c =  0.4446   55
 Side 2 forced transition at x/c =  1.0000   72

  63   rms: 0.8838E-01   max: 0.2502E+00   D at   83  2
       a =  9.000      CL =  1.3265
      Cm = -0.0585     CD =  0.04461   =>   CDf =  0.00745    CDp =  0.03716

 Side 1  free  transition at x/c =  0.4411   54
 Side 2 forced transition at x/c =  1.0000   72

  64   rms: 0.5640E-01   max: -.2032E+00   D at   67  1
       a =  9.000      CL =  1.3721
      Cm = -0.0615     CD =  0.04018   =>   CDf =  0.00739    CDp =  0.03279

 Side 1  free  transition at x/c =  0.4446   55
 Side 2 forced transition at x/c =  1.0000   72

  65   rms: 0.8841E-01   max: 0.2502E+00   D at   83  2
       a =  9.000      CL =  1.3265
      Cm = -0.0585     CD =  0.04461   =>   CDf =  0.00745    CDp =  0.03716

 Side 1  free  transition at x/c =  0.4411   54
 Side 2 forced transition at x/c =  1.0000   72

  66   rms: 0.5640E-01   max: -.2033E+00   D at   67  1
       a =  9.000      CL =  1.3721
      Cm = -0.0615     CD =  0.04018   =>   CDf =  0.00739    CDp =  0.03279

 Side 1  free  transition at x/c =  0.4446   55
 Side 2 forced transition at x/c =  1.0000   72

  67   rms: 0.8841E-01   max: 0.2502E+00   D at   83  2
       a =  9.000      CL =  1.3265
      Cm = -0.0585     CD =  0.04461   =>   CDf =  0.00745    CDp =  0.03716

 Side 1  free  transition at x/c =  0.4411   54
 Side 2 forced transition at x/c =  1.0000   72

  68   rms: 0.5640E-01   max: -.2032E+00   D at   67  1
       a =  9.000      CL =  1.3721
      Cm = -0.0615     CD =  0.04018   =>   CDf =  0.00739    CDp =  0.03279

 Side 1  free  transition at x/c =  0.4446   55
 Side 2 forced transition at x/c =  1.0000   72

  69   rms: 0.8839E-01   max: 0.2502E+00   D at   83  2
       a =  9.000      CL =  1.3265
      Cm = -0.0585     CD =  0.04461   =>   CDf =  0.00745    CDp =  0.03716

 Side 1  free  transition at x/c =  0.4411   54
 Side 2 forced transition at x/c =  1.0000   72

  70   rms: 0.5640E-01   max: -.2032E+00   D at   67  1
       a =  9.000      CL =  1.3721
      Cm = -0.0615     CD =  0.04018   =>   CDf =  0.00739    CDp =  0.03279

 Side 1  free  transition at x/c =  0.4446   55
 Side 2 forced transition at x/c =  1.0000   72

  71   rms: 0.8839E-01   max: 0.2502E+00   D at   83  2
       a =  9.000      CL =  1.3265
      Cm = -0.0585     CD =  0.04461   =>   CDf =  0.00745    CDp =  0.03716

 Side 1  free  transition at x/c =  0.4411   54
 Side 2 forced transition at x/c =  1.0000   72

  72   rms: 0.5640E-01   max: -.2032E+00   D at   67  1
       a =  9.000      CL =  1.3721
      Cm = -0.0615     CD =  0.04018   =>   CDf =  0.00739    CDp =  0.03279

 Side 1  free  transition at x/c =  0.4446   55
 Side 2 forced transition at x/c =  1.0000   72

  73   rms: 0.8838E-01   max: 0.2502E+00   D at   83  2
       a =  9.000      CL =  1.3265
      Cm = -0.0585     CD =  0.04461   =>   CDf =  0.00745    CDp =  0.03716

 Side 1  free  transition at x/c =  0.4411   54
 Side 2 forced transition at x/c =  1.0000   72

  74   rms: 0.5640E-01   max: -.2032E+00   D at   67  1
       a =  9.000      CL =  1.3721
      Cm = -0.0615     CD =  0.04018   =>   CDf =  0.00739    CDp =  0.03279

 Side 1  free  transition at x/c =  0.4446   55
 Side 2 forced transition at x/c =  1.0000   72

  75   rms: 0.8838E-01   max: 0.2502E+00   D at   83  2
       a =  9.000      CL =  1.3265
      Cm = -0.0585     CD =  0.04461   =>   CDf =  0.00745    CDp =  0.03716

 Side 1  free  transition at x/c =  0.4411   54
 Side 2 forced transition at x/c =  1.0000   72

  76   rms: 0.5640E-01   max: -.2032E+00   D at   67  1
       a =  9.000      CL =  1.3721
      Cm = -0.0615     CD =  0.04018   =>   CDf =  0.00739    CDp =  0.03279

 Side 1  free  transition at x/c =  0.4446   55
 Side 2 forced transition at x/c =  1.0000   72

  77   rms: 0.8839E-01   max: 0.2502E+00   D at   83  2
       a =  9.000      CL =  1.3265
      Cm = -0.0585     CD =  0.04461   =>   CDf =  0.00745    CDp =  0.03716

 Side 1  free  transition at x/c =  0.4411   54
 Side 2 forced transition at x/c =  1.0000   72

  78   rms: 0.5640E-01   max: -.2032E+00   D at   67  1
       a =  9.000      CL =  1.3721
      Cm = -0.0615     CD =  0.04018   =>   CDf =  0.00739    CDp =  0.03279

 Side 1  free  transition at x/c =  0.4446   55
 Side 2 forced transition at x/c =  1.0000   72

  79   rms: 0.8841E-01   max: 0.2502E+00   D at   83  2
       a =  9.000      CL =  1.3265
      Cm = -0.0585     CD =  0.04461   =>   CDf =  0.00745    CDp =  0.03716

 Side 1  free  transition at x/c =  0.4411   54
 Side 2 forced transition at x/c =  1.0000   72

  80   rms: 0.5641E-01   max: -.2032E+00   D at   67  1
       a =  9.000      CL =  1.3721
      Cm = -0.0615     CD =  0.04018   =>   CDf =  0.00739    CDp =  0.03279

 Side 1  free  transition at x/c =  0.4446   55
 Side 2 forced transition at x/c =  1.0000   72

  81   rms: 0.8838E-01   max: 0.2502E+00   D at   83  2
       a =  9.000      CL =  1.3265
      Cm = -0.0585     CD =  0.04461   =>   CDf =  0.00745    CDp =  0.03716

 Side 1  free  transition at x/c =  0.4411   54
 Side 2 forced transition at x/c =  1.0000   72

  82   rms: 0.5639E-01   max: -.2032E+00   D at   67  1
       a =  9.000      CL =  1.3721
      Cm = -0.0615     CD =  0.04018   =>   CDf =  0.00739    CDp =  0.03279

 Side 1  free  transition at x/c =  0.4446   55
 Side 2 forced transition at x/c =  1.0000   72

  83   rms: 0.8841E-01   max: 0.2502E+00   D at   83  2
       a =  9.000      CL =  1.3265
      Cm = -0.0585     CD =  0.04461   =>   CDf =  0.00745    CDp =  0.03716

 Side 1  free  transition at x/c =  0.4411   54
 Side 2 forced transition at x/c =  1.0000   72

  84   rms: 0.5640E-01   max: -.2032E+00   D at   67  1
       a =  9.000      CL =  1.3721
      Cm = -0.0615     CD =  0.04018   =>   CDf =  0.00739    CDp =  0.03279

 Side 1  free  transition at x/c =  0.4446   55
 Side 2 forced transition at x/c =  1.0000   72

  85   rms: 0.8839E-01   max: 0.2502E+00   D at   83  2
       a =  9.000      CL =  1.3265
      Cm = -0.0585     CD =  0.04461   =>   CDf =  0.00745    CDp =  0.03716

 Side 1  free  transition at x/c =  0.4411   54
 Side 2 forced transition at x/c =  1.0000   72

  86   rms: 0.5640E-01   max: -.2032E+00   D at   67  1
       a =  9.000      CL =  1.3721
      Cm = -0.0615     CD =  0.04018   =>   CDf =  0.00739    CDp =  0.03279

 Side 1  free  transition at x/c =  0.4446   55
 Side 2 forced transition at x/c =  1.0000   72

  87   rms: 0.8839E-01   max: 0.2502E+00   D at   83  2
       a =  9.000      CL =  1.3265
      Cm = -0.0585     CD =  0.04461   =>   CDf =  0.00745    CDp =  0.03716

 Side 1  free  transition at x/c =  0.4411   54
 Side 2 forced transition at x/c =  1.0000   72

  88   rms: 0.5640E-01   max: -.2032E+00   D at   67  1
       a =  9.000      CL =  1.3721
      Cm = -0.0615     CD =  0.04018   =>   CDf =  0.00739    CDp =  0.03279

 Side 1  free  transition at x/c =  0.4446   55
 Side 2 forced transition at x/c =  1.0000   72

  89   rms: 0.8839E-01   max: 0.2502E+00   D at   83  2
       a =  9.000      CL =  1.3265
      Cm = -0.0585     CD =  0.04461   =>   CDf =  0.00745    CDp =  0.03716

 Side 1  free  transition at x/c =  0.4411   54
 Side 2 forced transition at x/c =  1.0000   72

  90   rms: 0.5640E-01   max: -.2032E+00   D at   67  1
       a =  9.000      CL =  1.3721
      Cm = -0.0615     CD =  0.04018   =>   CDf =  0.00739    CDp =  0.03279

 Side 1  free  transition at x/c =  0.4446   55
 Side 2 forced transition at x/c =  1.0000   72

  91   rms: 0.8841E-01   max: 0.2502E+00   D at   83  2
       a =  9.000      CL =  1.3265
      Cm = -0.0585     CD =  0.04461   =>   CDf =  0.00745    CDp =  0.03716

 Side 1  free  transition at x/c =  0.4411   54
 Side 2 forced transition at x/c =  1.0000   72

  92   rms: 0.5640E-01   max: -.2032E+00   D at   67  1
       a =  9.000      CL =  1.3721
      Cm = -0.0615     CD =  0.04018   =>   CDf =  0.00739    CDp =  0.03279

 Side 1  free  transition at x/c =  0.4446   55
 Side 2 forced transition at x/c =  1.0000   72

  93   rms: 0.8838E-01   max: 0.2502E+00   D at   83  2
       a =  9.000      CL =  1.3265
      Cm = -0.0585     CD =  0.04461   =>   CDf =  0.00745    CDp =  0.03716

 Side 1  free  transition at x/c =  0.4411   54
 Side 2 forced transition at x/c =  1.0000   72

  94   rms: 0.5640E-01   max: -.2032E+00   D at   67  1
       a =  9.000      CL =  1.3721
      Cm = -0.0615     CD =  0.04018   =>   CDf =  0.00739    CDp =  0.03279

 Side 1  free  transition at x/c =  0.4446   55
 Side 2 forced transition at x/c =  1.0000   72

  95   rms: 0.8841E-01   max: 0.2502E+00   D at   83  2
       a =  9.000      CL =  1.3265

[TIMEOUT]
