
 ===================================================
  XFOIL Version 6.99
  Copyright (C) 2000   Mark Drela, Harold Youngren

  This software comes with ABSOLUTELY NO WARRANTY,
    subject to the GNU General Public License.

  Caveat computor
 ===================================================

 File  xfoil.def  not found

   QUIT    Exit program

  .OPER    Direct operating point(s)
  .MDES    Complex mapping design routine
  .QDES    Surface speed design routine
  .GDES    Geometry design routine

   SAVE f  Write airfoil to labeled coordinate file
   PSAV f  Write airfoil to plain coordinate file
   ISAV f  Write airfoil to ISES coordinate file
   MSAV f  Write airfoil to MSES coordinate file
   REVE    Reverse written-airfoil node ordering

   LOAD f  Read buffer airfoil from coordinate file
   NACA i  Set NACA 4,5-digit airfoil and buffer airfoil
   INTE    Set buffer airfoil by interpolating two airfoils
   NORM    Buffer airfoil normalization toggle
   XYCM rr Change CM reference location, currently  0.25000 0.00000

   BEND    Display structural properties of current airfoil

   PCOP    Set current-airfoil panel nodes directly from buffer airfoil points
   PANE    Set current-airfoil panel nodes ( 160 ) based on curvature
  .PPAR    Show/change paneling

  .PLOP    Plotting options

   WDEF f  Write  current-settings file
   RDEF f  Reread current-settings file
   NAME s  Specify new airfoil name
   NINC    Increment name version number

   Z       Zoom    | (available in all menus)
   U       Unzoom  | 

 XFOIL   c>  
 Labeled airfoil file.  Name:  NACA M4 AIRFOIL                                 

 Number of input coordinate points:  33
 Counterclockwise ordering
 Max thickness =     0.062794  at x =   0.300
 Max camber    =     0.021738  at x =   0.300

  LE  x,y  =  -0.00003   0.00046  |   Chord =   1.00003
  TE  x,y  =   1.00000   0.00000  |

 Current airfoil nodes set from buffer airfoil nodes (  33 )

 WARNING: Poor input coordinate distribution
          Excessive panel angle   79.8  at i =  17
          Repaneling with PANE and/or PPAR suggested
           (doing GDES,CADD before repaneling _may_
            improve excessively coarse LE spacing

 XFOIL   c>  
 XFOIL   c>  
 Blunt trailing edge.  Gap =  0.00490

 Paneling parameters used...
   Number of panel nodes       160
   Panel bunching parameter    1.000
   TE/LE panel density ratio   0.150
   Refined-area/LE panel density ratio    0.200
   Top    side refined area x/c limits  1.000 1.000
   Bottom side refined area x/c limits  1.000 1.000

 XFOIL   c>  
.OPERi   c>  
 Xtr/c     =  1.0000    top    side
 Xtr/c     =  1.0000    bottom side
 Ncrit     =    9.00   ( 0.070 % turb. level )
 Vacc      =  0.0100

 Klag  =  5.6000     Uxwt  =    1.00
 A     =  6.7000     B     =  0.7500       KCt = 0.01485
 CtiniK=  1.8000     CtiniX=  3.3000

..VPAR   c>  
..VPAR   c>  
.OPERi   c>  
 M  =    0.0000
 Re =    600000

.OPERv   c>  
.OPERv   c>  
.OPERv   c>  
 Polar  1 newly created for accumulation
 Airfoil archived with polar: NACA M4 AIRFOIL                                 

Enter  polar save filename  OR  <return> for no file   s>  
 New polar save file available

Enter  polar dump filename  OR  <return> for no file   s>  
 Polar dump file will NOT be written

 Polar accumulation enabled

.OPERva   c>   Calculating unit vorticity distributions ...
 Calculating wake trajectory ...
 Calculating source influence matrix ...

 Solving BL system ...

 Initializing BL ...
    side            1  ...
 MRCHUE: Inverse mode at  45     Hk =   4.331
 MRCHUE: Inverse mode at  46     Hk =   4.986
 MRCHUE: Inverse mode at  47     Hk =   5.630
 MRCHUE: Inverse mode at  48     Hk =   6.266
 MRCHUE: Inverse mode at  49     Hk =   6.895
 MRCHUE: Inverse mode at  50     Hk =   7.519
 MRCHUE: Inverse mode at  51     Hk =   6.547
 MRCHUE: Inverse mode at  52     Hk =   4.033
 MRCHUE: Inverse mode at  53     Hk =   2.500
    side            2  ...
 MRCHUE: Inverse mode at  10     Hk =   6.588
 MRCHUE: Inverse mode at  11     Hk =   9.460
 MRCHUE: Inverse mode at  12     Hk =   6.343
 MRCHUE: Inverse mode at  13     Hk =   2.500

 Side 1  free  transition at x/c =  0.5792   51
 Side 2  free  transition at x/c =  0.0508   12

   1   rms: 0.1514E+00   max: -.1118E+01   D at   13  2   RLX: 0.447
       a =  1.250      CL =  0.1941
      Cm =  0.0071     CD =  0.00891   =>   CDf =  0.00744    CDp =  0.00147

 Side 1  free  transition at x/c =  0.5959   52
 Side 2  free  transition at x/c =  0.0515   12

   2   rms: 0.7725E-01   max: -.5382E+00   D at   13  2   RLX: 0.929
       a =  1.250      CL =  0.2089
      Cm =  0.0043     CD =  0.00835   =>   CDf =  0.00736    CDp =  0.00099

 Side 1  free  transition at x/c =  0.6291   55
 Side 2  free  transition at x/c =  0.0534   12

   3   rms: 0.1934E-01   max: 0.1727E+00   D at   55  1
       a =  1.250      CL =  0.2157
      Cm =  0.0027     CD =  0.00847   =>   CDf =  0.00726    CDp =  0.00121

 Side 1  free  transition at x/c =  0.6336   55
 Side 2  free  transition at x/c =  0.0532   12

   4   rms: 0.2157E-02   max: 0.3194E-01   C at   55  1
       a =  1.250      CL =  0.2158
      Cm =  0.0027     CD =  0.00851   =>   CDf =  0.00717    CDp =  0.00134

 Side 1  free  transition at x/c =  0.6327   55
 Side 2  free  transition at x/c =  0.0532   12

   5   rms: 0.3785E-04   max: -.5127E-03   D at   55  1
       a =  1.250      CL =  0.2158
      Cm =  0.0027     CD =  0.00851   =>   CDf =  0.00718    CDp =  0.00133
 plradd ia,ip,cpol            1           0  0.21618873    

 Point added to stored polar  1
 Point written to save file  m4_Re600k.ext.pol                               
 Dump file unspecified or not available
 Calculating wake trajectory ...
 Calculating source influence matrix ...

 Solving BL system ...

 Side 1  free  transition at x/c =  0.6327   55
 Side 2  free  transition at x/c =  0.0532   12

   1   rms: 0.7960E-01   max: -.1505E+01   C at   12  2   RLX: 0.332
       a =  1.500      CL =  0.2252
      Cm =  0.0027     CD =  0.00849   =>   CDf =  0.00718    CDp =  0.00131

 Side 1  free  transition at x/c =  0.6291   55
 Side 2  free  transition at x/c =  0.0539   12

   2   rms: 0.4480E-01   max: -.3902E+00   D at   12  2
       a =  1.500      CL =  0.2439
      Cm =  0.0027     CD =  0.00850   =>   CDf =  0.00720    CDp =  0.00129

 Side 1  free  transition at x/c =  0.6230   54
 Side 2  free  transition at x/c =  0.9506   75

   3   rms: 0.3185E-01   max: -.3232E+00   C at   75  2
       a =  1.500      CL =  0.2301
      Cm =  0.0053     CD =  0.00586   =>   CDf =  0.00457    CDp =  0.00129

 Side 1  free  transition at x/c =  0.6236   54
 Side 2  free  transition at x/c =  0.9724   77

   4   rms: 0.1615E+00   max: 0.1102E+01   D at   80  2
       a =  1.500      CL =  0.2729
      Cm = -0.0040     CD =  0.00591   =>   CDf =  0.00452    CDp =  0.00139

 Side 1  free  transition at x/c =  0.6205   54
 Side 2 forced transition at x/c =  1.0000   80

   5   rms: 0.2665E-01   max: 0.3871E+00   D at   79  2
       a =  1.500      CL =  0.2739
      Cm = -0.0045     CD =  0.00607   =>   CDf =  0.00452    CDp =  0.00155

 Side 1  free  transition at x/c =  0.6206   54
 Side 2  free  transition at x/c =  0.9988   80

   6   rms: 0.3256E-01   max: -.2611E+00   C at   80  2
       a =  1.500      CL =  0.2591
      Cm = -0.0011     CD =  0.00598   =>   CDf =  0.00452    CDp =  0.00146

 Side 1  free  transition at x/c =  0.6216   54
 Side 2  free  transition at x/c =  0.9949   80

   7   rms: 0.8821E-01   max: -.5182E+00   D at   80  2   RLX: 0.965
       a =  1.500      CL =  0.2172
      Cm =  0.0084     CD =  0.00589   =>   CDf =  0.00451    CDp =  0.00138

 Side 1  free  transition at x/c =  0.6242   54
 Side 2  free  transition at x/c =  0.9627   76

   8   rms: 0.3249E-01   max: 0.4944E+00   C at   76  2
       a =  1.500      CL =  0.2247
      Cm =  0.0065     CD =  0.00589   =>   CDf =  0.00453    CDp =  0.00136

 Side 1  free  transition at x/c =  0.6239   54
 Side 2  free  transition at x/c =  0.8979   72

   9   rms: 0.6421E-01   max: -.1234E+01   C at   72  2   RLX: 0.405
       a =  1.500      CL =  0.2262
      Cm =  0.0059     CD =  0.00589   =>   CDf =  0.00466    CDp =  0.00124

 Side 1  free  transition at x/c =  0.6238   54
 Side 2  free  transition at x/c =  0.9110   73

  10   rms: 0.5643E-01   max: -.1067E+01   C at   73  2   RLX: 0.469
       a =  1.500      CL =  0.2272
      Cm =  0.0057     CD =  0.00588   =>   CDf =  0.00462    CDp =  0.00126

 Side 1  free  transition at x/c =  0.6238   54
 Side 2  free  transition at x/c =  0.9247   74

  11   rms: 0.5220E+00   max: 0.9305E+01   C at   74  2   RLX: 0.161
       a =  1.500      CL =  0.2239
      Cm =  0.0060     CD =  0.00603   =>   CDf =  0.00458    CDp =  0.00146

 Side 1  free  transition at x/c =  0.6239   54
 Side 2  free  transition at x/c =  0.2303   25

  12   rms: 0.4655E+00   max: -.1039E+02   C at   25  2   RLX: 0.048
       a =  1.500      CL =  0.2271
      Cm =  0.0051     CD =  0.00807   =>   CDf =  0.00671    CDp =  0.00136

 Side 1  free  transition at x/c =  0.6239   54
 Side 2  free  transition at x/c =  0.2444   26

  13   rms: 0.6891E+00   max: -.1526E+02   C at   26  2   RLX: 0.033
       a =  1.500      CL =  0.2275
      Cm =  0.0050     CD =  0.00803   =>   CDf =  0.00667    CDp =  0.00136

 Side 1  free  transition at x/c =  0.6238   54
 Side 2  free  transition at x/c =  0.2502   26

  14   rms: 0.6912E+00   max: -.1476E+02   C at   26  2   RLX: 0.034
       a =  1.500      CL =  0.2281
      Cm =  0.0049     CD =  0.00802   =>   CDf =  0.00666    CDp =  0.00136

 Side 1  free  transition at x/c =  0.6238   54
 Side 2  free  transition at x/c =  0.2746   28

  15   rms: 0.1630E+01   max: -.3466E+02   C at   28  2   RLX: 0.014
       a =  1.500      CL =  0.2280
      Cm =  0.0049     CD =  0.00795   =>   CDf =  0.00659    CDp =  0.00136

 Side 1  free  transition at x/c =  0.6238   54
 Side 2  free  transition at x/c =  0.2871   29

  16   rms: 0.1747E+01   max: -.3729E+02   C at   29  2   RLX: 0.013
       a =  1.500      CL =  0.2281
      Cm =  0.0048     CD =  0.00792   =>   CDf =  0.00656    CDp =  0.00136

 Side 1  free  transition at x/c =  0.6238   54
 Side 2  free  transition at x/c =  0.3007   30

  17   rms: 0.1847E+01   max: -.3937E+02   C at   30  2   RLX: 0.013
       a =  1.500      CL =  0.2282
      Cm =  0.0048     CD =  0.00788   =>   CDf =  0.00652    CDp =  0.00136

 Side 1  free  transition at x/c =  0.6238   54
 Side 2  free  transition at x/c =  0.3143   31

  18   rms: 0.1828E+01   max: -.3887E+02   C at   31  2   RLX: 0.013
       a =  1.500      CL =  0.2282
      Cm =  0.0048     CD =  0.00784   =>   CDf =  0.00649    CDp =  0.00136

 Side 1  free  transition at x/c =  0.6238   54
 Side 2  free  transition at x/c =  0.3281   32

  19   rms: 0.1831E+01   max: -.3885E+02   C at   32  2   RLX: 0.013
       a =  1.500      CL =  0.2283
      Cm =  0.0048     CD =  0.00781   =>   CDf =  0.00645    CDp =  0.00136

 Side 1  free  transition at x/c =  0.6238   54
 Side 2  free  transition at x/c =  0.3420   33

  20   rms: 0.1834E+01   max: -.3889E+02   C at   33  2   RLX: 0.013
       a =  1.500      CL =  0.2284
      Cm =  0.0047     CD =  0.00777   =>   CDf =  0.00641    CDp =  0.00136

 Side 1  free  transition at x/c =  0.6237   54
 Side 2  free  transition at x/c =  0.3563   34

  21   rms: 0.1841E+01   max: -.3886E+02   C at   34  2   RLX: 0.013
       a =  1.500      CL =  0.2284
      Cm =  0.0047     CD =  0.00773   =>   CDf =  0.00638    CDp =  0.00135

 Side 1  free  transition at x/c =  0.6237   54
 Side 2  free  transition at x/c =  0.3704   35

  22   rms: 0.1805E+01   max: -.3797E+02   C at   35  2   RLX: 0.013
       a =  1.500      CL =  0.2285
      Cm =  0.0047     CD =  0.00769   =>   CDf =  0.00634    CDp =  0.00135

 Side 1  free  transition at x/c =  0.6237   54
 Side 2  free  transition at x/c =  0.3845   36

  23   rms: 0.1823E+01   max: -.3819E+02   C at   36  2   RLX: 0.013
       a =  1.500      CL =  0.2285
      Cm =  0.0047     CD =  0.00765   =>   CDf =  0.00630    CDp =  0.00135

 Side 1  free  transition at x/c =  0.6237   54
 Side 2  free  transition at x/c =  0.3984   37

  24   rms: 0.1833E+01   max: -.3824E+02   C at   37  2   RLX: 0.013
       a =  1.500      CL =  0.2285
      Cm =  0.0046     CD =  0.00761   =>   CDf =  0.00626    CDp =  0.00135

 Side 1  free  transition at x/c =  0.6237   54
 Side 2  free  transition at x/c =  0.4121   38

  25   rms: 0.1755E+01   max: -.3650E+02   C at   38  2   RLX: 0.014
       a =  1.500      CL =  0.2286
      Cm =  0.0046     CD =  0.00757   =>   CDf =  0.00622    CDp =  0.00135

 Side 1  free  transition at x/c =  0.6237   54
 Side 2  free  transition at x/c =  0.4257   38

  26   rms: 0.2306E+01   max: -.4339E+02   C at   38  2   RLX: 0.012
       a =  1.500      CL =  0.2287
      Cm =  0.0046     CD =  0.00753   =>   CDf =  0.00618    CDp =  0.00135

 Side 1  free  transition at x/c =  0.6237   54
 Side 2  free  transition at x/c =  0.4373   39

  27   rms: 0.2157E+01   max: -.4145E+02   C at   39  2   RLX: 0.012
       a =  1.500      CL =  0.2287
      Cm =  0.0046     CD =  0.00750   =>   CDf =  0.00615    CDp =  0.00135

 Side 1  free  transition at x/c =  0.6237   54
 Side 2  free  transition at x/c =  0.4495   40

  28   rms: 0.2094E+01   max: -.4055E+02   C at   40  2   RLX: 0.012
       a =  1.500      CL =  0.2287
      Cm =  0.0046     CD =  0.00746   =>   CDf =  0.00611    CDp =  0.00134

 Side 1  free  transition at x/c =  0.6237   54
 Side 2  free  transition at x/c =  0.4617   41

  29   rms: 0.1965E+01   max: -.3842E+02   C at   41  2   RLX: 0.013
       a =  1.500      CL =  0.2288
      Cm =  0.0045     CD =  0.00742   =>   CDf =  0.00608    CDp =  0.00134

 Side 1  free  transition at x/c =  0.6237   54
 Side 2  free  transition at x/c =  0.4745   42

  30   rms: 0.1864E+01   max: -.3659E+02   C at   42  2   RLX: 0.014
       a =  1.500      CL =  0.2288
      Cm =  0.0045     CD =  0.00738   =>   CDf =  0.00604    CDp =  0.00134

 Side 1  free  transition at x/c =  0.6237   54
 Side 2  free  transition at x/c =  0.4875   43

  31   rms: 0.1775E+01   max: -.3491E+02   C at   43  2   RLX: 0.014
       a =  1.500      CL =  0.2288
      Cm =  0.0045     CD =  0.00734   =>   CDf =  0.00600    CDp =  0.00133

 Side 1  free  transition at x/c =  0.6237   54
 Side 2  free  transition at x/c =  0.5012   44

  32   rms: 0.1700E+01   max: -.3342E+02   C at   44  2   RLX: 0.015
       a =  1.500      CL =  0.2288
      Cm =  0.0045     CD =  0.00729   =>   CDf =  0.00596    CDp =  0.00133

 Side 1  free  transition at x/c =  0.6237   54
 Side 2  free  transition at x/c =  0.5154   45

  33   rms: 0.1610E+01   max: -.3153E+02   C at   45  2   RLX: 0.016
       a =  1.500      CL =  0.2289
      Cm =  0.0045     CD =  0.00725   =>   CDf =  0.00592    CDp =  0.00132

 Side 1  free  transition at x/c =  0.6237   54
 Side 2  free  transition at x/c =  0.5296   46

  34   rms: 0.1542E+01   max: -.3012E+02   C at   46  2   RLX: 0.017
       a =  1.500      CL =  0.2289
      Cm =  0.0044     CD =  0.00720   =>   CDf =  0.00588    CDp =  0.00132

 Side 1  free  transition at x/c =  0.6237   54
 Side 2  free  transition at x/c =  0.5442   47

  35   rms: 0.1496E+01   max: -.2910E+02   C at   47  2   RLX: 0.017
       a =  1.500      CL =  0.2289
      Cm =  0.0044     CD =  0.00715   =>   CDf =  0.00584    CDp =  0.00131

 Side 1  free  transition at x/c =  0.6238   54
 Side 2  free  transition at x/c =  0.5588   48

  36   rms: 0.1422E+01   max: -.2754E+02   C at   48  2   RLX: 0.018
       a =  1.500      CL =  0.2289
      Cm =  0.0044     CD =  0.00711   =>   CDf =  0.00580    CDp =  0.00131

 Side 1  free  transition at x/c =  0.6238   54
 Side 2  free  transition at x/c =  0.5736   49

  37   rms: 0.1339E+01   max: -.2579E+02   C at   49  2   RLX: 0.019
       a =  1.500      CL =  0.2289
      Cm =  0.0044     CD =  0.00706   =>   CDf =  0.00575    CDp =  0.00130

 Side 1  free  transition at x/c =  0.6238   54
 Side 2  free  transition at x/c =  0.5883   50

  38   rms: 0.1257E+01   max: -.2405E+02   C at   50  2   RLX: 0.021
       a =  1.500      CL =  0.2289
      Cm =  0.0044     CD =  0.00700   =>   CDf =  0.00571    CDp =  0.00130

 Side 1  free  transition at x/c =  0.6238   54
 Side 2  free  transition at x/c =  0.6030   51

  39   rms: 0.1177E+01   max: -.2238E+02   C at   51  2   RLX: 0.022
       a =  1.500      CL =  0.2289
      Cm =  0.0044     CD =  0.00695   =>   CDf =  0.00566    CDp =  0.00129

 Side 1  free  transition at x/c =  0.6238   54
 Side 2  free  transition at x/c =  0.6174   52

  40   rms: 0.1162E+01   max: -.2198E+02   C at   52  2   RLX: 0.023
       a =  1.500      CL =  0.2289
      Cm =  0.0044     CD =  0.00690   =>   CDf =  0.00561    CDp =  0.00129

 Side 1  free  transition at x/c =  0.6238   54
 Side 2  free  transition at x/c =  0.6320   53

  41   rms: 0.1127E+01   max: -.2117E+02   C at   53  2   RLX: 0.024
       a =  1.500      CL =  0.2288
      Cm =  0.0044     CD =  0.00685   =>   CDf =  0.00557    CDp =  0.00128

 Side 1  free  transition at x/c =  0.6238   54
 Side 2  free  transition at x/c =  0.6463   54

  42   rms: 0.1045E+01   max: -.1954E+02   C at   54  2   RLX: 0.026
       a =  1.500      CL =  0.2288
      Cm =  0.0044     CD =  0.00680   =>   CDf =  0.00552    CDp =  0.00128

 Side 1  free  transition at x/c =  0.6238   54
 Side 2  free  transition at x/c =  0.6608   55

  43   rms: 0.9400E+00   max: -.1748E+02   C at   55  2   RLX: 0.029
       a =  1.500      CL =  0.2288
      Cm =  0.0044     CD =  0.00674   =>   CDf =  0.00547    CDp =  0.00127

 Side 1  free  transition at x/c =  0.6238   54
 Side 2  free  transition at x/c =  0.6757   56

  44   rms: 0.8688E+00   max: -.1605E+02   C at   56  2   RLX: 0.031
       a =  1.500      CL =  0.2288
      Cm =  0.0044     CD =  0.00669   =>   CDf =  0.00542    CDp =  0.00127

 Side 1  free  transition at x/c =  0.6238   54
 Side 2  free  transition at x/c =  0.6907   57

  45   rms: 0.8144E+00   max: -.1497E+02   C at   57  2   RLX: 0.033
       a =  1.500      CL =  0.2287
      Cm =  0.0044     CD =  0.00663   =>   CDf =  0.00537    CDp =  0.00126

 Side 1  free  transition at x/c =  0.6238   54
 Side 2  free  transition at x/c =  0.7060   58

  46   rms: 0.7772E+00   max: -.1419E+02   C at   58  2   RLX: 0.035
       a =  1.500      CL =  0.2286
      Cm =  0.0044     CD =  0.00658   =>   CDf =  0.00532    CDp =  0.00126

 Side 1  free  transition at x/c =  0.6238   54
 Side 2  free  transition at x/c =  0.7212   59

  47   rms: 0.7132E+00   max: -.1296E+02   C at   59  2   RLX: 0.039
       a =  1.500      CL =  0.2285
      Cm =  0.0045     CD =  0.00652   =>   CDf =  0.00527    CDp =  0.00125

 Side 1  free  transition at x/c =  0.6238   54
 Side 2  free  transition at x/c =  0.7367   60

  48   rms: 0.6312E+00   max: -.1142E+02   C at   60  2   RLX: 0.044
       a =  1.500      CL =  0.2284
      Cm =  0.0045     CD =  0.00647   =>   CDf =  0.00522    CDp =  0.00125

 Side 1  free  transition at x/c =  0.6238   54
 Side 2  free  transition at x/c =  0.7527   61

  49   rms: 0.5466E+00   max: -.9808E+01   C at   61  2   RLX: 0.051
       a =  1.500      CL =  0.2283
      Cm =  0.0046     CD =  0.00641   =>   CDf =  0.00516    CDp =  0.00125

 Side 1  free  transition at x/c =  0.6238   54
 Side 2  free  transition at x/c =  0.7686   62

  50   rms: 0.4750E+00   max: -.8460E+01   C at   62  2   RLX: 0.059
       a =  1.500      CL =  0.2282
      Cm =  0.0046     CD =  0.00635   =>   CDf =  0.00510    CDp =  0.00125

 Side 1  free  transition at x/c =  0.6238   54
 Side 2  free  transition at x/c =  0.7846   64

  51   rms: 0.3164E+00   max: -.6112E+01   C at   64  2   RLX: 0.082
       a =  1.500      CL =  0.2280
      Cm =  0.0047     CD =  0.00628   =>   CDf =  0.00504    CDp =  0.00123

 Side 1  free  transition at x/c =  0.6238   54
 Side 2  free  transition at x/c =  0.8021   65

  52   rms: 0.2791E+00   max: -.5285E+01   C at   65  2   RLX: 0.095
       a =  1.500      CL =  0.2278
      Cm =  0.0048     CD =  0.00621   =>   CDf =  0.00498    CDp =  0.00124

 Side 1  free  transition at x/c =  0.6238   54
 Side 2  free  transition at x/c =  0.8206   66

  53   rms: 0.2456E+00   max: -.4544E+01   C at   66  2   RLX: 0.110
       a =  1.500      CL =  0.2276
      Cm =  0.0050     CD =  0.00615   =>   CDf =  0.00491    CDp =  0.00124

 Side 1  free  transition at x/c =  0.6238   54
 Side 2  free  transition at x/c =  0.8397   67

  54   rms: 0.2035E+00   max: -.3672E+01   C at   67  2   RLX: 0.136
       a =  1.500      CL =  0.2273
      Cm =  0.0051     CD =  0.00609   =>   CDf =  0.00484    CDp =  0.00125

 Side 1  free  transition at x/c =  0.6238   54
 Side 2  free  transition at x/c =  0.8592   69

  55   rms: 0.1294E+00   max: -.2474E+01   C at   69  2   RLX: 0.202
       a =  1.500      CL =  0.2269
      Cm =  0.0054     CD =  0.00602   =>   CDf =  0.00477    CDp =  0.00125

 Side 1  free  transition at x/c =  0.6238   54
 Side 2  free  transition at x/c =  0.8592   69

  56   rms: 0.1263E+00   max: -.2427E+01   C at   69  2   RLX: 0.206
       a =  1.500      CL =  0.2270
      Cm =  0.0053     CD =  0.00602   =>   CDf =  0.00477    CDp =  0.00124

 Side 1  free  transition at x/c =  0.6238   54
 Side 2  free  transition at x/c =  0.8676   69

  57   rms: 0.1249E+00   max: -.2289E+01   C at   69  2   RLX: 0.218
       a =  1.500      CL =  0.2269
      Cm =  0.0054     CD =  0.00599   =>   CDf =  0.00474    CDp =  0.00125

 Side 1  free  transition at x/c =  0.6238   54
 Side 2  free  transition at x/c =  0.8793   70

  58   rms: 0.8710E-01   max: -.1626E+01   C at   70  2   RLX: 0.307
       a =  1.500      CL =  0.2268
      Cm =  0.0055     CD =  0.00596   =>   CDf =  0.00470    CDp =  0.00126

 Side 1  free  transition at x/c =  0.6238   54
 Side 2  free  transition at x/c =  0.8945   71

  59   rms: 0.6198E-01   max: -.1148E+01   C at   71  2   RLX: 0.435
       a =  1.500      CL =  0.2268
      Cm =  0.0057     CD =  0.00593   =>   CDf =  0.00465    CDp =  0.00127

 Side 1  free  transition at x/c =  0.6238   54
 Side 2  free  transition at x/c =  0.9097   72

  60   rms: 0.4206E-01   max: -.7702E+00   C at   72  2   RLX: 0.649
       a =  1.500      CL =  0.2272
      Cm =  0.0058     CD =  0.00590   =>   CDf =  0.00461    CDp =  0.00129

 Side 1  free  transition at x/c =  0.6238   54
 Side 2  free  transition at x/c =  0.9309   74

  61   rms: 0.1111E+00   max: 0.1915E+01   C at   74  2   RLX: 0.783
       a =  1.500      CL =  0.2230
      Cm =  0.0064     CD =  0.00600   =>   CDf =  0.00456    CDp =  0.00143

 Side 1  free  transition at x/c =  0.6240   54
 Side 2  free  transition at x/c =  0.2202   24

  62   rms: 0.3709E+00   max: -.8250E+01   C at   24  2   RLX: 0.061
       a =  1.500      CL =  0.2266
      Cm =  0.0054     CD =  0.00811   =>   CDf =  0.00675    CDp =  0.00136

 Side 1  free  transition at x/c =  0.6239   54
 Side 2  free  transition at x/c =  0.2336   25

  63   rms: 0.5653E+00   max: -.1245E+02   C at   25  2   RLX: 0.040
       a =  1.500      CL =  0.2272
      Cm =  0.0053     CD =  0.00807   =>   CDf =  0.00671    CDp =  0.00136

 Side 1  free  transition at x/c =  0.6238   54
 Side 2  free  transition at x/c =  0.2531   26

  64   rms: 0.1501E+01   max: -.3075E+02   C at   26  2   RLX: 0.016
       a =  1.500      CL =  0.2272
      Cm =  0.0053     CD =  0.00802   =>   CDf =  0.00665    CDp =  0.00136

 Side 1  free  transition at x/c =  0.6238   54
 Side 2  free  transition at x/c =  0.2626   27

  65   rms: 0.1411E+01   max: -.2991E+02   C at   27  2   RLX: 0.017
       a =  1.500      CL =  0.2274
      Cm =  0.0052     CD =  0.00799   =>   CDf =  0.00663    CDp =  0.00136

 Side 1  free  transition at x/c =  0.6238   54
 Side 2  free  transition at x/c =  0.2725   28

  66   rms: 0.1415E+01   max: -.3058E+02   C at   28  2   RLX: 0.016
       a =  1.500      CL =  0.2276
      Cm =  0.0052     CD =  0.00796   =>   CDf =  0.00660    CDp =  0.00136

 Side 1  free  transition at x/c =  0.6238   54
 Side 2  free  transition at x/c =  0.2844   29

  67   rms: 0.1522E+01   max: -.3301E+02   C at   29  2   RLX: 0.015
       a =  1.500      CL =  0.2278
      Cm =  0.0051     CD =  0.00792   =>   CDf =  0.00657    CDp =  0.00136

 Side 1  free  transition at x/c =  0.6237   54
 Side 2  free  transition at x/c =  0.2971   30

  68   rms: 0.1600E+01   max: -.3461E+02   C at   30  2   RLX: 0.014
       a =  1.500      CL =  0.2279
      Cm =  0.0051     CD =  0.00789   =>   CDf =  0.00653    CDp =  0.00136

 Side 1  free  transition at x/c =  0.6237   54
 Side 2  free  transition at x/c =  0.3106   30

  69   rms: 0.2420E+01   max: -.4758E+02   C at   30  2   RLX: 0.011
       a =  1.500      CL =  0.2280
      Cm =  0.0051     CD =  0.00786   =>   CDf =  0.00650    CDp =  0.00136

 Side 1  free  transition at x/c =  0.6237   54
 Side 2  free  transition at x/c =  0.3216   31

  70   rms: 0.2242E+01   max: -.4553E+02   C at   31  2   RLX: 0.011
       a =  1.500      CL =  0.2280
      Cm =  0.0050     CD =  0.00783   =>   CDf =  0.00647    CDp =  0.00136

 Side 1  free  transition at x/c =  0.6237   54
 Side 2  free  transition at x/c =  0.3341   32

  71   rms: 0.2142E+01   max: -.4390E+02   C at   32  2   RLX: 0.011
       a =  1.500      CL =  0.2281
      Cm =  0.0050     CD =  0.00780   =>   CDf =  0.00644    CDp =  0.00136

 Side 1  free  transition at x/c =  0.6237   54
 Side 2  free  transition at x/c =  0.3469   33

  72   rms: 0.2105E+01   max: -.4337E+02   C at   33  2   RLX: 0.012
       a =  1.500      CL =  0.2281
      Cm =  0.0050     CD =  0.00776   =>   CDf =  0.00640    CDp =  0.00136

 Side 1  free  transition at x/c =  0.6237   54
 Side 2  free  transition at x/c =  0.3601   34

  73   rms: 0.2032E+01   max: -.4194E+02   C at   34  2   RLX: 0.012
       a =  1.500      CL =  0.2282
      Cm =  0.0050     CD =  0.00773   =>   CDf =  0.00637    CDp =  0.00136

 Side 1  free  transition at x/c =  0.6237   54
 Side 2  free  transition at x/c =  0.3735   35

  74   rms: 0.2009E+01   max: -.4156E+02   C at   35  2   RLX: 0.012
       a =  1.500      CL =  0.2282
      Cm =  0.0049     CD =  0.00769   =>   CDf =  0.00633    CDp =  0.00136

 Side 1  free  transition at x/c =  0.6237   54
 Side 2  free  transition at x/c =  0.3874   36

  75   rms: 0.2031E+01   max: -.4190E+02   C at   36  2   RLX: 0.012
       a =  1.500      CL =  0.2283
      Cm =  0.0049     CD =  0.00765   =>   CDf =  0.00629    CDp =  0.00135

 Side 1  free  transition at x/c =  0.6237   54
 Side 2  free  transition at x/c =  0.4011   37

  76   rms: 0.2022E+01   max: -.4159E+02   C at   37  2   RLX: 0.012
       a =  1.500      CL =  0.2283
      Cm =  0.0049     CD =  0.00761   =>   CDf =  0.00626    CDp =  0.00135

 Side 1  free  transition at x/c =  0.6237   54
 Side 2  free  transition at x/c =  0.4147   38

  77   rms: 0.1938E+01   max: -.3976E+02   C at   38  2   RLX: 0.013
       a =  1.500      CL =  0.2283
      Cm =  0.0049     CD =  0.00757   =>   CDf =  0.00622    CDp =  0.00135

 Side 1  free  transition at x/c =  0.6237   54
 Side 2  free  transition at x/c =  0.4282   39

  78   rms: 0.1890E+01   max: -.3868E+02   C at   39  2   RLX: 0.013
       a =  1.500      CL =  0.2284
      Cm =  0.0048     CD =  0.00752   =>   CDf =  0.00618    CDp =  0.00135

 Side 1  free  transition at x/c =  0.6237   54
 Side 2  free  transition at x/c =  0.4417   40

  79   rms: 0.1859E+01   max: -.3796E+02   C at   40  2   RLX: 0.013
       a =  1.500      CL =  0.2284
      Cm =  0.0048     CD =  0.00748   =>   CDf =  0.00614    CDp =  0.00134

 Side 1  free  transition at x/c =  0.6237   54
 Side 2  free  transition at x/c =  0.4552   41

  80   rms: 0.1787E+01   max: -.3635E+02   C at   41  2   RLX: 0.014
       a =  1.500      CL =  0.2285
      Cm =  0.0048     CD =  0.00744   =>   CDf =  0.00610    CDp =  0.00134

 Side 1  free  transition at x/c =  0.6237   54
 Side 2  free  transition at x/c =  0.4688   41

  81   rms: 0.2329E+01   max: -.4279E+02   C at   41  2   RLX: 0.012
       a =  1.500      CL =  0.2285
      Cm =  0.0047     CD =  0.00741   =>   CDf =  0.00606    CDp =  0.00134

 Side 1  free  transition at x/c =  0.6237   54
 Side 2  free  transition at x/c =  0.4806   42

  82   rms: 0.2171E+01   max: -.4063E+02   C at   42  2   RLX: 0.012
       a =  1.500      CL =  0.2286
      Cm =  0.0047     CD =  0.00737   =>   CDf =  0.00603    CDp =  0.00134

 Side 1  free  transition at x/c =  0.6237   54
 Side 2  free  transition at x/c =  0.4928   43

  83   rms: 0.2047E+01   max: -.3879E+02   C at   43  2   RLX: 0.013
       a =  1.500      CL =  0.2286
      Cm =  0.0047     CD =  0.00733   =>   CDf =  0.00599    CDp =  0.00134

 Side 1  free  transition at x/c =  0.6237   54
 Side 2  free  transition at x/c =  0.5053   44

  84   rms: 0.1920E+01   max: -.3671E+02   C at   44  2   RLX: 0.014
       a =  1.500      CL =  0.2286
      Cm =  0.0047     CD =  0.00729   =>   CDf =  0.00595    CDp =  0.00133

 Side 1  free  transition at x/c =  0.6237   54
 Side 2  free  transition at x/c =  0.5185   45

  85   rms: 0.1826E+01   max: -.3506E+02   C at   45  2   RLX: 0.014
       a =  1.500      CL =  0.2286
      Cm =  0.0047     CD =  0.00725   =>   CDf =  0.00592    CDp =  0.00133

 Side 1  free  transition at x/c =  0.6237   54
 Side 2  free  transition at x/c =  0.5320   46

  86   rms: 0.1738E+01   max: -.3344E+02   C at   46  2   RLX: 0.015
       a =  1.500      CL =  0.2286
      Cm =  0.0046     CD =  0.00720   =>   CDf =  0.00588    CDp =  0.00132

 Side 1  free  transition at x/c =  0.6237   54
 Side 2  free  transition at x/c =  0.5461   47

  87   rms: 0.1632E+01   max: -.3133E+02   C at   47  2   RLX: 0.016
       a =  1.500      CL =  0.2286
      Cm =  0.0046     CD =  0.00715   =>   CDf =  0.00584    CDp =  0.00132

 Side 1  free  transition at x/c =  0.6237   54
 Side 2  free  transition at x/c =  0.5603   48

  88   rms: 0.1537E+01   max: -.2945E+02   C at   48  2   RLX: 0.017
       a =  1.500      CL =  0.2286
      Cm =  0.0046     CD =  0.00711   =>   CDf =  0.00579    CDp =  0.00131

 Side 1  free  transition at x/c =  0.6237   54
 Side 2  free  transition at x/c =  0.5746   49

  89   rms: 0.1434E+01   max: -.2743E+02   C at   49  2   RLX: 0.018
       a =  1.500      CL =  0.2286
      Cm =  0.0046     CD =  0.00706   =>   CDf =  0.00575    CDp =  0.00131

 Side 1  free  transition at x/c =  0.6237   54
 Side 2  free  transition at x/c =  0.5891   50

  90   rms: 0.1320E+01   max: -.2514E+02   C at   50  2   RLX: 0.020
       a =  1.500      CL =  0.2286
      Cm =  0.0046     CD =  0.00701   =>   CDf =  0.00571    CDp =  0.00130

 Side 1  free  transition at x/c =  0.6237   54
 Side 2  free  transition at x/c =  0.6035   51

  91   rms: 0.1244E+01   max: -.2356E+02   C at   51  2   RLX: 0.021
       a =  1.500      CL =  0.2287
      Cm =  0.0046     CD =  0.00696   =>   CDf =  0.00566    CDp =  0.00130

 Side 1  free  transition at x/c =  0.6238   54
 Side 2  free  transition at x/c =  0.6175   52

  92   rms: 0.1215E+01   max: -.2297E+02   C at   52  2   RLX: 0.022
       a =  1.500      CL =  0.2286
      Cm =  0.0046     CD =  0.00691   =>   CDf =  0.00562    CDp =  0.00129

 Side 1  free  transition at x/c =  0.6238   54
 Side 2  free  transition at x/c =  0.6317   53

  93   rms: 0.1172E+01   max: -.2206E+02   C at   53  2   RLX: 0.023
       a =  1.500      CL =  0.2286
      Cm =  0.0045     CD =  0.00686   =>   CDf =  0.00557    CDp =  0.00129

 Side 1  free  transition at x/c =  0.6238   54
 Side 2  free  transition at x/c =  0.6459   54

  94   rms: 0.1085E+01   max: -.2034E+02   C at   54  2   RLX: 0.025
       a =  1.500      CL =  0.2286
      Cm =  0.0045     CD =  0.00680   =>   CDf =  0.00552    CDp =  0.00128

 Side 1  free  transition at x/c =  0.6238   54
 Side 2  free  transition at x/c =  0.6602   55

  95   rms: 0.9692E+00   max: -.1810E+02   C at   55  2   RLX: 0.028
       a =  1.500      CL =  0.2286
      Cm =  0.0045     CD =  0.00675   =>   CDf =  0.00548    CDp =  0.00127

 Side 1  free  transition at x/c =  0.6238   54
 Side 2  free  transition at x/c =  0.6747   56

  96   rms: 0.8879E+00   max: -.1652E+02   C at   56  2   RLX: 0.030
       a =  1.500      CL =  0.2286
      Cm =  0.0045     CD =  0.00670   =>   CDf =  0.00543    CDp =  0.00127

 Side 1  free  transition at x/c =  0.6238   54
 Side 2  free  transition at x/c =  0.6893   57

  97   rms: 0.8274E+00   max: -.1535E+02   C at   57  2   RLX: 0.033
       a =  1.500      CL =  0.2285
      Cm =  0.0045     CD =  0.00664   =>   CDf =  0.00538    CDp =  0.00127

 Side 1  free  transition at x/c =  0.6238   54
 Side 2  free  transition at x/c =  0.7043   58

  98   rms: 0.7838E+00   max: -.1447E+02   C at   58  2   RLX: 0.035
       a =  1.500      CL =  0.2285
      Cm =  0.0046     CD =  0.00659   =>   CDf =  0.00533    CDp =  0.00126

 Side 1  free  transition at x/c =  0.6238   54
 Side 2  free  transition at x/c =  0.7194   59

  99   rms: 0.7350E+00   max: -.1353E+02   C at   59  2   RLX: 0.037
       a =  1.500      CL =  0.2284
      Cm =  0.0046     CD =  0.00653   =>   CDf =  0.00528    CDp =  0.00126

 Side 1  free  transition at x/c =  0.6238   54
 Side 2  free  transition at x/c =  0.7347   60

 100   rms: 0.6531E+00   max: -.1199E+02   C at   60  2   RLX: 0.042
       a =  1.500      CL =  0.2283
      Cm =  0.0046     CD =  0.00648   =>   CDf =  0.00522    CDp =  0.00125

 Side 1  free  transition at x/c =  0.6238   54
 Side 2  free  transition at x/c =  0.7501   61

 101   rms: 0.5606E+00   max: -.1024E+02   C at   61  2   RLX: 0.049
       a =  1.500      CL =  0.2282
      Cm =  0.0047     CD =  0.00642   =>   CDf =  0.00517    CDp =  0.00125

 Side 1  free  transition at x/c =  0.6238   54
 Side 2  free  transition at x/c =  0.7661   62

 102   rms: 0.4817E+00   max: -.8724E+01   C at   62  2   RLX: 0.057
       a =  1.500      CL =  0.2281
      Cm =  0.0047     CD =  0.00636   =>   CDf =  0.00511    CDp =  0.00125

 Side 1  free  transition at x/c =  0.6238   54
 Side 2  free  transition at x/c =  0.7819   63

 103   rms: 0.4253E+00   max: -.7647E+01   C at   63  2   RLX: 0.065
       a =  1.500      CL =  0.2280
      Cm =  0.0048     CD =  0.00630   =>   CDf =  0.00506    CDp =  0.00125

 Side 1  free  transition at x/c =  0.6238   54
 Side 2  free  transition at x/c =  0.7980   64

 104   rms: 0.3586E+00   max: -.6384E+01   C at   64  2   RLX: 0.078
       a =  1.500      CL =  0.2278
      Cm =  0.0049     CD =  0.00624   =>   CDf =  0.00500    CDp =  0.00125

 Side 1  free  transition at x/c =  0.6238   54
 Side 2  free  transition at x/c =  0.8143   66

 105   rms: 0.2338E+00   max: -.4483E+01   C at   66  2   RLX: 0.112
       a =  1.500      CL =  0.2275
      Cm =  0.0050     CD =  0.00617   =>   CDf =  0.00494    CDp =  0.00124

 Side 1  free  transition at x/c =  0.6238   54
 Side 2  free  transition at x/c =  0.8314   67

 106   rms: 0.1928E+00   max: -.3639E+01   C at   67  2   RLX: 0.137
       a =  1.500      CL =  0.2273
      Cm =  0.0051     CD =  0.00611   =>   CDf =  0.00487    CDp =  0.00124

 Side 1  free  transition at x/c =  0.6238   54
 Side 2  free  transition at x/c =  0.8498   68

 107   rms: 0.1595E+00   max: -.2953E+01   C at   68  2   RLX: 0.169
       a =  1.500      CL =  0.2271
      Cm =  0.0053     CD =  0.00605   =>   CDf =  0.00481    CDp =  0.00125

 Side 1  free  transition at x/c =  0.6238   54
 Side 2  free  transition at x/c =  0.8677   69

 108   rms: 0.1342E+00   max: -.2444E+01   C at   69  2   RLX: 0.205
       a =  1.500      CL =  0.2268
      Cm =  0.0055     CD =  0.00600   =>   CDf =  0.00474    CDp =  0.00126

 Side 1  free  transition at x/c =  0.6238   54
 Side 2  free  transition at x/c =  0.8650   69

 109   rms: 0.1266E+00   max: -.2352E+01   C at   69  2   RLX: 0.213
       a =  1.500      CL =  0.2269
      Cm =  0.0054     CD =  0.00600   =>   CDf =  0.00475    CDp =  0.00125

 Side 1  free  transition at x/c =  0.6238   54
 Side 2  free  transition at x/c =  0.8695   70

 110   rms: 0.9236E-01   max: -.1811E+01   C at   70  2   RLX: 0.276
       a =  1.500      CL =  0.2269
      Cm =  0.0054     CD =  0.00598   =>   CDf =  0.00474    CDp =  0.00124

 Side 1  free  transition at x/c =  0.6238   54
 Side 2  free  transition at x/c =  0.8790   70

 111   rms: 0.8805E-01   max: -.1649E+01   C at   70  2   RLX: 0.303
       a =  1.500      CL =  0.2269
      Cm =  0.0055     CD =  0.00596   =>   CDf =  0.00470    CDp =  0.00125

 Side 1  free  transition at x/c =  0.6238   54
 Side 2  free  transition at x/c =  0.8921   71

 112   rms: 0.6285E-01   max: -.1178E+01   C at   71  2   RLX: 0.425
       a =  1.500      CL =  0.2269
      Cm =  0.0056     CD =  0.00593   =>   CDf =  0.00466    CDp =  0.00127

 Side 1  free  transition at x/c =  0.6238   54
 Side 2  free  transition at x/c =  0.9075   72

 113   rms: 0.4866E-01   max: -.8962E+00   C at   72  2   RLX: 0.558
       a =  1.500      CL =  0.2271
      Cm =  0.0057     CD =  0.00590   =>   CDf =  0.00461    CDp =  0.00128

 Side 1  free  transition at x/c =  0.6238   54
 Side 2  free  transition at x/c =  0.9246   73

 114   rms: 0.3057E-01   max: -.5446E+00   C at   73  2   RLX: 0.918
       a =  1.500      CL =  0.2284
      Cm =  0.0056     CD =  0.00588   =>   CDf =  0.00458    CDp =  0.00130

 Side 1  free  transition at x/c =  0.6237   54
 Side 2  free  transition at x/c =  0.9538   76

 115   rms: 0.1788E-01   max: 0.2828E+00   C at   76  2
       a =  1.500      CL =  0.2278
      Cm =  0.0058     CD =  0.00589   =>   CDf =  0.00454    CDp =  0.00136

 Side 1  free  transition at x/c =  0.6237   54
 Side 2  free  transition at x/c =  0.9406   75

 116   rms: 0.1880E-01   max: 0.2972E+00   C at   75  2
       a =  1.500      CL =  0.2268
      Cm =  0.0059     CD =  0.00591   =>   CDf =  0.00455    CDp =  0.00137

 Side 1  free  transition at x/c =  0.6238   54
 Side 2  free  transition at x/c =  0.9210   73

 117   rms: 0.5263E-01   max: -.9546E+00   C at   73  2   RLX: 0.524
       a =  1.500      CL =  0.2278
      Cm =  0.0057     CD =  0.00588   =>   CDf =  0.00459    CDp =  0.00129

 Side 1  free  transition at x/c =  0.6237   54
 Side 2  free  transition at x/c =  0.9396   75

 118   rms: 0.1962E-01   max: 0.3055E+00   C at   75  2
       a =  1.500      CL =  0.2267
      Cm =  0.0059     CD =  0.00592   =>   CDf =  0.00455    CDp =  0.00137

 Side 1  free  transition at x/c =  0.6238   54
 Side 2  free  transition at x/c =  0.9182   73

 119   rms: 0.5345E-01   max: -.9841E+00   C at   73  2   RLX: 0.508
       a =  1.500      CL =  0.2276
      Cm =  0.0058     CD =  0.00588   =>   CDf =  0.00459    CDp =  0.00129

 Side 1  free  transition at x/c =  0.6237   54
 Side 2  free  transition at x/c =  0.9355   74

 120   rms: 0.2409E+00   max: 0.4051E+01   C at   74  2   RLX: 0.370
       a =  1.500      CL =  0.2215
      Cm =  0.0067     CD =  0.00598   =>   CDf =  0.00455    CDp =  0.00143

 Side 1  free  transition at x/c =  0.6241   54
 Side 2  free  transition at x/c =  0.2059   23

 121   rms: 0.3225E+00   max: -.7260E+01   C at   23  2   RLX: 0.069
       a =  1.500      CL =  0.2254
      Cm =  0.0057     CD =  0.00814   =>   CDf =  0.00679    CDp =  0.00135

 Side 1  free  transition at x/c =  0.6239   54
 Side 2  free  transition at x/c =  0.2180   24

 122   rms: 0.3918E+00   max: -.8784E+01   C at   24  2   RLX: 0.057
       a =  1.500      CL =  0.2263
      Cm =  0.0055     CD =  0.00810   =>   CDf =  0.00675    CDp =  0.00135

 Side 1  free  transition at x/c =  0.6239   54
 Side 2  free  transition at x/c =  0.2296   25

 123   rms: 0.5093E+00   max: -.1137E+02   C at   25  2   RLX: 0.044
       a =  1.500      CL =  0.2270
      Cm =  0.0054     CD =  0.00807   =>   CDf =  0.00672    CDp =  0.00135

 Side 1  free  transition at x/c =  0.6238   54
 Side 2  free  transition at x/c =  0.2456   26

 124   rms: 0.1288E+01   max: -.2814E+02   C at   26  2   RLX: 0.018
       a =  1.500      CL =  0.2271
      Cm =  0.0053     CD =  0.00802   =>   CDf =  0.00667    CDp =  0.00135

 Side 1  free  transition at x/c =  0.6238   54
 Side 2  free  transition at x/c =  0.2580   27

 125   rms: 0.1495E+01   max: -.3268E+02   C at   27  2   RLX: 0.015
       a =  1.500      CL =  0.2273
      Cm =  0.0053     CD =  0.00799   =>   CDf =  0.00664    CDp =  0.00135

 Side 1  free  transition at x/c =  0.6238   54
 Side 2  free  transition at x/c =  0.2711   28

 126   rms: 0.1660E+01   max: -.3620E+02   C at   28  2   RLX: 0.014
       a =  1.500      CL =  0.2274
      Cm =  0.0053     CD =  0.00795   =>   CDf =  0.00660    CDp =  0.00135

 Side 1  free  transition at x/c =  0.6238   54
 Side 2  free  transition at x/c =  0.2843   29

 127   rms: 0.1755E+01   max: -.3811E+02   C at   29  2   RLX: 0.013
       a =  1.500      CL =  0.2275
      Cm =  0.0052     CD =  0.00792   =>   CDf =  0.00657    CDp =  0.00135

 Side 1  free  transition at x/c =  0.6238   54
 Side 2  free  transition at x/c =  0.2975   30

 128   rms: 0.1823E+01   max: -.3949E+02   C at   30  2   RLX: 0.013
       a =  1.500      CL =  0.2276
      Cm =  0.0052     CD =  0.00788   =>   CDf =  0.00653    CDp =  0.00135

 Side 1  free  transition at x/c =  0.6237   54
 Side 2  free  transition at x/c =  0.3110   30

 129   rms: 0.2638E+01   max: -.5198E+02   C at   30  2   RLX: 0.010
       a =  1.500      CL =  0.2277
      Cm =  0.0052     CD =  0.00786   =>   CDf =  0.00650    CDp =  0.00136

 Side 1  free  transition at x/c =  0.6237   54
 Side 2  free  transition at x/c =  0.3220   31

 130   rms: 0.2434E+01   max: -.4943E+02   C at   31  2   RLX: 0.010
       a =  1.500      CL =  0.2277
      Cm =  0.0051     CD =  0.00783   =>   CDf =  0.00647    CDp =  0.00136

 Side 1  free  transition at x/c =  0.6237   54
 Side 2  free  transition at x/c =  0.3341   32

 131   rms: 0.2269E+01   max: -.4653E+02   C at   32  2   RLX: 0.011
       a =  1.500      CL =  0.2277
      Cm =  0.0051     CD =  0.00779   =>   CDf =  0.00644    CDp =  0.00135

 Side 1  free  transition at x/c =  0.6237   54
 Side 2  free  transition at x/c =  0.3466   33

 132   rms: 0.2179E+01   max: -.4499E+02   C at   33  2   RLX: 0.011
       a =  1.500      CL =  0.2278
      Cm =  0.0051     CD =  0.00776   =>   CDf =  0.00640    CDp =  0.00135

 Side 1  free  transition at x/c =  0.6237   54
 Side 2  free  transition at x/c =  0.3596   34

 133   rms: 0.2075E+01   max: -.4295E+02   C at   34  2   RLX: 0.012
       a =  1.500      CL =  0.2278
      Cm =  0.0051     CD =  0.00772   =>   CDf =  0.00637    CDp =  0.00135

 Side 1  free  transition at x/c =  0.6237   54
 Side 2  free  transition at x/c =  0.3731   35

 134   rms: 0.2040E+01   max: -.4228E+02   C at   35  2   RLX: 0.012
       a =  1.500      CL =  0.2279
      Cm =  0.0050     CD =  0.00768   =>   CDf =  0.00633    CDp =  0.00135

 Side 1  free  transition at x/c =  0.6237   54
 Side 2  free  transition at x/c =  0.3868   36

 135   rms: 0.2042E+01   max: -.4222E+02   C at   36  2   RLX: 0.012
       a =  1.500      CL =  0.2279
      Cm =  0.0050     CD =  0.00764   =>   CDf =  0.00629    CDp =  0.00135

 Side 1  free  transition at x/c =  0.6237   54
 Side 2  free  transition at x/c =  0.4006   37

 136   rms: 0.2025E+01   max: -.4173E+02   C at   37  2   RLX: 0.012
       a =  1.500      CL =  0.2280
      Cm =  0.0050     CD =  0.00760   =>   CDf =  0.00626    CDp =  0.00135

 Side 1  free  transition at x/c =  0.6237   54
 Side 2  free  transition at x/c =  0.4142   38

 137   rms: 0.1926E+01   max: -.3962E+02   C at   38  2   RLX: 0.013
       a =  1.500      CL =  0.2280
      Cm =  0.0050     CD =  0.00756   =>   CDf =  0.00622    CDp =  0.00134

 Side 1  free  transition at x/c =  0.6237   54
 Side 2  free  transition at x/c =  0.4277   39

 138   rms: 0.1873E+01   max: -.3843E+02   C at   39  2   RLX: 0.013
       a =  1.500      CL =  0.2280
      Cm =  0.0049     CD =  0.00752   =>   CDf =  0.00618    CDp =  0.00134

 Side 1  free  transition at x/c =  0.6237   54
 Side 2  free  transition at x/c =  0.4412   40

 139   rms: 0.1838E+01   max: -.3763E+02   C at   40  2   RLX: 0.013
       a =  1.500      CL =  0.2281
      Cm =  0.0049     CD =  0.00748   =>   CDf =  0.00614    CDp =  0.00134

 Side 1  free  transition at x/c =  0.6237   54
 SETBL: Xtr???  n1 n2:    8.9792261       8.9999866    
 Side 2  free  transition at x/c =  0.4412   40

 140   rms: 0.2596E+01   max: -.4790E+02   C at   40  2   RLX: 0.010
       a =  1.500      CL =  0.2281
      Cm =  0.0049     CD =  0.00744   =>   CDf =  0.00610    CDp =  0.00134

 Side 1  free  transition at x/c =  0.6237   54
 Side 2  free  transition at x/c =  0.4581   41

 141   rms: 0.1929E+01   max: -.3872E+02   C at   41  2   RLX: 0.013
       a =  1.500      CL =  0.2283
      Cm =  0.0048     CD =  0.00743   =>   CDf =  0.00609    CDp =  0.00134

 Side 1  free  transition at x/c =  0.6237   54
 Side 2  free  transition at x/c =  0.4715   42

 142   rms: 0.1852E+01   max: -.3711E+02   C at   42  2   RLX: 0.013
       a =  1.500      CL =  0.2283
      Cm =  0.0048     CD =  0.00739   =>   CDf =  0.00605    CDp =  0.00133

 Side 1  free  transition at x/c =  0.6237   54
 Side 2  free  transition at x/c =  0.4844   43

 143   rms: 0.1725E+01   max: -.3451E+02   C at   43  2   RLX: 0.014
       a =  1.500      CL =  0.2283
      Cm =  0.0048     CD =  0.00734   =>   CDf =  0.00601    CDp =  0.00133

 Side 1  free  transition at x/c =  0.6238   54
 Side 2  free  transition at x/c =  0.4978   44

 144   rms: 0.1649E+01   max: -.3298E+02   C at   44  2   RLX: 0.015
       a =  1.500      CL =  0.2284
      Cm =  0.0048     CD =  0.00730   =>   CDf =  0.00597    CDp =  0.00132

 MRCHDU: Convergence failed at  44  side 2    Res =  0.1272E-03
 Side 1  free  transition at x/c =  0.6238   54
 Side 2  free  transition at x/c =  0.5119   44

 145   rms: 0.2136E+01   max: -.3848E+02   C at   44  2   RLX: 0.013
       a =  1.500      CL =  0.2284
      Cm =  0.0047     CD =  0.00726   =>   CDf =  0.00593    CDp =  0.00133

 Side 1  free  transition at x/c =  0.6238   54
 Side 2  free  transition at x/c =  0.5244   45

 146   rms: 0.1985E+01   max: -.3617E+02   C at   45  2   RLX: 0.014
       a =  1.500      CL =  0.2284
      Cm =  0.0047     CD =  0.00722   =>   CDf =  0.00590    CDp =  0.00132

 Side 1  free  transition at x/c =  0.6238   54
 Side 2  free  transition at x/c =  0.5372   46

 147   rms: 0.1853E+01   max: -.3440E+02   C at   46  2   RLX: 0.015
       a =  1.500      CL =  0.2284
      Cm =  0.0047     CD =  0.00718   =>   CDf =  0.00586    CDp =  0.00132

 Side 1  free  transition at x/c =  0.6238   54
 Side 2  free  transition at x/c =  0.5504   47

 148   rms: 0.1767E+01   max: -.3300E+02   C at   47  2   RLX: 0.015
       a =  1.500      CL =  0.2284
      Cm =  0.0047     CD =  0.00714   =>   CDf =  0.00582    CDp =  0.00132

 Side 1  free  transition at x/c =  0.6238   54
 Side 2  free  transition at x/c =  0.5638   48

 149   rms: 0.1639E+01   max: -.3072E+02   C at   48  2   RLX: 0.016
       a =  1.500      CL =  0.2284
      Cm =  0.0047     CD =  0.00709   =>   CDf =  0.00578    CDp =  0.00131

 Side 1  free  transition at x/c =  0.6238   54
 Side 2  free  transition at x/c =  0.5773   49

 150   rms: 0.1510E+01   max: -.2836E+02   C at   49  2   RLX: 0.018
       a =  1.500      CL =  0.2284
      Cm =  0.0047     CD =  0.00705   =>   CDf =  0.00574    CDp =  0.00130

 Side 1  free  transition at x/c =  0.6238   54
 Side 2  free  transition at x/c =  0.5910   50

 151   rms: 0.1354E+01   max: -.2543E+02   C at   50  2   RLX: 0.020
       a =  1.500      CL =  0.2284
      Cm =  0.0046     CD =  0.00700   =>   CDf =  0.00570    CDp =  0.00130

 Side 1  free  transition at x/c =  0.6238   54
 Side 2  free  transition at x/c =  0.6048   51

 152   rms: 0.1265E+01   max: -.2373E+02   C at   51  2   RLX: 0.021
       a =  1.500      CL =  0.2284
      Cm =  0.0046     CD =  0.00695   =>   CDf =  0.00566    CDp =  0.00129

 Side 1  free  transition at x/c =  0.6238   54
 Side 2  free  transition at x/c =  0.6188   52

 153   rms: 0.1238E+01   max: -.2317E+02   C at   52  2   RLX: 0.022
       a =  1.500      CL =  0.2284
      Cm =  0.0046     CD =  0.00690   =>   CDf =  0.00561    CDp =  0.00129

 Side 1  free  transition at x/c =  0.6238   54
 Side 2  free  transition at x/c =  0.6329   53

 154   rms: 0.1191E+01   max: -.2221E+02   C at   53  2   RLX: 0.023
       a =  1.500      CL =  0.2284
      Cm =  0.0046     CD =  0.00685   =>   CDf =  0.00557    CDp =  0.00128

 Side 1  free  transition at x/c =  0.6238   54
 Side 2  free  transition at x/c =  0.6469   54

 155   rms: 0.1089E+01   max: -.2028E+02   C at   54  2   RLX: 0.025
       a =  1.500      CL =  0.2284
      Cm =  0.0046     CD =  0.00679   =>   CDf =  0.00552    CDp =  0.00127
 VISCAL:  Convergence failed
 Calculating wake trajectory ...
 Calculating source influence matrix ...

 Solving BL system ...

 Side 1  free  transition at x/c =  0.6238   54
 Side 2  free  transition at x/c =  0.6608   55

   1   rms: 0.6012E+01   max: -.1118E+03   C at   55  2   RLX: 0.004
       a =  1.750      CL =  0.2283
      Cm =  0.0046     CD =  0.00674   =>   CDf =  0.00547    CDp =  0.00127

 Side 1  free  transition at x/c =  0.6238   54
 Side 2  free  transition at x/c =  0.6755   56

   2   rms: 0.5679E+01   max: -.1050E+03   C at   56  2   RLX: 0.005
       a =  1.750      CL =  0.2282
      Cm =  0.0047     CD =  0.00669   =>   CDf =  0.00542    CDp =  0.00127

 Side 1  free  transition at x/c =  0.6237   54
 Side 2  free  transition at x/c =  0.6902   57

   3   rms: 0.5443E+01   max: -.1004E+03   C at   57  2   RLX: 0.005
       a =  1.750      CL =  0.2280
      Cm =  0.0047     CD =  0.00664   =>   CDf =  0.00538    CDp =  0.00126

 Side 1  free  transition at x/c =  0.6237   54
 Side 2  free  transition at x/c =  0.7049   58

   4   rms: 0.5297E+01   max: -.9745E+02   C at   58  2   RLX: 0.005
       a =  1.750      CL =  0.2279
      Cm =  0.0048     CD =  0.00658   =>   CDf =  0.00533    CDp =  0.00126

 Side 1  free  transition at x/c =  0.6237   54
 Side 2  free  transition at x/c =  0.7200   59

   5   rms: 0.5034E+01   max: -.9223E+02   C at   59  2   RLX: 0.005
       a =  1.750      CL =  0.2277
      Cm =  0.0048     CD =  0.00653   =>   CDf =  0.00527    CDp =  0.00126

 Side 1  free  transition at x/c =  0.6236   54
 Side 2  free  transition at x/c =  0.7351   60

   6   rms: 0.4698E+01   max: -.8607E+02   C at   60  2   RLX: 0.006
       a =  1.750      CL =  0.2275
      Cm =  0.0049     CD =  0.00647   =>   CDf =  0.00522    CDp =  0.00125

 Side 1  free  transition at x/c =  0.6236   54
 Side 2  free  transition at x/c =  0.7510   61

   7   rms: 0.4147E+01   max: -.7521E+02   C at   61  2   RLX: 0.007
       a =  1.750      CL =  0.2273
      Cm =  0.0050     CD =  0.00642   =>   CDf =  0.00517    CDp =  0.00125

 Side 1  free  transition at x/c =  0.6236   54
 Side 2  free  transition at x/c =  0.7668   62

   8   rms: 0.3762E+01   max: -.6779E+02   C at   62  2   RLX: 0.007
       a =  1.750      CL =  0.2270
      Cm =  0.0051     CD =  0.00636   =>   CDf =  0.00511    CDp =  0.00125

 Side 1  free  transition at x/c =  0.6235   54
 Side 2  free  transition at x/c =  0.7823   63

   9   rms: 0.3473E+01   max: -.6223E+02   C at   63  2   RLX: 0.008
       a =  1.750      CL =  0.2268
      Cm =  0.0052     CD =  0.00630   =>   CDf =  0.00505    CDp =  0.00125

 Side 1  free  transition at x/c =  0.6235   54
 Side 2  free  transition at x/c =  0.7983   64

  10   rms: 0.3197E+01   max: -.5681E+02   C at   64  2   RLX: 0.009
       a =  1.750      CL =  0.2265
      Cm =  0.0054     CD =  0.00624   =>   CDf =  0.00500    CDp =  0.00125

 Side 1  free  transition at x/c =  0.6234   54
 Side 2  free  transition at x/c =  0.8145   66

  11   rms: 0.2268E+01   max: -.4351E+02   C at   66  2   RLX: 0.011
       a =  1.750      CL =  0.2260
      Cm =  0.0056     CD =  0.00618   =>   CDf =  0.00493    CDp =  0.00124

 Side 1  free  transition at x/c =  0.6234   54
 Side 2  free  transition at x/c =  0.8314   67

  12   rms: 0.2079E+01   max: -.3923E+02   C at   67  2   RLX: 0.013
       a =  1.750      CL =  0.2256
      Cm =  0.0058     CD =  0.00612   =>   CDf =  0.00487    CDp =  0.00125

 Side 1  free  transition at x/c =  0.6233   54
 Side 2  free  transition at x/c =  0.8499   68

  13   rms: 0.1970E+01   max: -.3640E+02   C at   68  2   RLX: 0.014
       a =  1.750      CL =  0.2252
      Cm =  0.0060     CD =  0.00606   =>   CDf =  0.00480    CDp =  0.00126

 Side 1  free  transition at x/c =  0.6232   54
 Side 2  free  transition at x/c =  0.8692   70

  14   rms: 0.1477E+01   max: -.2880E+02   C at   70  2   RLX: 0.017
       a =  1.750      CL =  0.2246
      Cm =  0.0064     CD =  0.00600   =>   CDf =  0.00473    CDp =  0.00126

 Side 1  free  transition at x/c =  0.6231   54
 Side 2  free  transition at x/c =  0.8675   69

  15   rms: 0.1755E+01   max: -.3230E+02   C at   69  2   RLX: 0.015
       a =  1.750      CL =  0.2246
      Cm =  0.0063     CD =  0.00601   =>   CDf =  0.00474    CDp =  0.00126

 Side 1  free  transition at x/c =  0.6230   54
 Side 2  free  transition at x/c =  0.8918   71

  16   rms: 0.1566E+01   max: -.2887E+02   C at   71  2   RLX: 0.017
       a =  1.750      CL =  0.2240
      Cm =  0.0068     CD =  0.00595   =>   CDf =  0.00465    CDp =  0.00129

 Side 1  free  transition at x/c =  0.6229   54
 Side 2  free  transition at x/c =  0.8968   72

  17   rms: 0.1465E+01   max: -.2790E+02   C at   72  2   RLX: 0.018
       a =  1.750      CL =  0.2240
      Cm =  0.0068     CD =  0.00593   =>   CDf =  0.00464    CDp =  0.00129

 Side 1  free  transition at x/c =  0.6228   54
 Side 2  free  transition at x/c =  0.9087   72

  18   rms: 0.2933E+01   max: -.5240E+02   C at   72  2   RLX: 0.010
       a =  1.750      CL =  0.2244
      Cm =  0.0068     CD =  0.00591   =>   CDf =  0.00460    CDp =  0.00131

 Side 1  free  transition at x/c =  0.6227   54
 Side 2  free  transition at x/c =  0.9222   73

  19   rms: 0.4526E+01   max: 0.7865E+02   C at   73  2   RLX: 0.019
       a =  1.750      CL =  0.2218
      Cm =  0.0071     CD =  0.00600   =>   CDf =  0.00457    CDp =  0.00144

 Side 1  free  transition at x/c =  0.6227   54
 Side 2  free  transition at x/c =  0.2764   28

  20   rms: 0.8171E+01   max: -.1736E+03   C at   28  2   RLX: 0.003
       a =  1.750      CL =  0.2242
      Cm =  0.0062     CD =  0.00796   =>   CDf =  0.00659    CDp =  0.00138

 Side 1  free  transition at x/c =  0.6227   54
 Side 2  free  transition at x/c =  0.2885   29

  21   rms: 0.8470E+01   max: -.1809E+03   C at   29  2   RLX: 0.003
       a =  1.750      CL =  0.2243
      Cm =  0.0062     CD =  0.00793   =>   CDf =  0.00655    CDp =  0.00138

 Side 1  free  transition at x/c =  0.6226   54
 Side 2  free  transition at x/c =  0.3005   30

  22   rms: 0.8593E+01   max: -.1841E+03   C at   30  2   RLX: 0.003
       a =  1.750      CL =  0.2243
      Cm =  0.0062     CD =  0.00790   =>   CDf =  0.00652    CDp =  0.00137

 Side 1  free  transition at x/c =  0.6226   54
 Side 2  free  transition at x/c =  0.3124   31

  23   rms: 0.8246E+01   max: -.1767E+03   C at   31  2   RLX: 0.003
       a =  1.750      CL =  0.2243
      Cm =  0.0062     CD =  0.00786   =>   CDf =  0.00649    CDp =  0.00137

 Side 1  free  transition at x/c =  0.6226   54
 Side 2  free  transition at x/c =  0.3248   31

  24   rms: 0.1181E+02   max: -.2301E+03   C at   31  2   RLX: 0.002
       a =  1.750      CL =  0.2244
      Cm =  0.0062     CD =  0.00784   =>   CDf =  0.00645    CDp =  0.00138

 Side 1  free  transition at x/c =  0.6226   54
 Side 2  free  transition at x/c =  0.3352   32

  25   rms: 0.1079E+02   max: -.2175E+03   C at   32  2   RLX: 0.002
       a =  1.750      CL =  0.2244
      Cm =  0.0062     CD =  0.00781   =>   CDf =  0.00643    CDp =  0.00138

 Side 1  free  transition at x/c =  0.6226   54
 Side 2  free  transition at x/c =  0.3471   33

  26   rms: 0.1007E+02   max: -.2054E+03   C at   33  2   RLX: 0.002
       a =  1.750      CL =  0.2244
      Cm =  0.0062     CD =  0.00777   =>   CDf =  0.00640    CDp =  0.00138

 Side 1  free  transition at x/c =  0.6226   54
 Side 2  free  transition at x/c =  0.3598   34

  27   rms: 0.9568E+01   max: -.1965E+03   C at   34  2   RLX: 0.003
       a =  1.750      CL =  0.2244
      Cm =  0.0062     CD =  0.00774   =>   CDf =  0.00636    CDp =  0.00138

 Side 1  free  transition at x/c =  0.6225   54
 Side 2  free  transition at x/c =  0.3733   35

  28   rms: 0.9383E+01   max: -.1930E+03   C at   35  2   RLX: 0.003
       a =  1.750      CL =  0.2244
      Cm =  0.0062     CD =  0.00770   =>   CDf =  0.00633    CDp =  0.00137

 Side 1  free  transition at x/c =  0.6225   54
 Side 2  free  transition at x/c =  0.3872   36

  29   rms: 0.9534E+01   max: -.1962E+03   C at   36  2   RLX: 0.003
       a =  1.750      CL =  0.2244
      Cm =  0.0062     CD =  0.00766   =>   CDf =  0.00629    CDp =  0.00137

 Side 1  free  transition at x/c =  0.6225   54
 Side 2  free  transition at x/c =  0.4013   37

  30   rms: 0.9537E+01   max: -.1958E+03   C at   37  2   RLX: 0.003
       a =  1.750      CL =  0.2244
      Cm =  0.0062     CD =  0.00762   =>   CDf =  0.00625    CDp =  0.00137

 Side 1  free  transition at x/c =  0.6225   54
 Side 2  free  transition at x/c =  0.4151   38

  31   rms: 0.9190E+01   max: -.1882E+03   C at   38  2   RLX: 0.003
       a =  1.750      CL =  0.2244
      Cm =  0.0062     CD =  0.00758   =>   CDf =  0.00621    CDp =  0.00137

 Side 1  free  transition at x/c =  0.6225   54
 Side 2  free  transition at x/c =  0.4289   39

  32   rms: 0.9029E+01   max: -.1844E+03   C at   39  2   RLX: 0.003
       a =  1.750      CL =  0.2244
      Cm =  0.0062     CD =  0.00754   =>   CDf =  0.00617    CDp =  0.00137

 Side 1  free  transition at x/c =  0.6225   54
 Side 2  free  transition at x/c =  0.4426   40

  33   rms: 0.8996E+01   max: -.1833E+03   C at   40  2   RLX: 0.003
       a =  1.750      CL =  0.2244
      Cm =  0.0062     CD =  0.00750   =>   CDf =  0.00613    CDp =  0.00136

 Side 1  free  transition at x/c =  0.6225   54
 Side 2  free  transition at x/c =  0.4563   41

  34   rms: 0.8734E+01   max: -.1772E+03   C at   41  2   RLX: 0.003
       a =  1.750      CL =  0.2244
      Cm =  0.0061     CD =  0.00745   =>   CDf =  0.00609    CDp =  0.00136

 Side 1  free  transition at x/c =  0.6225   54
 Side 2  free  transition at x/c =  0.4700   42

  35   rms: 0.8528E+01   max: -.1726E+03   C at   42  2   RLX: 0.003
       a =  1.750      CL =  0.2243
      Cm =  0.0061     CD =  0.00741   =>   CDf =  0.00605    CDp =  0.00136

 Side 1  free  transition at x/c =  0.6224   54
 Side 2  free  transition at x/c =  0.4834   43

  36   rms: 0.8283E+01   max: -.1674E+03   C at   43  2   RLX: 0.003
       a =  1.750      CL =  0.2243
      Cm =  0.0061     CD =  0.00737   =>   CDf =  0.00601    CDp =  0.00135

 Side 1  free  transition at x/c =  0.6224   54
 Side 2  free  transition at x/c =  0.4971   43

  37   rms: 0.1092E+02   max: -.1990E+03   C at   43  2   RLX: 0.003
       a =  1.750      CL =  0.2243
      Cm =  0.0061     CD =  0.00733   =>   CDf =  0.00597    CDp =  0.00136

 Side 1  free  transition at x/c =  0.6224   54
 Side 2  free  transition at x/c =  0.5089   44

  38   rms: 0.1023E+02   max: -.1907E+03   C at   44  2   RLX: 0.003
       a =  1.750      CL =  0.2243
      Cm =  0.0061     CD =  0.00730   =>   CDf =  0.00594    CDp =  0.00136

 Side 1  free  transition at x/c =  0.6224   54
 Side 2  free  transition at x/c =  0.5217   45

  39   rms: 0.9775E+01   max: -.1839E+03   C at   45  2   RLX: 0.003
       a =  1.750      CL =  0.2243
      Cm =  0.0061     CD =  0.00726   =>   CDf =  0.00590    CDp =  0.00135

 Side 1  free  transition at x/c =  0.6224   54
 Side 2  free  transition at x/c =  0.5348   46

  40   rms: 0.9366E+01   max: -.1771E+03   C at   46  2   RLX: 0.003
       a =  1.750      CL =  0.2242
      Cm =  0.0061     CD =  0.00721   =>   CDf =  0.00586    CDp =  0.00135

 Side 1  free  transition at x/c =  0.6224   54
 Side 2  free  transition at x/c =  0.5483   47

  41   rms: 0.9072E+01   max: -.1721E+03   C at   47  2   RLX: 0.003
       a =  1.750      CL =  0.2242
      Cm =  0.0061     CD =  0.00717   =>   CDf =  0.00582    CDp =  0.00134

 Side 1  free  transition at x/c =  0.6224   54
 Side 2  free  transition at x/c =  0.5621   48

  42   rms: 0.8592E+01   max: -.1631E+03   C at   48  2   RLX: 0.003
       a =  1.750      CL =  0.2242
      Cm =  0.0061     CD =  0.00712   =>   CDf =  0.00578    CDp =  0.00134

 Side 1  free  transition at x/c =  0.6224   54
 Side 2  free  transition at x/c =  0.5759   49

  43   rms: 0.7898E+01   max: -.1497E+03   C at   49  2   RLX: 0.003
       a =  1.750      CL =  0.2241
      Cm =  0.0061     CD =  0.00707   =>   CDf =  0.00574    CDp =  0.00133

 Side 1  free  transition at x/c =  0.6223   54
 Side 2  free  transition at x/c =  0.5901   50

  44   rms: 0.7414E+01   max: -.1402E+03   C at   50  2   RLX: 0.004
       a =  1.750      CL =  0.2241
      Cm =  0.0061     CD =  0.00702   =>   CDf =  0.00570    CDp =  0.00133

 Side 1  free  transition at x/c =  0.6223   54
 Side 2  free  transition at x/c =  0.6043   51

  45   rms: 0.7088E+01   max: -.1336E+03   C at   51  2   RLX: 0.004
       a =  1.750      CL =  0.2240
      Cm =  0.0062     CD =  0.00697   =>   CDf =  0.00565    CDp =  0.00132

 Side 1  free  transition at x/c =  0.6223   54
 Side 2  free  transition at x/c =  0.6183   52

  46   rms: 0.7160E+01   max: -.1346E+03   C at   52  2   RLX: 0.004
       a =  1.750      CL =  0.2239
      Cm =  0.0062     CD =  0.00692   =>   CDf =  0.00561    CDp =  0.00132

 Side 1  free  transition at x/c =  0.6223   54
 Side 2  free  transition at x/c =  0.6323   53

  47   rms: 0.6926E+01   max: -.1299E+03   C at   53  2   RLX: 0.004
       a =  1.750      CL =  0.2239
      Cm =  0.0062     CD =  0.00687   =>   CDf =  0.00556    CDp =  0.00131

 Side 1  free  transition at x/c =  0.6223   54
 Side 2  free  transition at x/c =  0.6466   54

  48   rms: 0.6551E+01   max: -.1223E+03   C at   54  2   RLX: 0.004
       a =  1.750      CL =  0.2238
      Cm =  0.0062     CD =  0.00682   =>   CDf =  0.00552    CDp =  0.00131

 Side 1  free  transition at x/c =  0.6223   54
 Side 2  free  transition at x/c =  0.6606   55

  49   rms: 0.5994E+01   max: -.1116E+03   C at   55  2   RLX: 0.004
       a =  1.750      CL =  0.2237
      Cm =  0.0062     CD =  0.00677   =>   CDf =  0.00547    CDp =  0.00130

 Side 1  free  transition at x/c =  0.6222   54
 Side 2  free  transition at x/c =  0.6749   56

  50   rms: 0.5641E+01   max: -.1048E+03   C at   56  2   RLX: 0.005
       a =  1.750      CL =  0.2236
      Cm =  0.0063     CD =  0.00672   =>   CDf =  0.00542    CDp =  0.00130

 Side 1  free  transition at x/c =  0.6222   54
 Side 2  free  transition at x/c =  0.6896   57

  51   rms: 0.5423E+01   max: -.1003E+03   C at   57  2   RLX: 0.005
       a =  1.750      CL =  0.2235
      Cm =  0.0063     CD =  0.00666   =>   CDf =  0.00537    CDp =  0.00129

 Side 1  free  transition at x/c =  0.6222   54
 Side 2  free  transition at x/c =  0.7045   58

  52   rms: 0.5298E+01   max: -.9766E+02   C at   58  2   RLX: 0.005
       a =  1.750      CL =  0.2234
      Cm =  0.0063     CD =  0.00661   =>   CDf =  0.00532    CDp =  0.00129

 Side 1  free  transition at x/c =  0.6222   54
 Side 2  free  transition at x/c =  0.7195   59

  53   rms: 0.5046E+01   max: -.9260E+02   C at   59  2   RLX: 0.005
       a =  1.750      CL =  0.2232
      Cm =  0.0064     CD =  0.00655   =>   CDf =  0.00527    CDp =  0.00129

 Side 1  free  transition at x/c =  0.6222   54
 Side 2  free  transition at x/c =  0.7347   60

  54   rms: 0.4714E+01   max: -.8639E+02   C at   60  2   RLX: 0.006
       a =  1.750      CL =  0.2230
      Cm =  0.0065     CD =  0.00650   =>   CDf =  0.00522    CDp =  0.00128

 Side 1  free  transition at x/c =  0.6221   54
 Side 2  free  transition at x/c =  0.7502   61

  55   rms: 0.4217E+01   max: -.7687E+02   C at   61  2   RLX: 0.007
       a =  1.750      CL =  0.2229
      Cm =  0.0065     CD =  0.00644   =>   CDf =  0.00516    CDp =  0.00128

 Side 1  free  transition at x/c =  0.6221   54
 Side 2  free  transition at x/c =  0.7659   62

  56   rms: 0.3797E+01   max: -.6872E+02   C at   62  2   RLX: 0.007
       a =  1.750      CL =  0.2227
      Cm =  0.0066     CD =  0.00638   =>   CDf =  0.00511    CDp =  0.00128

 Side 1  free  transition at x/c =  0.6221   54
 Side 2  free  transition at x/c =  0.7818   63

  57   rms: 0.3480E+01   max: -.6236E+02   C at   63  2   RLX: 0.008
       a =  1.750      CL =  0.2224
      Cm =  0.0068     CD =  0.00632   =>   CDf =  0.00505    CDp =  0.00128

 Side 1  free  transition at x/c =  0.6220   54
 Side 2  free  transition at x/c =  0.7976   64

  58   rms: 0.3191E+01   max: -.5677E+02   C at   64  2   RLX: 0.009
       a =  1.750      CL =  0.2222
      Cm =  0.0069     CD =  0.00627   =>   CDf =  0.00499    CDp =  0.00128

 Side 1  free  transition at x/c =  0.6220   54
 Side 2  free  transition at x/c =  0.8139   66

  59   rms: 0.2246E+01   max: -.4318E+02   C at   66  2   RLX: 0.012
       a =  1.750      CL =  0.2218
      Cm =  0.0071     CD =  0.00620   =>   CDf =  0.00493    CDp =  0.00127

 Side 1  free  transition at x/c =  0.6220   54
 Side 2  free  transition at x/c =  0.8305   67

  60   rms: 0.2040E+01   max: -.3860E+02   C at   67  2   RLX: 0.013
       a =  1.750      CL =  0.2214
      Cm =  0.0073     CD =  0.00614   =>   CDf =  0.00487    CDp =  0.00127

 Side 1  free  transition at x/c =  0.6219   54
 Side 2  free  transition at x/c =  0.8482   68

  61   rms: 0.1891E+01   max: -.3515E+02   C at   68  2   RLX: 0.014
       a =  1.750      CL =  0.2210
      Cm =  0.0075     CD =  0.00608   =>   CDf =  0.00480    CDp =  0.00128

 Side 1  free  transition at x/c =  0.6218   54
 Side 2  free  transition at x/c =  0.8673   69

  62   rms: 0.1871E+01   max: -.3380E+02   C at   69  2   RLX: 0.015
       a =  1.750      CL =  0.2206
      Cm =  0.0077     CD =  0.00603   =>   CDf =  0.00473    CDp =  0.00130

 Side 1  free  transition at x/c =  0.6218   54
 Side 2  free  transition at x/c =  0.8858   71

  63   rms: 0.1464E+01   max: -.2762E+02   C at   71  2   RLX: 0.018
       a =  1.750      CL =  0.2200
      Cm =  0.0081     CD =  0.00598   =>   CDf =  0.00466    CDp =  0.00132

 Side 1  free  transition at x/c =  0.6217   54
 Side 2  free  transition at x/c =  0.8889   71

  64   rms: 0.1630E+01   max: -.3031E+02   C at   71  2   RLX: 0.016
       a =  1.750      CL =  0.2200
      Cm =  0.0081     CD =  0.00597   =>   CDf =  0.00466    CDp =  0.00132

 Side 1  free  transition at x/c =  0.6216   54
 Side 2  free  transition at x/c =  0.8891   71

  65   rms: 0.1722E+01   max: -.3227E+02   C at   71  2   RLX: 0.015
       a =  1.750      CL =  0.2201
      Cm =  0.0081     CD =  0.00596   =>   CDf =  0.00466    CDp =  0.00130

 Side 1  free  transition at x/c =  0.6216   54
 Side 2  free  transition at x/c =  0.8965   72

  66   rms: 0.1827E+01   max: -.3447E+02   C at   72  2   RLX: 0.015
       a =  1.750      CL =  0.2201
      Cm =  0.0081     CD =  0.00594   =>   CDf =  0.00463    CDp =  0.00131

 Side 1  free  transition at x/c =  0.6215   54
 Side 2  free  transition at x/c =  0.9076   72

  67   rms: 0.8584E+01   max: -.1510E+03   C at   72  2   RLX: 0.003
       a =  1.750      CL =  0.2206
      Cm =  0.0080     CD =  0.00593   =>   CDf =  0.00460    CDp =  0.00134

 Side 1  free  transition at x/c =  0.6215   54
 Side 2  free  transition at x/c =  0.9137   73

  68   rms: 0.7281E+01   max: 0.1288E+03   C at   73  2   RLX: 0.012
       a =  1.750      CL =  0.2190
      Cm =  0.0079     CD =  0.00603   =>   CDf =  0.00458    CDp =  0.00146

 Side 1  free  transition at x/c =  0.6215   54
 Side 2  free  transition at x/c =  0.2892   29

  69   rms: 0.7521E+01   max: -.1606E+03   C at   29  2   RLX: 0.003
       a =  1.750      CL =  0.2214
      Cm =  0.0071     CD =  0.00795   =>   CDf =  0.00655    CDp =  0.00140

 Side 1  free  transition at x/c =  0.6214   54
 Side 2  free  transition at x/c =  0.3015   30

  70   rms: 0.7962E+01   max: -.1702E+03   C at   30  2   RLX: 0.003
       a =  1.750      CL =  0.2214
      Cm =  0.0071     CD =  0.00791   =>   CDf =  0.00651    CDp =  0.00140

 Side 1  free  transition at x/c =  0.6214   54
 Side 2  free  transition at x/c =  0.3134   31

  71   rms: 0.7917E+01   max: -.1691E+03   C at   31  2   RLX: 0.003
       a =  1.750      CL =  0.2215
      Cm =  0.0071     CD =  0.00788   =>   CDf =  0.00648    CDp =  0.00140

 Side 1  free  transition at x/c =  0.6214   54
 Side 2  free  transition at x/c =  0.3251   31

  72   rms: 0.1145E+02   max: -.2220E+03   C at   31  2   RLX: 0.002
       a =  1.750      CL =  0.2215
      Cm =  0.0071     CD =  0.00785   =>   CDf =  0.00645    CDp =  0.00141

 Side 1  free  transition at x/c =  0.6214   54
 Side 2  free  transition at x/c =  0.3348   32

  73   rms: 0.1046E+02   max: -.2102E+03   C at   32  2   RLX: 0.002
       a =  1.750      CL =  0.2216
      Cm =  0.0070     CD =  0.00782   =>   CDf =  0.00642    CDp =  0.00140

 Side 1  free  transition at x/c =  0.6214   54
 Side 2  free  transition at x/c =  0.3459   33

  74   rms: 0.9597E+01   max: -.1960E+03   C at   33  2   RLX: 0.003
       a =  1.750      CL =  0.2216
      Cm =  0.0070     CD =  0.00779   =>   CDf =  0.00639    CDp =  0.00140

 Side 1  free  transition at x/c =  0.6214   54
 Side 2  free  transition at x/c =  0.3584   34

  75   rms: 0.9110E+01   max: -.1874E+03   C at   34  2   RLX: 0.003
       a =  1.750      CL =  0.2216
      Cm =  0.0070     CD =  0.00776   =>   CDf =  0.00636    CDp =  0.00140

 Side 1  free  transition at x/c =  0.6214   54
 Side 2  free  transition at x/c =  0.3718   35

  76   rms: 0.8901E+01   max: -.1835E+03   C at   35  2   RLX: 0.003
       a =  1.750      CL =  0.2216
      Cm =  0.0070     CD =  0.00772   =>   CDf =  0.00632    CDp =  0.00140

 Side 1  free  transition at x/c =  0.6213   54
 Side 2  free  transition at x/c =  0.3860   36

  77   rms: 0.9028E+01   max: -.1863E+03   C at   36  2   RLX: 0.003
       a =  1.750      CL =  0.2216
      Cm =  0.0070     CD =  0.00768   =>   CDf =  0.00628    CDp =  0.00140

 Side 1  free  transition at x/c =  0.6213   54
 Side 2  free  transition at x/c =  0.4004   37

  78   rms: 0.9055E+01   max: -.1864E+03   C at   37  2   RLX: 0.003
       a =  1.750      CL =  0.2216
      Cm =  0.0070     CD =  0.00764   =>   CDf =  0.00625    CDp =  0.00140

 Side 1  free  transition at x/c =  0.6213   54
 Side 2  free  transition at x/c =  0.4148   38

  79   rms: 0.8813E+01   max: -.1807E+03   C at   38  2   RLX: 0.003
       a =  1.750      CL =  0.2216
      Cm =  0.0070     CD =  0.00760   =>   CDf =  0.00621    CDp =  0.00139

 Side 1  free  transition at x/c =  0.6213   54
 Side 2  free  transition at x/c =  0.4289   39

  80   rms: 0.8712E+01   max: -.1781E+03   C at   39  2   RLX: 0.003
       a =  1.750      CL =  0.2216
      Cm =  0.0070     CD =  0.00756   =>   CDf =  0.00617    CDp =  0.00139

 Side 1  free  transition at x/c =  0.6213   54
 Side 2  free  transition at x/c =  0.4428   40

  81   rms: 0.8668E+01   max: -.1767E+03   C at   40  2   RLX: 0.003
       a =  1.750      CL =  0.2216
      Cm =  0.0070     CD =  0.00752   =>   CDf =  0.00613    CDp =  0.00139

 Side 1  free  transition at x/c =  0.6213   54
 Side 2  free  transition at x/c =  0.4566   41

  82   rms: 0.8419E+01   max: -.1708E+03   C at   41  2   RLX: 0.003
       a =  1.750      CL =  0.2216
      Cm =  0.0070     CD =  0.00747   =>   CDf =  0.00609    CDp =  0.00138

 Side 1  free  transition at x/c =  0.6213   54
 Side 2  free  transition at x/c =  0.4704   42

  83   rms: 0.8179E+01   max: -.1655E+03   C at   42  2   RLX: 0.003
       a =  1.750      CL =  0.2216
      Cm =  0.0070     CD =  0.00743   =>   CDf =  0.00605    CDp =  0.00138

 Side 1  free  transition at x/c =  0.6213   54
 Side 2  free  transition at x/c =  0.4841   43

  84   rms: 0.7973E+01   max: -.1610E+03   C at   43  2   RLX: 0.003
       a =  1.750      CL =  0.2216
      Cm =  0.0070     CD =  0.00739   =>   CDf =  0.00601    CDp =  0.00138

 Side 1  free  transition at x/c =  0.6213   54
 Side 2  free  transition at x/c =  0.4979   44

  85   rms: 0.7796E+01   max: -.1571E+03   C at   44  2   RLX: 0.003
       a =  1.750      CL =  0.2216
      Cm =  0.0070     CD =  0.00734   =>   CDf =  0.00597    CDp =  0.00137

 MRCHDU: Convergence failed at  44  side 2    Res =  0.1461E-03
 Side 1  free  transition at x/c =  0.6212   54
 Side 2  free  transition at x/c =  0.5119   44

  86   rms: 0.1035E+02   max: -.1880E+03   C at   44  2   RLX: 0.003
       a =  1.750      CL =  0.2216
      Cm =  0.0069     CD =  0.00731   =>   CDf =  0.00593    CDp =  0.00138

 Side 1  free  transition at x/c =  0.6212   54
 Side 2  free  transition at x/c =  0.5240   45

  87   rms: 0.9717E+01   max: -.1801E+03   C at   45  2   RLX: 0.003
       a =  1.750      CL =  0.2215
      Cm =  0.0069     CD =  0.00727   =>   CDf =  0.00589    CDp =  0.00138

 Side 1  free  transition at x/c =  0.6212   54
 Side 2  free  transition at x/c =  0.5368   46

  88   rms: 0.9306E+01   max: -.1739E+03   C at   46  2   RLX: 0.003
       a =  1.750      CL =  0.2215
      Cm =  0.0069     CD =  0.00722   =>   CDf =  0.00585    CDp =  0.00137

 Side 1  free  transition at x/c =  0.6212   54
 Side 2  free  transition at x/c =  0.5498   47

  89   rms: 0.8956E+01   max: -.1683E+03   C at   47  2   RLX: 0.003
       a =  1.750      CL =  0.2215
      Cm =  0.0069     CD =  0.00718   =>   CDf =  0.00581    CDp =  0.00137

 Side 1  free  transition at x/c =  0.6212   54
 Side 2  free  transition at x/c =  0.5631   48

  90   rms: 0.8430E+01   max: -.1590E+03   C at   48  2   RLX: 0.003
       a =  1.750      CL =  0.2214
      Cm =  0.0069     CD =  0.00713   =>   CDf =  0.00577    CDp =  0.00136

 Side 1  free  transition at x/c =  0.6212   54
 Side 2  free  transition at x/c =  0.5767   49

  91   rms: 0.7728E+01   max: -.1457E+03   C at   49  2   RLX: 0.003
       a =  1.750      CL =  0.2214
      Cm =  0.0070     CD =  0.00709   =>   CDf =  0.00573    CDp =  0.00135

 Side 1  free  transition at x/c =  0.6212   54
 Side 2  free  transition at x/c =  0.5905   50

  92   rms: 0.7242E+01   max: -.1365E+03   C at   50  2   RLX: 0.004
       a =  1.750      CL =  0.2214
      Cm =  0.0070     CD =  0.00704   =>   CDf =  0.00569    CDp =  0.00135

 Side 1  free  transition at x/c =  0.6212   54
 Side 2  free  transition at x/c =  0.6047   51

  93   rms: 0.6911E+01   max: -.1299E+03   C at   51  2   RLX: 0.004
       a =  1.750      CL =  0.2213
      Cm =  0.0070     CD =  0.00699   =>   CDf =  0.00564    CDp =  0.00134

 Side 1  free  transition at x/c =  0.6212   54
 Side 2  free  transition at x/c =  0.6188   52

  94   rms: 0.6897E+01   max: -.1293E+03   C at   52  2   RLX: 0.004
       a =  1.750      CL =  0.2212
      Cm =  0.0070     CD =  0.00694   =>   CDf =  0.00560    CDp =  0.00134

 Side 1  free  transition at x/c =  0.6211   54
 Side 2  free  transition at x/c =  0.6329   53

  95   rms: 0.6784E+01   max: -.1267E+03   C at   53  2   RLX: 0.004
       a =  1.750      CL =  0.2212
      Cm =  0.0070     CD =  0.00689   =>   CDf =  0.00555    CDp =  0.00133

 Side 1  free  transition at x/c =  0.6211   54
 Side 2  free  transition at x/c =  0.6469   54

  96   rms: 0.6376E+01   max: -.1188E+03   C at   54  2   RLX: 0.004
       a =  1.750      CL =  0.2211
      Cm =  0.0070     CD =  0.00683   =>   CDf =  0.00551    CDp =  0.00133

 Side 1  free  transition at x/c =  0.6211   54
 Side 2  free  transition at x/c =  0.6610   55

  97   rms: 0.5863E+01   max: -.1089E+03   C at   55  2   RLX: 0.005
       a =  1.750      CL =  0.2210
      Cm =  0.0070     CD =  0.00678   =>   CDf =  0.00546    CDp =  0.00132

 Side 1  free  transition at x/c =  0.6211   54
 Side 2  free  transition at x/c =  0.6753   56

  98   rms: 0.5541E+01   max: -.1026E+03   C at   56  2   RLX: 0.005
       a =  1.750      CL =  0.2209
      Cm =  0.0071     CD =  0.00673   =>   CDf =  0.00541    CDp =  0.00132

 Side 1  free  transition at x/c =  0.6211   54
 Side 2  free  transition at x/c =  0.6899   57

  99   rms: 0.5333E+01   max: -.9844E+02   C at   57  2   RLX: 0.005
       a =  1.750      CL =  0.2209
      Cm =  0.0071     CD =  0.00667   =>   CDf =  0.00536    CDp =  0.00131

 Side 1  free  transition at x/c =  0.6211   54
 Side 2  free  transition at x/c =  0.7044   58

 100   rms: 0.5191E+01   max: -.9567E+02   C at   58  2   RLX: 0.005
       a =  1.750      CL =  0.2207
      Cm =  0.0071     CD =  0.00662   =>   CDf =  0.00531    CDp =  0.00131

 Side 1  free  transition at x/c =  0.6211   54
 Side 2  free  transition at x/c =  0.7196   59

 101   rms: 0.4969E+01   max: -.9105E+02   C at   59  2   RLX: 0.005
       a =  1.750      CL =  0.2206
      Cm =  0.0072     CD =  0.00656   =>   CDf =  0.00526    CDp =  0.00130

 Side 1  free  transition at x/c =  0.6210   54
 Side 2  free  transition at x/c =  0.7347   60

 102   rms: 0.4650E+01   max: -.8508E+02   C at   60  2   RLX: 0.006
       a =  1.750      CL =  0.2204
      Cm =  0.0072     CD =  0.00651   =>   CDf =  0.00521    CDp =  0.00130

 Side 1  free  transition at x/c =  0.6210   54
 Side 2  free  transition at x/c =  0.7502   61

 103   rms: 0.4174E+01   max: -.7594E+02   C at   61  2   RLX: 0.007
       a =  1.750      CL =  0.2203
      Cm =  0.0073     CD =  0.00645   =>   CDf =  0.00515    CDp =  0.00130

 Side 1  free  transition at x/c =  0.6210   54
 Side 2  free  transition at x/c =  0.7658   62

 104   rms: 0.3765E+01   max: -.6807E+02   C at   62  2   RLX: 0.007
       a =  1.750      CL =  0.2201
      Cm =  0.0074     CD =  0.00639   =>   CDf =  0.00510    CDp =  0.00130

 Side 1  free  transition at x/c =  0.6210   54
 Side 2  free  transition at x/c =  0.7815   63

 105   rms: 0.3451E+01   max: -.6185E+02   C at   63  2   RLX: 0.008
       a =  1.750      CL =  0.2199
      Cm =  0.0075     CD =  0.00633   =>   CDf =  0.00504    CDp =  0.00129

 Side 1  free  transition at x/c =  0.6210   54
 Side 2  free  transition at x/c =  0.7972   64

 106   rms: 0.3174E+01   max: -.5647E+02   C at   64  2   RLX: 0.009
       a =  1.750      CL =  0.2196
      Cm =  0.0076     CD =  0.00628   =>   CDf =  0.00498    CDp =  0.00129

 Side 1  free  transition at x/c =  0.6209   54
 Side 2  free  transition at x/c =  0.8133   66

 107   rms: 0.2224E+01   max: -.4284E+02   C at   66  2   RLX: 0.012
       a =  1.750      CL =  0.2193
      Cm =  0.0078     CD =  0.00621   =>   CDf =  0.00492    CDp =  0.00128

 Side 1  free  transition at x/c =  0.6209   54
 Side 2  free  transition at x/c =  0.8298   67

 108   rms: 0.2017E+01   max: -.3822E+02   C at   67  2   RLX: 0.013
       a =  1.750      CL =  0.2190
      Cm =  0.0080     CD =  0.00615   =>   CDf =  0.00486    CDp =  0.00129

 Side 1  free  transition at x/c =  0.6209   54
 Side 2  free  transition at x/c =  0.8472   68

 109   rms: 0.1865E+01   max: -.3469E+02   C at   68  2   RLX: 0.014
       a =  1.750      CL =  0.2186
      Cm =  0.0082     CD =  0.00609   =>   CDf =  0.00479    CDp =  0.00130

 Side 1  free  transition at x/c =  0.6208   54
[...]
 Side 2 forced transition at x/c =  1.0000   76

 107   rms: 0.1436E+09   max: -.3882E+10   T at   97  2   RLX: 0.000
       a =  9.750      CL =  0.4921
      Cm = -0.0393     CD =*********   =>   CDf =  0.00223    CDp =*********

 MRCHDU: Convergence failed at  92  side 2    Res =  0.2428E-02
 MRCHDU: Convergence failed at  93  side 2    Res =  0.3193E-01
 MRCHDU: Convergence failed at  94  side 2    Res =  0.3979E-02
 Side 1  free  transition at x/c =  0.0179   14
 Side 2 forced transition at x/c =  1.0000   76

 108   rms: 0.5689E+09   max: -.1529E+11   T at   97  2   RLX: 0.000
       a =  9.750      CL =  0.4921
      Cm = -0.0393     CD =*********   =>   CDf =  0.00223    CDp =*********

 MRCHDU: Convergence failed at  92  side 2    Res =  0.2428E-02
 MRCHDU: Convergence failed at  93  side 2    Res =  0.3192E-01
 MRCHDU: Convergence failed at  94  side 2    Res =  0.3977E-02
 Side 1  free  transition at x/c =  0.0179   14
 Side 2 forced transition at x/c =  1.0000   76

 109   rms: 0.8483E+10   max: -.2301E+12   T at   97  2   RLX: 0.000
       a =  9.750      CL =  0.4920
      Cm = -0.0393     CD =*********   =>   CDf =  0.00223    CDp =*********

 MRCHDU: Convergence failed at  92  side 2    Res =  0.2428E-02
 MRCHDU: Convergence failed at  93  side 2    Res =  0.3192E-01
 MRCHDU: Convergence failed at  94  side 2    Res =  0.3977E-02
 Side 1  free  transition at x/c =  0.0179   14
 Side 2 forced transition at x/c =  1.0000   76

 110   rms: 0.8467E+10   max: -.2291E+12   T at   97  2   RLX: 0.000
       a =  9.750      CL =  0.4921
      Cm = -0.0393     CD =*********   =>   CDf =  0.00223    CDp =*********

 MRCHDU: Convergence failed at  92  side 2    Res =  0.2428E-02
 MRCHDU: Convergence failed at  93  side 2    Res =  0.3192E-01
 MRCHDU: Convergence failed at  94  side 2    Res =  0.3977E-02
 Side 1  free  transition at x/c =  0.0179   14
 Side 2 forced transition at x/c =  1.0000   76

 111   rms: 0.3886E+11   max: -.8483E+12   T at   97  2   RLX: 0.000
       a =  9.750      CL =  0.4921
      Cm = -0.0393     CD =*********   =>   CDf =  0.00223    CDp =*********

 MRCHDU: Convergence failed at  92  side 2    Res =  0.2428E-02
 MRCHDU: Convergence failed at  93  side 2    Res =  0.3193E-01
 MRCHDU: Convergence failed at  94  side 2    Res =  0.3978E-02
 Side 1  free  transition at x/c =  0.0179   14
 Side 2 forced transition at x/c =  1.0000   76

 112   rms: 0.2308E+12   max: -.6103E+13   T at   97  2   RLX: 0.000
       a =  9.750      CL =  0.4921
      Cm = -0.0393     CD =*********   =>   CDf =  0.00223    CDp =*********

 MRCHDU: Convergence failed at  92  side 2    Res =  0.2428E-02
 MRCHDU: Convergence failed at  93  side 2    Res =  0.3193E-01
 MRCHDU: Convergence failed at  94  side 2    Res =  0.3979E-02
 MRCHDU: Convergence failed at  97  side 2    Res =         NaN
 MRCHDU: Convergence failed at  98  side 2    Res =  0.1273E+02
 Side 1  free  transition at x/c =  0.0179   14
 Side 2 forced transition at x/c =  1.0000   76

 113   rms: 0.7093E+02   max: -.1200E+04   T at   95  2   RLX: 0.000
       a =  9.750      CL =  0.4918
      Cm = -0.0393     CD =+Infinity   =>   CDf =  0.00223    CDp =+Infinity

 MRCHDU: Convergence failed at  92  side 2    Res =  0.1639E-02
 MRCHDU: Convergence failed at  93  side 2    Res =  0.2304E-01
 MRCHDU: Convergence failed at  94  side 2    Res =  0.1579E-02
 Side 1  free  transition at x/c =  0.0179   14
 Side 2 forced transition at x/c =  1.0000   76

 114   rms: 0.4405E+04   max: 0.9389E+05   T at   98  2   RLX: 0.000
       a =  9.750      CL =  0.4918
      Cm = -0.0393     CD =+Infinity   =>   CDf =  0.00223    CDp =+Infinity

 MRCHDU: Convergence failed at  92  side 2    Res =  0.1595E-02
 MRCHDU: Convergence failed at  93  side 2    Res =  0.2283E-01
 MRCHDU: Convergence failed at  94  side 2    Res =  0.1551E-02
 Side 1  free  transition at x/c =  0.0179   14
 Side 2 forced transition at x/c =  1.0000   76

 115   rms: 0.1209E+05   max: 0.3250E+06   T at   98  2   RLX: 0.000
       a =  9.750      CL =  0.4918
      Cm = -0.0393     CD =+Infinity   =>   CDf =  0.00223    CDp =+Infinity

 MRCHDU: Convergence failed at  92  side 2    Res =  0.1575E-02
 MRCHDU: Convergence failed at  93  side 2    Res =  0.2273E-01
 MRCHDU: Convergence failed at  94  side 2    Res =  0.1538E-02
 Side 1  free  transition at x/c =  0.0179   14
 Side 2 forced transition at x/c =  1.0000   76

 116   rms: 0.1821E+05   max: -.4939E+06   T at   98  2   RLX: 0.000
       a =  9.750      CL =  0.4918
      Cm = -0.0393     CD =+Infinity   =>   CDf =  0.00223    CDp =+Infinity

 MRCHDU: Convergence failed at  92  side 2    Res =  0.1576E-02
 MRCHDU: Convergence failed at  93  side 2    Res =  0.2274E-01
 MRCHDU: Convergence failed at  94  side 2    Res =  0.1538E-02
 Side 1  free  transition at x/c =  0.0179   14
 Side 2 forced transition at x/c =  1.0000   76

 117   rms: 0.1737E+05   max: -.4703E+06   T at   98  2   RLX: 0.000
       a =  9.750      CL =  0.4918
      Cm = -0.0393     CD =+Infinity   =>   CDf =  0.00223    CDp =+Infinity

 MRCHDU: Convergence failed at  92  side 2    Res =  0.1569E-02
 MRCHDU: Convergence failed at  93  side 2    Res =  0.2271E-01
 MRCHDU: Convergence failed at  94  side 2    Res =  0.1534E-02
 Side 1  free  transition at x/c =  0.0179   14
 Side 2 forced transition at x/c =  1.0000   76

 118   rms: 0.6516E+04   max: -.1747E+06   T at   98  2   RLX: 0.000
       a =  9.750      CL =  0.4918
      Cm = -0.0393     CD =+Infinity   =>   CDf =  0.00223    CDp =+Infinity

 MRCHDU: Convergence failed at  92  side 2    Res =  0.1565E-02
 MRCHDU: Convergence failed at  93  side 2    Res =  0.2269E-01
 MRCHDU: Convergence failed at  94  side 2    Res =  0.1532E-02
 Side 1  free  transition at x/c =  0.0179   14
 Side 2 forced transition at x/c =  1.0000   76

 119   rms: 0.5279E+03   max: -.1329E+05   T at   98  2   RLX: 0.000
       a =  9.750      CL =  0.4918
      Cm = -0.0393     CD =+Infinity   =>   CDf =  0.00223    CDp =+Infinity

 MRCHDU: Convergence failed at  92  side 2    Res =  0.1619E-02
 MRCHDU: Convergence failed at  93  side 2    Res =  0.2296E-01
 MRCHDU: Convergence failed at  94  side 2    Res =  0.1568E-02
 Side 1  free  transition at x/c =  0.0179   14
 Side 2 forced transition at x/c =  1.0000   76

 120   rms: 0.7729E+03   max: 0.1805E+05   T at   97  2   RLX: 0.000
       a =  9.750      CL =  0.4918
      Cm = -0.0393     CD =+Infinity   =>   CDf =  0.00223    CDp =+Infinity

 MRCHDU: Convergence failed at  92  side 2    Res =  0.1617E-02
 MRCHDU: Convergence failed at  93  side 2    Res =  0.2298E-01
 MRCHDU: Convergence failed at  94  side 2    Res =  0.1571E-02
 Side 1  free  transition at x/c =  0.0179   14
 Side 2 forced transition at x/c =  1.0000   76

 121   rms: 0.3541E+04   max: 0.9552E+05   T at   97  2   RLX: 0.000
       a =  9.750      CL =  0.4918
      Cm = -0.0393     CD =+Infinity   =>   CDf =  0.00223    CDp =+Infinity

 MRCHDU: Convergence failed at  92  side 2    Res =  0.1777E-02
 MRCHDU: Convergence failed at  93  side 2    Res =  0.2379E-01
 MRCHDU: Convergence failed at  94  side 2    Res =  0.1680E-02
 Side 1  free  transition at x/c =  0.0179   14
 Side 2 forced transition at x/c =  1.0000   76

 122   rms: 0.9033E+04   max: 0.2450E+06   T at   97  2   RLX: 0.000
       a =  9.750      CL =  0.4918
      Cm = -0.0393     CD =+Infinity   =>   CDf =  0.00223    CDp =+Infinity

 MRCHDU: Convergence failed at  92  side 2    Res =  0.1836E-02
 MRCHDU: Convergence failed at  93  side 2    Res =  0.2411E-01
 MRCHDU: Convergence failed at  94  side 2    Res =  0.1724E-02
 Side 1  free  transition at x/c =  0.0179   14
 Side 2 forced transition at x/c =  1.0000   76

 123   rms: 0.3220E+04   max: -.8729E+05   T at   97  2   RLX: 0.000
       a =  9.750      CL =  0.4918
      Cm = -0.0392     CD =+Infinity   =>   CDf =  0.00223    CDp =+Infinity

 MRCHDU: Convergence failed at  92  side 2    Res =  0.1786E-02
 MRCHDU: Convergence failed at  93  side 2    Res =  0.2384E-01
 MRCHDU: Convergence failed at  94  side 2    Res =  0.1685E-02
 Side 1  free  transition at x/c =  0.0179   14
 Side 2 forced transition at x/c =  1.0000   76

 124   rms: 0.4299E+04   max: 0.1166E+06   T at   97  2   RLX: 0.000
       a =  9.750      CL =  0.4918
      Cm = -0.0392     CD =+Infinity   =>   CDf =  0.00223    CDp =+Infinity

 MRCHDU: Convergence failed at  92  side 2    Res =  0.1758E-02
 MRCHDU: Convergence failed at  93  side 2    Res =  0.2371E-01
 MRCHDU: Convergence failed at  94  side 2    Res =  0.1667E-02
 Side 1  free  transition at x/c =  0.0179   14
 Side 2 forced transition at x/c =  1.0000   76

 125   rms: 0.8121E+03   max: 0.2160E+05   T at   97  2   RLX: 0.000
       a =  9.750      CL =  0.4918
      Cm = -0.0392     CD =+Infinity   =>   CDf =  0.00223    CDp =+Infinity

 MRCHDU: Convergence failed at  92  side 2    Res =  0.2137E-02
 MRCHDU: Convergence failed at  93  side 2    Res =  0.2589E-01
 MRCHDU: Convergence failed at  94  side 2    Res =  0.1966E-02
 Side 1  free  transition at x/c =  0.0179   14
 Side 2 forced transition at x/c =  1.0000   76

 126   rms: 0.2808E+05   max: -.7617E+06   T at   97  2   RLX: 0.000
       a =  9.750      CL =  0.4918
      Cm = -0.0392     CD =+Infinity   =>   CDf =  0.00223    CDp =+Infinity

 MRCHDU: Convergence failed at  92  side 2    Res =  0.2136E-02
 MRCHDU: Convergence failed at  93  side 2    Res =  0.2588E-01
 MRCHDU: Convergence failed at  94  side 2    Res =  0.1965E-02
 Side 1  free  transition at x/c =  0.0179   14
 Side 2 forced transition at x/c =  1.0000   76

 127   rms: 0.1914E+05   max: 0.5192E+06   T at   97  2   RLX: 0.000
       a =  9.750      CL =  0.4918
      Cm = -0.0392     CD =+Infinity   =>   CDf =  0.00223    CDp =+Infinity

 MRCHDU: Convergence failed at  92  side 2    Res =  0.2133E-02
 MRCHDU: Convergence failed at  93  side 2    Res =  0.2586E-01
 MRCHDU: Convergence failed at  94  side 2    Res =  0.1962E-02
 Side 1  free  transition at x/c =  0.0179   14
 Side 2 forced transition at x/c =  1.0000   76

 128   rms: 0.2489E+05   max: 0.6753E+06   T at   97  2   RLX: 0.000
       a =  9.750      CL =  0.4918
      Cm = -0.0392     CD =+Infinity   =>   CDf =  0.00223    CDp =+Infinity

 MRCHDU: Convergence failed at  92  side 2    Res =  0.2128E-02
 MRCHDU: Convergence failed at  93  side 2    Res =  0.2583E-01
 MRCHDU: Convergence failed at  94  side 2    Res =  0.1958E-02
 Side 1  free  transition at x/c =  0.0179   14
 Side 2 forced transition at x/c =  1.0000   76

 129   rms: 0.4947E+04   max: -.1342E+06   T at   97  2   RLX: 0.000
       a =  9.750      CL =  0.4918
      Cm = -0.0392     CD =+Infinity   =>   CDf =  0.00223    CDp =+Infinity

 MRCHDU: Convergence failed at  92  side 2    Res =  0.2126E-02
 MRCHDU: Convergence failed at  93  side 2    Res =  0.2582E-01
 MRCHDU: Convergence failed at  94  side 2    Res =  0.1956E-02
 Side 1  free  transition at x/c =  0.0179   14
 Side 2 forced transition at x/c =  1.0000   76

 130   rms: 0.2369E+05   max: 0.6428E+06   T at   97  2   RLX: 0.000
       a =  9.750      CL =  0.4918
      Cm = -0.0392     CD =+Infinity   =>   CDf =  0.00223    CDp =+Infinity

 MRCHDU: Convergence failed at  92  side 2    Res =  0.2133E-02
 MRCHDU: Convergence failed at  93  side 2    Res =  0.2587E-01
 MRCHDU: Convergence failed at  94  side 2    Res =  0.1963E-02
 Side 1  free  transition at x/c =  0.0179   14
 Side 2 forced transition at x/c =  1.0000   76

 131   rms: 0.3029E+05   max: -.8217E+06   T at   97  2   RLX: 0.000
       a =  9.750      CL =  0.4918
      Cm = -0.0392     CD =+Infinity   =>   CDf =  0.00223    CDp =+Infinity

 MRCHDU: Convergence failed at  92  side 2    Res =  0.2129E-02
 MRCHDU: Convergence failed at  93  side 2    Res =  0.2584E-01
 MRCHDU: Convergence failed at  94  side 2    Res =  0.1959E-02
 Side 1  free  transition at x/c =  0.0179   14
 Side 2 forced transition at x/c =  1.0000   76

 132   rms: 0.1269E+05   max: 0.3442E+06   T at   97  2   RLX: 0.000
       a =  9.750      CL =  0.4918
      Cm = -0.0392     CD =+Infinity   =>   CDf =  0.00223    CDp =+Infinity

 MRCHDU: Convergence failed at  92  side 2    Res =  0.2115E-02
 MRCHDU: Convergence failed at  93  side 2    Res =  0.2575E-01
 MRCHDU: Convergence failed at  94  side 2    Res =  0.1945E-02
 Side 1  free  transition at x/c =  0.0179   14
 Side 2 forced transition at x/c =  1.0000   76

 133   rms: 0.3729E+04   max: 0.1011E+06   T at   97  2   RLX: 0.000
       a =  9.750      CL =  0.4918
      Cm = -0.0392     CD =+Infinity   =>   CDf =  0.00223    CDp =+Infinity

 MRCHDU: Convergence failed at  92  side 2    Res =  0.2195E-02
 MRCHDU: Convergence failed at  93  side 2    Res =  0.2630E-01
 MRCHDU: Convergence failed at  94  side 2    Res =  0.2029E-02
 Side 1  free  transition at x/c =  0.0179   14
 Side 2 forced transition at x/c =  1.0000   76

 134   rms: 0.5785E+03   max: 0.1509E+05   T at   97  2   RLX: 0.000
       a =  9.750      CL =  0.4917
      Cm = -0.0392     CD =+Infinity   =>   CDf =  0.00223    CDp =+Infinity

 MRCHDU: Convergence failed at  92  side 2    Res =  0.1350E-02
 MRCHDU: Convergence failed at  93  side 2    Res =  0.2108E-01
 MRCHDU: Convergence failed at  94  side 2    Res =  0.1188E-02
 Side 1  free  transition at x/c =  0.0179   14
 Side 2 forced transition at x/c =  1.0000   76

 135   rms: 0.2271E+03   max: 0.5968E+04   T at   97  2   RLX: 0.000
       a =  9.750      CL =  0.4917
      Cm = -0.0392     CD =+Infinity   =>   CDf =  0.00223    CDp =+Infinity

 MRCHDU: Convergence failed at  92  side 2    Res =  0.3544E-03
 MRCHDU: Convergence failed at  93  side 2    Res =  0.1759E-01
 MRCHDU: Convergence failed at  94  side 2    Res =  0.7822E-03
 Side 1  free  transition at x/c =  0.0179   14
 Side 2 forced transition at x/c =  1.0000   76

 136   rms: 0.3213E+03   max: 0.8533E+04   T at   97  2   RLX: 0.000
       a =  9.750      CL =  0.4916
      Cm = -0.0392     CD =+Infinity   =>   CDf =  0.00223    CDp =+Infinity

 MRCHDU: Convergence failed at  92  side 2    Res =  0.9703E-03
 MRCHDU: Convergence failed at  93  side 2    Res =  0.1943E-01
 MRCHDU: Convergence failed at  94  side 2    Res =  0.9449E-03
 Side 1  free  transition at x/c =  0.0179   14
 Side 2 forced transition at x/c =  1.0000   76

 137   rms: 0.3448E+03   max: 0.8605E+04   T at   97  2   RLX: 0.000
       a =  9.750      CL =  0.4916
      Cm = -0.0392     CD =+Infinity   =>   CDf =  0.00223    CDp =+Infinity

 MRCHDU: Convergence failed at  93  side 2    Res =  0.1446E-01
 MRCHDU: Convergence failed at  94  side 2    Res =  0.5322E-03
 Side 1  free  transition at x/c =  0.0179   14
 Side 2 forced transition at x/c =  1.0000   76

 138   rms: 0.3654E+03   max: 0.9128E+04   T at   97  2   RLX: 0.000
       a =  9.750      CL =  0.4916
      Cm = -0.0392     CD =+Infinity   =>   CDf =  0.00223    CDp =+Infinity

 MRCHDU: Convergence failed at  93  side 2    Res =  0.1301E-01
 MRCHDU: Convergence failed at  94  side 2    Res =  0.4836E-03
 Side 1  free  transition at x/c =  0.0179   14
 Side 2 forced transition at x/c =  1.0000   76

 139   rms: 0.6346E+03   max: -.1319E+05   T at   98  2   RLX: 0.000
       a =  9.750      CL =  0.4916
      Cm = -0.0392     CD =+Infinity   =>   CDf =  0.00223    CDp =+Infinity

 MRCHDU: Convergence failed at  93  side 2    Res =  0.1290E-01
 MRCHDU: Convergence failed at  94  side 2    Res =  0.4799E-03
 Side 1  free  transition at x/c =  0.0179   14
 Side 2 forced transition at x/c =  1.0000   76

 140   rms: 0.4211E+03   max: -.1062E+05   T at   97  2   RLX: 0.000
       a =  9.750      CL =  0.4916
      Cm = -0.0392     CD =+Infinity   =>   CDf =  0.00223    CDp =+Infinity

 MRCHDU: Convergence failed at  93  side 2    Res =  0.1049E-01
 MRCHDU: Convergence failed at  94  side 2    Res =  0.3969E-03
 Side 1  free  transition at x/c =  0.0179   14
 Side 2 forced transition at x/c =  1.0000   76

 141   rms: 0.9408E+03   max: -.2482E+05   T at   97  2   RLX: 0.000
       a =  9.750      CL =  0.4916
      Cm = -0.0392     CD =+Infinity   =>   CDf =  0.00223    CDp =+Infinity

 MRCHDU: Convergence failed at  93  side 2    Res =  0.1043E-01
 MRCHDU: Convergence failed at  94  side 2    Res =  0.3983E-03
 Side 1  free  transition at x/c =  0.0179   14
 Side 2 forced transition at x/c =  1.0000   76

 142   rms: 0.9092E+03   max: 0.2449E+05   T at   97  2   RLX: 0.000
       a =  9.750      CL =  0.4916
      Cm = -0.0392     CD =+Infinity   =>   CDf =  0.00223    CDp =+Infinity

 MRCHDU: Convergence failed at  93  side 2    Res =  0.8027E-02
 MRCHDU: Convergence failed at  94  side 2    Res =  0.3210E-03
 Side 1  free  transition at x/c =  0.0179   14
 Side 2 forced transition at x/c =  1.0000   76

 143   rms: 0.9928E+03   max: -.2594E+05   T at   97  2   RLX: 0.000
       a =  9.750      CL =  0.4916
      Cm = -0.0392     CD =+Infinity   =>   CDf =  0.00223    CDp =+Infinity

 MRCHDU: Convergence failed at  93  side 2    Res =  0.8470E-02
 MRCHDU: Convergence failed at  94  side 2    Res =  0.3335E-03
 Side 1  free  transition at x/c =  0.0179   14
 Side 2 forced transition at x/c =  1.0000   76

 144   rms: 0.8769E+02   max: -.2027E+04   T at   98  2   RLX: 0.000
       a =  9.750      CL =  0.4915
      Cm = -0.0391     CD =+Infinity   =>   CDf =  0.00223    CDp =+Infinity

 MRCHDU: Convergence failed at  93  side 2    Res =  0.1441E-01
 MRCHDU: Convergence failed at  94  side 2    Res =  0.4944E-03
 Side 1  free  transition at x/c =  0.0179   14
 Side 2 forced transition at x/c =  1.0000   76

 145   rms: 0.1715E+04   max: -.4444E+05   T at   97  2   RLX: 0.000
       a =  9.750      CL =  0.4915
      Cm = -0.0391     CD =+Infinity   =>   CDf =  0.00223    CDp =+Infinity

 MRCHDU: Convergence failed at  93  side 2    Res =  0.1372E-01
 MRCHDU: Convergence failed at  94  side 2    Res =  0.4704E-03
 Side 1  free  transition at x/c =  0.0179   14
 Side 2 forced transition at x/c =  1.0000   76

 146   rms: 0.3908E+04   max: 0.1047E+06   T at   97  2   RLX: 0.000
       a =  9.750      CL =  0.4915
      Cm = -0.0391     CD =+Infinity   =>   CDf =  0.00223    CDp =+Infinity

 MRCHDU: Convergence failed at  93  side 2    Res =  0.1235E-01
 MRCHDU: Convergence failed at  94  side 2    Res =  0.4237E-03
 Side 1  free  transition at x/c =  0.0179   14
 Side 2 forced transition at x/c =  1.0000   76

 147   rms: 0.1558E+04   max: 0.4118E+05   T at   97  2   RLX: 0.000
       a =  9.750      CL =  0.4915
      Cm = -0.0391     CD =+Infinity   =>   CDf =  0.00223    CDp =+Infinity

 MRCHDU: Convergence failed at  93  side 2    Res =  0.1150E-01
 MRCHDU: Convergence failed at  94  side 2    Res =  0.4088E-03
 Side 1  free  transition at x/c =  0.0179   14
 Side 2 forced transition at x/c =  1.0000   76

 148   rms: 0.4349E+03   max: 0.1028E+05   T at   97  2   RLX: 0.000
       a =  9.750      CL =  0.4916
      Cm = -0.0391     CD =+Infinity   =>   CDf =  0.00223    CDp =+Infinity

 MRCHDU: Convergence failed at  93  side 2    Res =  0.6858E-02
 MRCHDU: Convergence failed at  94  side 2    Res =  0.2195E-03
 Side 1  free  transition at x/c =  0.0179   14
 Side 2 forced transition at x/c =  1.0000   76

 149   rms: 0.2139E+04   max: -.5326E+05   T at   98  2   RLX: 0.000
       a =  9.750      CL =  0.4915
      Cm = -0.0391     CD =+Infinity   =>   CDf =  0.00223    CDp =+Infinity

 MRCHDU: Convergence failed at  93  side 2    Res =  0.7894E-02
 MRCHDU: Convergence failed at  94  side 2    Res =  0.2403E-03
 Side 1  free  transition at x/c =  0.0179   14
 Side 2 forced transition at x/c =  1.0000   76

 150   rms: 0.1557E+04   max: -.4035E+05   T at   97  2   RLX: 0.000
       a =  9.750      CL =  0.4915
      Cm = -0.0391     CD =+Infinity   =>   CDf =  0.00223    CDp =+Infinity

 MRCHDU: Convergence failed at  93  side 2    Res =  0.9102E-02
 MRCHDU: Convergence failed at  94  side 2    Res =  0.2656E-03

[TIMEOUT]
