
 ===================================================
  XFOIL Version 6.99
  Copyright (C) 2000   Mark Drela, Harold Youngren

  This software comes with ABSOLUTELY NO WARRANTY,
    subject to the GNU General Public License.

  Caveat computor
 ===================================================

 File  xfoil.def  not found

   QUIT    Exit program

  .OPER    Direct operating point(s)
  .MDES    Complex mapping design routine
  .QDES    Surface speed design routine
  .GDES    Geometry design routine

   SAVE f  Write airfoil to labeled coordinate file
   PSAV f  Write airfoil to plain coordinate file
   ISAV f  Write airfoil to ISES coordinate file
   MSAV f  Write airfoil to MSES coordinate file
   REVE    Reverse written-airfoil node ordering

   LOAD f  Read buffer airfoil from coordinate file
   NACA i  Set NACA 4,5-digit airfoil and buffer airfoil
   INTE    Set buffer airfoil by interpolating two airfoils
   NORM    Buffer airfoil normalization toggle
   XYCM rr Change CM reference location, currently  0.25000 0.00000

   BEND    Display structural properties of current airfoil

   PCOP    Set current-airfoil panel nodes directly from buffer airfoil points
   PANE    Set current-airfoil panel nodes ( 160 ) based on curvature
  .PPAR    Show/change paneling

  .PLOP    Plotting options

   WDEF f  Write  current-settings file
   RDEF f  Reread current-settings file
   NAME s  Specify new airfoil name
   NINC    Increment name version number

   Z       Zoom    | (available in all menus)
   U       Unzoom  | 

 XFOIL   c>  
 Labeled airfoil file.  Name:  NACA M6 AIRFOIL                                 

 Number of input coordinate points:  33
 Counterclockwise ordering
 Max thickness =     0.120101  at x =   0.300
 Max camber    =     0.021896  at x =   0.300

  LE  x,y  =  -0.00001   0.00036  |   Chord =   1.00001
  TE  x,y  =   1.00000   0.00000  |

 Current airfoil nodes set from buffer airfoil nodes (  33 )

 WARNING: Poor input coordinate distribution
          Excessive panel angle   67.8  at i =  17
          Repaneling with PANE and/or PPAR suggested
           (doing GDES,CADD before repaneling _may_
            improve excessively coarse LE spacing

 XFOIL   c>  
 XFOIL   c>  
 Blunt trailing edge.  Gap =  0.00520

 Paneling parameters used...
   Number of panel nodes       160
   Panel bunching parameter    1.000
   TE/LE panel density ratio   0.150
   Refined-area/LE panel density ratio    0.200
   Top    side refined area x/c limits  1.000 1.000
   Bottom side refined area x/c limits  1.000 1.000

 XFOIL   c>  
.OPERi   c>  
 Xtr/c     =  1.0000    top    side
 Xtr/c     =  1.0000    bottom side
 Ncrit     =    9.00   ( 0.070 % turb. level )
 Vacc      =  0.0100

 Klag  =  5.6000     Uxwt  =    1.00
 A     =  6.7000     B     =  0.7500       KCt = 0.01485
 CtiniK=  1.8000     CtiniX=  3.3000

..VPAR   c>  
..VPAR   c>  
.OPERi   c>  
 M  =    0.0000
 Re =    600000

.OPERv   c>  
.OPERv   c>  
.OPERv   c>  
 Polar  1 newly created for accumulation
 Airfoil archived with polar: NACA M6 AIRFOIL                                 

Enter  polar save filename  OR  <return> for no file   s>  
 New polar save file available

Enter  polar dump filename  OR  <return> for no file   s>  
 Polar dump file will NOT be written

 Polar accumulation enabled

.OPERva   c>   Calculating unit vorticity distributions ...
 Calculating wake trajectory ...
 Calculating source influence matrix ...

 Solving BL system ...

 Initializing BL ...
    side            1  ...
 MRCHUE: Inverse mode at  46     Hk =   4.153
 MRCHUE: Inverse mode at  47     Hk =   4.916
 MRCHUE: Inverse mode at  48     Hk =   5.663
 MRCHUE: Inverse mode at  49     Hk =   6.400
 MRCHUE: Inverse mode at  50     Hk =   7.129
 MRCHUE: Inverse mode at  51     Hk =   7.852
 MRCHUE: Inverse mode at  52     Hk =   8.570
 MRCHUE: Inverse mode at  53     Hk =   6.716
 MRCHUE: Inverse mode at  54     Hk =   4.216
 MRCHUE: Inverse mode at  55     Hk =   2.650
    side            2  ...
 MRCHUE: Inverse mode at  21     Hk =   3.889
 MRCHUE: Inverse mode at  22     Hk =   5.140
 MRCHUE: Convergence failed at  23  side 2    Res =  0.9507E+02
 MRCHUE: Inverse mode at  24     Hk =   6.593
 MRCHUE: Inverse mode at  25     Hk =   8.117
 MRCHUE: Inverse mode at  26     Hk =   6.726
 MRCHUE: Inverse mode at  27     Hk =   2.500
 MRCHUE: Inverse mode at  87     Hk =   2.500
 MRCHUE: Inverse mode at  88     Hk =   2.500

 Side 1  free  transition at x/c =  0.6737   53
 Side 2  free  transition at x/c =  0.0438   26

   1   rms: 0.2328E+00   max: 0.1678E+01   T at   26  2   RLX: 0.347
       a = -4.000      CL = -0.4099
      Cm =  0.0051     CD =  0.01034   =>   CDf =  0.00746    CDp =  0.00287

 Side 1  free  transition at x/c =  0.6855   54
 Side 2  free  transition at x/c =  0.0401   26

   2   rms: 0.1445E+00   max: -.1198E+01   T at   54  1   RLX: 0.417
       a = -4.000      CL = -0.3827
      Cm =  0.0019     CD =  0.01099   =>   CDf =  0.00749    CDp =  0.00349

 Side 1  free  transition at x/c =  0.6971   54
 Side 2  free  transition at x/c =  0.0389   26

   3   rms: 0.9598E-01   max: -.8331E+00   T at   54  1   RLX: 0.600
       a = -4.000      CL = -0.3584
      Cm = -0.0011     CD =  0.01244   =>   CDf =  0.00755    CDp =  0.00490

 Side 1  free  transition at x/c =  0.7225   56
 Side 2  free  transition at x/c =  0.0384   26

   4   rms: 0.5387E-01   max: -.5522E+00   C at   56  1   RLX: 0.905
       a = -4.000      CL = -0.3381
      Cm = -0.0044     CD =  0.01229   =>   CDf =  0.00739    CDp =  0.00490

 Side 1  free  transition at x/c =  0.7368   58
 Side 2  free  transition at x/c =  0.0383   25

   5   rms: 0.1572E-01   max: -.2172E+00   C at   58  1
       a = -4.000      CL = -0.3369
      Cm = -0.0045     CD =  0.01246   =>   CDf =  0.00721    CDp =  0.00525

 Side 1  free  transition at x/c =  0.7436   58
 Side 2  free  transition at x/c =  0.0383   25

   6   rms: 0.2791E-02   max: -.4371E-01   C at   58  1
       a = -4.000      CL = -0.3370
      Cm = -0.0045     CD =  0.01248   =>   CDf =  0.00715    CDp =  0.00534

 Side 1  free  transition at x/c =  0.7438   58
 Side 2  free  transition at x/c =  0.0383   25

   7   rms: 0.4187E-04   max: 0.6183E-03   C at   58  1
       a = -4.000      CL = -0.3370
      Cm = -0.0045     CD =  0.01248   =>   CDf =  0.00714    CDp =  0.00535
 plradd ia,ip,cpol            1           0  1.09758573E-02

 Point added to stored polar  1
 Point written to save file  m6_Re600k.base.pol                              
 Dump file unspecified or not available
 Calculating wake trajectory ...
 Calculating source influence matrix ...

 Solving BL system ...

 Side 1  free  transition at x/c =  0.7438   58
 Side 2  free  transition at x/c =  0.0383   25

   1   rms: 0.9485E-01   max: -.2320E+00   T at   25  2
       a = -3.500      CL = -0.2848
      Cm = -0.0037     CD =  0.01151   =>   CDf =  0.00714    CDp =  0.00438

 Side 1  free  transition at x/c =  0.7223   57
 Side 2  free  transition at x/c =  0.0396   25

   2   rms: 0.1148E-01   max: -.1723E+00   D at   57  1
       a = -3.500      CL = -0.2845
      Cm = -0.0038     CD =  0.01172   =>   CDf =  0.00726    CDp =  0.00446

 Side 1  free  transition at x/c =  0.7245   57
 Side 2  free  transition at x/c =  0.0395   25

   3   rms: 0.1669E-02   max: 0.2897E-01   C at   57  1
       a = -3.500      CL = -0.2844
      Cm = -0.0038     CD =  0.01173   =>   CDf =  0.00723    CDp =  0.00450

 Side 1  free  transition at x/c =  0.7238   57
 Side 2  free  transition at x/c =  0.0395   25

   4   rms: 0.1835E-04   max: -.2807E-03   D at   59  1
       a = -3.500      CL = -0.2844
      Cm = -0.0038     CD =  0.01173   =>   CDf =  0.00723    CDp =  0.00449
 plradd ia,ip,cpol            2           0  1.09758573E-02

 Point added to stored polar  1
 Point written to save file  m6_Re600k.base.pol                              
 Dump file unspecified or not available
 Calculating wake trajectory ...
 Calculating source influence matrix ...

 Solving BL system ...

 Side 1  free  transition at x/c =  0.7238   57
 Side 2  free  transition at x/c =  0.0395   25

   1   rms: 0.8939E-01   max: -.2098E+00   T at   25  2
       a = -3.000      CL = -0.2312
      Cm = -0.0032     CD =  0.01110   =>   CDf =  0.00733    CDp =  0.00378

 Side 1  free  transition at x/c =  0.7052   57
 Side 2  free  transition at x/c =  0.0410   24

   2   rms: 0.1232E-01   max: -.1830E+00   D at   57  1
       a = -3.000      CL = -0.2308
      Cm = -0.0032     CD =  0.01116   =>   CDf =  0.00734    CDp =  0.00382

 Side 1  free  transition at x/c =  0.7060   57
 Side 2  free  transition at x/c =  0.0409   24

   3   rms: 0.1453E-02   max: 0.2297E-01   C at   57  1
       a = -3.000      CL = -0.2308
      Cm = -0.0032     CD =  0.01118   =>   CDf =  0.00732    CDp =  0.00386

 Side 1  free  transition at x/c =  0.7054   57
 Side 2  free  transition at x/c =  0.0409   24

   4   rms: 0.1323E-04   max: -.1807E-03   D at   58  1
       a = -3.000      CL = -0.2309
      Cm = -0.0032     CD =  0.01118   =>   CDf =  0.00733    CDp =  0.00385
 plradd ia,ip,cpol            3           0  1.09758573E-02

 Point added to stored polar  1
 Point written to save file  m6_Re600k.base.pol                              
 Dump file unspecified or not available
 Calculating wake trajectory ...
 Calculating source influence matrix ...

 Solving BL system ...

 Side 1  free  transition at x/c =  0.7054   57
 Side 2  free  transition at x/c =  0.0409   24

   1   rms: 0.8833E-01   max: -.1991E+00   T at   24  2
       a = -2.500      CL = -0.1769
      Cm = -0.0027     CD =  0.01070   =>   CDf =  0.00741    CDp =  0.00329

 Side 1  free  transition at x/c =  0.6887   57
 Side 2  free  transition at x/c =  0.0425   23

   2   rms: 0.1278E-01   max: -.1903E+00   D at   57  1
       a = -2.500      CL = -0.1764
      Cm = -0.0028     CD =  0.01073   =>   CDf =  0.00743    CDp =  0.00330

 Side 1  free  transition at x/c =  0.6889   57
 Side 2  free  transition at x/c =  0.0425   23

   3   rms: 0.1434E-02   max: 0.2132E-01   C at   57  1
       a = -2.500      CL = -0.1765
      Cm = -0.0028     CD =  0.01074   =>   CDf =  0.00741    CDp =  0.00333

 Side 1  free  transition at x/c =  0.6884   57
 Side 2  free  transition at x/c =  0.0425   23

   4   rms: 0.1306E-04   max: -.1970E-03   D at   58  1
       a = -2.500      CL = -0.1765
      Cm = -0.0028     CD =  0.01074   =>   CDf =  0.00742    CDp =  0.00333
 plradd ia,ip,cpol            4           0  1.36949783E-02

 Point added to stored polar  1
 Point written to save file  m6_Re600k.base.pol                              
 Dump file unspecified or not available
 Calculating wake trajectory ...
 Calculating source influence matrix ...

 Solving BL system ...

 Side 1  free  transition at x/c =  0.6884   57
 Side 2  free  transition at x/c =  0.0425   23

   1   rms: 0.8781E-01   max: -.2039E+00   T at   23  2
       a = -2.000      CL = -0.1218
      Cm = -0.0024     CD =  0.01037   =>   CDf =  0.00742    CDp =  0.00295

 Side 1  free  transition at x/c =  0.6730   56
 Side 2  free  transition at x/c =  0.0442   23

   2   rms: 0.1834E-01   max: -.1756E+00   D at   56  1
       a = -2.000      CL = -0.1213
      Cm = -0.0025     CD =  0.01039   =>   CDf =  0.00750    CDp =  0.00289

 Side 1  free  transition at x/c =  0.6727   56
 Side 2  free  transition at x/c =  0.0443   24

   3   rms: 0.1474E-01   max: -.1788E+00   D at   23  2
       a = -2.000      CL = -0.1214
      Cm = -0.0025     CD =  0.01039   =>   CDf =  0.00749    CDp =  0.00290

 Side 1  free  transition at x/c =  0.6723   56
 Side 2  free  transition at x/c =  0.0446   24

   4   rms: 0.3947E-03   max: -.5248E-02   D at   24  2
       a = -2.000      CL = -0.1214
      Cm = -0.0025     CD =  0.01039   =>   CDf =  0.00750    CDp =  0.00289

 Side 1  free  transition at x/c =  0.6723   56
 Side 2  free  transition at x/c =  0.0446   24

   5   rms: 0.2414E-05   max: -.2405E-04   D at    4  2
       a = -2.000      CL = -0.1214
      Cm = -0.0025     CD =  0.01039   =>   CDf =  0.00750    CDp =  0.00289
 plradd ia,ip,cpol            5           0  1.36949783E-02

 Point added to stored polar  1
 Point written to save file  m6_Re600k.base.pol                              
 Dump file unspecified or not available
 Calculating wake trajectory ...
 Calculating source influence matrix ...

 Solving BL system ...

 Side 1  free  transition at x/c =  0.6723   56
 Side 2  free  transition at x/c =  0.0446   24

   1   rms: 0.9932E-01   max: -.2971E+00   C at   24  2
       a = -1.500      CL = -0.0673
      Cm = -0.0021     CD =  0.00990   =>   CDf =  0.00756    CDp =  0.00235

 Side 1  free  transition at x/c =  0.6577   56
 Side 2  free  transition at x/c =  0.0544   24

   2   rms: 0.1482E-01   max: -.1555E+00   D at   23  2
       a = -1.500      CL = -0.0663
      Cm = -0.0023     CD =  0.01003   =>   CDf =  0.00752    CDp =  0.00251

 Side 1  free  transition at x/c =  0.6571   56
 Side 2  free  transition at x/c =  0.0525   23

   3   rms: 0.1743E-02   max: 0.3475E-01   C at   23  2
       a = -1.500      CL = -0.0664
      Cm = -0.0023     CD =  0.01004   =>   CDf =  0.00751    CDp =  0.00253

 Side 1  free  transition at x/c =  0.6569   56
 Side 2  free  transition at x/c =  0.0523   23

   4   rms: 0.2060E-04   max: -.4128E-03   C at   23  2
       a = -1.500      CL = -0.0664
      Cm = -0.0023     CD =  0.01004   =>   CDf =  0.00751    CDp =  0.00253
 plradd ia,ip,cpol            6           0  1.36949783E-02

 Point added to stored polar  1
 Point written to save file  m6_Re600k.base.pol                              
 Dump file unspecified or not available
 Calculating wake trajectory ...
 Calculating source influence matrix ...

 Solving BL system ...

 Side 1  free  transition at x/c =  0.6569   56
 Side 2  free  transition at x/c =  0.0523   23

   1   rms: 0.9858E-01   max: -.9639E+00   C at   23  2   RLX: 0.519
       a = -1.000      CL = -0.0376
      Cm = -0.0022     CD =  0.00990   =>   CDf =  0.00755    CDp =  0.00235

 Side 1  free  transition at x/c =  0.6490   56
 Side 2  free  transition at x/c =  0.0602   23

   2   rms: 0.6909E-01   max: -.7009E+00   T at   23  2   RLX: 0.713
       a = -1.000      CL = -0.0183
      Cm = -0.0020     CD =  0.00977   =>   CDf =  0.00752    CDp =  0.00225

 MRCHDU: Convergence failed at  24  side 2    Res =  0.1440E+01
 Side 1  free  transition at x/c =  0.6435   56
 Side 2  free  transition at x/c =  0.1223   28

   3   rms: 0.1037E+00   max: -.1930E+01   C at   28  2   RLX: 0.259
       a = -1.000      CL = -0.0246
      Cm = -0.0030     CD =  0.00954   =>   CDf =  0.00732    CDp =  0.00222

 Side 1  free  transition at x/c =  0.6431   56
 Side 2  free  transition at x/c =  0.1280   28

   4   rms: 0.3921E-01   max: -.3811E+00   C at   28  2
       a = -1.000      CL = -0.0131
      Cm = -0.0018     CD =  0.00945   =>   CDf =  0.00726    CDp =  0.00220

 Side 1  free  transition at x/c =  0.6419   56
 Side 2  free  transition at x/c =  0.1300   29

   5   rms: 0.3643E-01   max: -.5859E+00   D at   28  2   RLX: 0.853
       a = -1.000      CL = -0.0132
      Cm = -0.0018     CD =  0.00944   =>   CDf =  0.00729    CDp =  0.00216

 Side 1  free  transition at x/c =  0.6420   56
 Side 2  free  transition at x/c =  0.1574   30

   6   rms: 0.1556E-01   max: -.3042E+00   C at   30  2
       a = -1.000      CL = -0.0137
      Cm = -0.0017     CD =  0.00937   =>   CDf =  0.00712    CDp =  0.00225

 Side 1  free  transition at x/c =  0.6420   56
 Side 2  free  transition at x/c =  0.1542   30

   7   rms: 0.6769E-03   max: -.1110E-01   D at   30  2
       a = -1.000      CL = -0.0136
      Cm = -0.0018     CD =  0.00939   =>   CDf =  0.00711    CDp =  0.00228

 Side 1  free  transition at x/c =  0.6420   56
 Side 2  free  transition at x/c =  0.1538   30

   8   rms: 0.7159E-05   max: -.1526E-03   C at   30  2
       a = -1.000      CL = -0.0136
      Cm = -0.0018     CD =  0.00939   =>   CDf =  0.00711    CDp =  0.00228
 plradd ia,ip,cpol            7           0  1.36949783E-02

 Point added to stored polar  1
 Point written to save file  m6_Re600k.base.pol                              
 Dump file unspecified or not available
 Calculating wake trajectory ...
 Calculating source influence matrix ...

 Solving BL system ...

 Side 1  free  transition at x/c =  0.6420   56
 Side 2  free  transition at x/c =  0.1538   30

   1   rms: 0.2109E+00   max: -.4206E+01   C at   30  2   RLX: 0.119
       a = -0.500      CL = -0.0073
      Cm = -0.0017     CD =  0.00932   =>   CDf =  0.00711    CDp =  0.00221

 Side 1  free  transition at x/c =  0.6401   56
 Side 2  free  transition at x/c =  0.1620   31

   2   rms: 0.1395E+00   max: -.1635E+01   C at   31  2   RLX: 0.306
       a = -0.500      CL =  0.0074
      Cm = -0.0016     CD =  0.00921   =>   CDf =  0.00711    CDp =  0.00210

 Side 1  free  transition at x/c =  0.6361   56
 Side 2  free  transition at x/c =  0.1919   32

   3   rms: 0.9900E-01   max: -.1893E+01   C at   32  2   RLX: 0.264
       a = -0.500      CL =  0.0164
      Cm = -0.0015     CD =  0.00918   =>   CDf =  0.00702    CDp =  0.00216

 Side 1  free  transition at x/c =  0.6340   56
 Side 2  free  transition at x/c =  0.2227   34

   4   rms: 0.1965E+00   max: -.4420E+01   C at   34  2   RLX: 0.113
       a = -0.500      CL =  0.0182
      Cm = -0.0015     CD =  0.00905   =>   CDf =  0.00692    CDp =  0.00213

 Side 1  free  transition at x/c =  0.6333   55
 Side 2  free  transition at x/c =  0.2318   35

   5   rms: 0.1702E+00   max: -.3737E+01   C at   35  2   RLX: 0.134
       a = -0.500      CL =  0.0210
      Cm = -0.0014     CD =  0.00899   =>   CDf =  0.00689    CDp =  0.00210

 Side 1  free  transition at x/c =  0.6326   55
 Side 2  free  transition at x/c =  0.2434   35

   6   rms: 0.1963E+00   max: -.4356E+01   C at   35  2   RLX: 0.115
       a = -0.500      CL =  0.0231
      Cm = -0.0014     CD =  0.00896   =>   CDf =  0.00684    CDp =  0.00211

 Side 1  free  transition at x/c =  0.6320   55
 Side 2  free  transition at x/c =  0.2540   36

   7   rms: 0.1715E+00   max: -.3836E+01   C at   36  2   RLX: 0.130
       a = -0.500      CL =  0.0250
      Cm = -0.0014     CD =  0.00890   =>   CDf =  0.00680    CDp =  0.00210

 Side 1  free  transition at x/c =  0.6315   55
 Side 2  free  transition at x/c =  0.2664   37

   8   rms: 0.1547E+00   max: -.3449E+01   C at   37  2   RLX: 0.145
       a = -0.500      CL =  0.0267
      Cm = -0.0013     CD =  0.00884   =>   CDf =  0.00675    CDp =  0.00209

 Side 1  free  transition at x/c =  0.6309   56
 Side 2  free  transition at x/c =  0.2783   37

   9   rms: 0.1357E+00   max: -.2806E+01   C at   37  2   RLX: 0.178
       a = -0.500      CL =  0.0286
      Cm = -0.0013     CD =  0.00878   =>   CDf =  0.00671    CDp =  0.00206

 Side 1  free  transition at x/c =  0.6303   56
 Side 2  free  transition at x/c =  0.2909   37

  10   rms: 0.1304E+00   max: -.2862E+01   C at   37  2   RLX: 0.175
       a = -0.500      CL =  0.0302
      Cm = -0.0013     CD =  0.00875   =>   CDf =  0.00667    CDp =  0.00208

 Side 1  free  transition at x/c =  0.6298   56
 Side 2  free  transition at x/c =  0.3036   38

  11   rms: 0.1074E+00   max: -.2364E+01   C at   38  2   RLX: 0.211
       a = -0.500      CL =  0.0316
      Cm = -0.0012     CD =  0.00869   =>   CDf =  0.00662    CDp =  0.00207

 Side 1  free  transition at x/c =  0.6293   56
 Side 2  free  transition at x/c =  0.3167   39

  12   rms: 0.8585E-01   max: -.1891E+01   C at   39  2   RLX: 0.264
       a = -0.500      CL =  0.0329
      Cm = -0.0012     CD =  0.00862   =>   CDf =  0.00657    CDp =  0.00205

 Side 1  free  transition at x/c =  0.6289   56
 Side 2  free  transition at x/c =  0.3291   40

  13   rms: 0.6415E-01   max: -.1394E+01   C at   40  2   RLX: 0.359
       a = -0.500      CL =  0.0342
      Cm = -0.0011     CD =  0.00856   =>   CDf =  0.00653    CDp =  0.00203

 Side 1  free  transition at x/c =  0.6284   56
 Side 2  free  transition at x/c =  0.3417   40

  14   rms: 0.5488E-01   max: -.1173E+01   C at   40  2   RLX: 0.426
       a = -0.500      CL =  0.0352
      Cm = -0.0011     CD =  0.00853   =>   CDf =  0.00649    CDp =  0.00204

 Side 1  free  transition at x/c =  0.6280   56
 Side 2  free  transition at x/c =  0.3542   41

  15   rms: 0.3237E-01   max: -.6978E+00   C at   41  2   RLX: 0.717
       a = -0.500      CL =  0.0359
      Cm = -0.0010     CD =  0.00847   =>   CDf =  0.00644    CDp =  0.00203

 Side 1  free  transition at x/c =  0.6277   56
 Side 2  free  transition at x/c =  0.3676   42

  16   rms: 0.9838E-02   max: -.2129E+00   C at   42  2
       a = -0.500      CL =  0.0361
      Cm = -0.0010     CD =  0.00844   =>   CDf =  0.00639    CDp =  0.00205

 Side 1  free  transition at x/c =  0.6276   56
 Side 2  free  transition at x/c =  0.3729   42

  17   rms: 0.6277E-03   max: -.1338E-01   C at   42  2
       a = -0.500      CL =  0.0361
      Cm = -0.0010     CD =  0.00844   =>   CDf =  0.00638    CDp =  0.00207

 Side 1  free  transition at x/c =  0.6276   56
 Side 2  free  transition at x/c =  0.3733   42

  18   rms: 0.1685E-05   max: -.2533E-04   C at   42  2
       a = -0.500      CL =  0.0361
      Cm = -0.0010     CD =  0.00844   =>   CDf =  0.00637    CDp =  0.00207
 plradd ia,ip,cpol            8           0  1.36949783E-02

 Point added to stored polar  1
 Point written to save file  m6_Re600k.base.pol                              
 Dump file unspecified or not available
 Calculating wake trajectory ...
 Calculating source influence matrix ...

 Solving BL system ...

 Side 1  free  transition at x/c =  0.6276   56
 Side 2  free  transition at x/c =  0.3733   42

   1   rms: 0.8167E+00   max: -.1722E+02   C at   42  2   RLX: 0.029
       a =  0.000      CL =  0.0373
      Cm = -0.0009     CD =  0.00839   =>   CDf =  0.00637    CDp =  0.00202

 Side 1  free  transition at x/c =  0.6271   56
 Side 2  free  transition at x/c =  0.3886   43

   2   rms: 0.9606E+00   max: -.2020E+02   C at   43  2   RLX: 0.025
       a =  0.000      CL =  0.0382
      Cm = -0.0008     CD =  0.00832   =>   CDf =  0.00632    CDp =  0.00200

 Side 1  free  transition at x/c =  0.6268   56
 Side 2  free  transition at x/c =  0.4004   44

   3   rms: 0.7495E+00   max: -.1595E+02   C at   44  2   RLX: 0.031
       a =  0.000      CL =  0.0395
      Cm = -0.0008     CD =  0.00827   =>   CDf =  0.00628    CDp =  0.00199

 Side 1  free  transition at x/c =  0.6263   56
 Side 2  free  transition at x/c =  0.4252   45

   4   rms: 0.1530E+01   max: -.3109E+02   C at   45  2   RLX: 0.016
       a =  0.000      CL =  0.0397
      Cm = -0.0007     CD =  0.00817   =>   CDf =  0.00619    CDp =  0.00198

 Side 1  free  transition at x/c =  0.6261   56
 Side 2  free  transition at x/c =  0.4311   46

   5   rms: 0.1066E+01   max: -.2268E+02   C at   46  2   RLX: 0.022
       a =  0.000      CL =  0.0404
      Cm = -0.0006     CD =  0.00814   =>   CDf =  0.00617    CDp =  0.00196

 Side 1  free  transition at x/c =  0.6258   56
 Side 2  free  transition at x/c =  0.4318   46

   6   rms: 0.6530E+00   max: -.1382E+02   C at   46  2   RLX: 0.036
       a =  0.000      CL =  0.0420
      Cm = -0.0006     CD =  0.00813   =>   CDf =  0.00617    CDp =  0.00196

 Side 1  free  transition at x/c =  0.6254   56
 Side 2  free  transition at x/c =  0.4586   47

   7   rms: 0.2171E+01   max: -.4306E+02   C at   47  2   RLX: 0.012
       a =  0.000      CL =  0.0418
      Cm = -0.0005     CD =  0.00803   =>   CDf =  0.00607    CDp =  0.00195

 Side 1  free  transition at x/c =  0.6252   56
 Side 2  free  transition at x/c =  0.4720   48

   8   rms: 0.2159E+01   max: -.4333E+02   C at   48  2   RLX: 0.012
       a =  0.000      CL =  0.0419
      Cm = -0.0004     CD =  0.00797   =>   CDf =  0.00602    CDp =  0.00194

 Side 1  free  transition at x/c =  0.6251   56
 Side 2  free  transition at x/c =  0.4833   49

   9   rms: 0.1846E+01   max: -.3807E+02   C at   49  2   RLX: 0.013
       a =  0.000      CL =  0.0420
      Cm = -0.0003     CD =  0.00791   =>   CDf =  0.00598    CDp =  0.00193

 Side 1  free  transition at x/c =  0.6250   56
 Side 2  free  transition at x/c =  0.4976   50

  10   rms: 0.1858E+01   max: -.3855E+02   C at   50  2   RLX: 0.013
       a =  0.000      CL =  0.0420
      Cm = -0.0002     CD =  0.00785   =>   CDf =  0.00593    CDp =  0.00192

 Side 1  free  transition at x/c =  0.6248   56
 Side 2  free  transition at x/c =  0.5132   51

  11   rms: 0.1977E+01   max: -.4101E+02   C at   51  2   RLX: 0.012
       a =  0.000      CL =  0.0420
      Cm = -0.0001     CD =  0.00778   =>   CDf =  0.00588    CDp =  0.00191

 Side 1  free  transition at x/c =  0.6247   56
 Side 2  free  transition at x/c =  0.5284   52

  12   rms: 0.2021E+01   max: -.4179E+02   C at   52  2   RLX: 0.012
       a =  0.000      CL =  0.0418
      Cm = -0.0000     CD =  0.00771   =>   CDf =  0.00582    CDp =  0.00189

 Side 1  free  transition at x/c =  0.6246   56
 Side 2  free  transition at x/c =  0.5444   53

  13   rms: 0.2077E+01   max: -.4283E+02   C at   53  2   RLX: 0.012
       a =  0.000      CL =  0.0416
      Cm =  0.0001     CD =  0.00764   =>   CDf =  0.00576    CDp =  0.00188

 Side 1  free  transition at x/c =  0.6245   56
 Side 2  free  transition at x/c =  0.5612   54

  14   rms: 0.2114E+01   max: -.4347E+02   C at   54  2   RLX: 0.012
       a =  0.000      CL =  0.0414
      Cm =  0.0002     CD =  0.00757   =>   CDf =  0.00570    CDp =  0.00187

 Side 1  free  transition at x/c =  0.6244   56
 Side 2  free  transition at x/c =  0.5774   55

  15   rms: 0.2129E+01   max: -.4366E+02   C at   55  2   RLX: 0.011
       a =  0.000      CL =  0.0412
      Cm =  0.0003     CD =  0.00750   =>   CDf =  0.00564    CDp =  0.00186

 Side 1  free  transition at x/c =  0.6243   56
 Side 2  free  transition at x/c =  0.5937   56

  16   rms: 0.2129E+01   max: -.4353E+02   C at   56  2   RLX: 0.011
       a =  0.000      CL =  0.0409
      Cm =  0.0005     CD =  0.00743   =>   CDf =  0.00558    CDp =  0.00185

 Side 1  free  transition at x/c =  0.6242   56
 Side 2  free  transition at x/c =  0.6100   57

  17   rms: 0.2112E+01   max: -.4305E+02   C at   57  2   RLX: 0.012
       a =  0.000      CL =  0.0406
      Cm =  0.0006     CD =  0.00736   =>   CDf =  0.00552    CDp =  0.00184

 Side 1  free  transition at x/c =  0.6241   56
 Side 2  free  transition at x/c =  0.6265   58

  18   rms: 0.2064E+01   max: -.4193E+02   C at   58  2   RLX: 0.012
       a =  0.000      CL =  0.0402
      Cm =  0.0007     CD =  0.00729   =>   CDf =  0.00545    CDp =  0.00183

 Side 1  free  transition at x/c =  0.6240   56
 Side 2  free  transition at x/c =  0.6430   59

  19   rms: 0.2041E+01   max: -.4133E+02   C at   59  2   RLX: 0.012
       a =  0.000      CL =  0.0398
      Cm =  0.0009     CD =  0.00721   =>   CDf =  0.00539    CDp =  0.00182

 Side 1  free  transition at x/c =  0.6239   56
 Side 2  free  transition at x/c =  0.6597   60

  20   rms: 0.1992E+01   max: -.4018E+02   C at   60  2   RLX: 0.012
       a =  0.000      CL =  0.0394
      Cm =  0.0011     CD =  0.00714   =>   CDf =  0.00532    CDp =  0.00182

 Side 1  free  transition at x/c =  0.6238   56
 Side 2  free  transition at x/c =  0.6664   60

  21   rms: 0.1908E+01   max: -.3747E+02   C at   60  2   RLX: 0.013
       a =  0.000      CL =  0.0393
      Cm =  0.0011     CD =  0.00712   =>   CDf =  0.00530    CDp =  0.00182

 Side 1  free  transition at x/c =  0.6237   56
 Side 2  free  transition at x/c =  0.6572   59

  22   rms: 0.8959E+00   max: -.1717E+02   C at   59  2   RLX: 0.029
       a =  0.000      CL =  0.0401
      Cm =  0.0011     CD =  0.00717   =>   CDf =  0.00534    CDp =  0.00183

 Side 1  free  transition at x/c =  0.6235   56
 Side 2  free  transition at x/c =  0.6867   61

  23   rms: 0.1162E+01   max: -.2210E+02   C at   61  2   RLX: 0.023
       a =  0.000      CL =  0.0397
      Cm =  0.0015     CD =  0.00703   =>   CDf =  0.00521    CDp =  0.00182

 Side 1  free  transition at x/c =  0.6233   56
 Side 2  free  transition at x/c =  0.6924   62

  24   rms: 0.8279E+00   max: -.1653E+02   C at   62  2   RLX: 0.030
       a =  0.000      CL =  0.0400
      Cm =  0.0016     CD =  0.00700   =>   CDf =  0.00519    CDp =  0.00181

 Side 1  free  transition at x/c =  0.6230   56
 Side 2  free  transition at x/c =  0.6976   62

  25   rms: 0.8369E+00   max: -.1635E+02   C at   62  2   RLX: 0.031
       a =  0.000      CL =  0.0405
      Cm =  0.0017     CD =  0.00698   =>   CDf =  0.00517    CDp =  0.00181

 Side 1  free  transition at x/c =  0.6227   56
 Side 2  free  transition at x/c =  0.7054   62

  26   rms: 0.8122E+00   max: -.1520E+02   C at   62  2   RLX: 0.033
       a =  0.000      CL =  0.0410
      Cm =  0.0018     CD =  0.00696   =>   CDf =  0.00514    CDp =  0.00182

 Side 1  free  transition at x/c =  0.6225   56
 Side 2  free  transition at x/c =  0.7277   64

  27   rms: 0.9393E+00   max: -.1846E+02   C at   64  2   RLX: 0.027
       a =  0.000      CL =  0.0408
      Cm =  0.0021     CD =  0.00686   =>   CDf =  0.00505    CDp =  0.00181

 Side 1  free  transition at x/c =  0.6223   56
 Side 2  free  transition at x/c =  0.7520   65

  28   rms: 0.7690E+00   max: -.1464E+02   C at   65  2   RLX: 0.034
       a =  0.000      CL =  0.0408
      Cm =  0.0024     CD =  0.00679   =>   CDf =  0.00496    CDp =  0.00183

 Side 1  free  transition at x/c =  0.6220   56
 Side 2  free  transition at x/c =  0.7566   66

  29   rms: 0.3589E+00   max: -.7155E+01   C at   66  2   RLX: 0.070
       a =  0.000      CL =  0.0423
      Cm =  0.0025     CD =  0.00676   =>   CDf =  0.00494    CDp =  0.00182

 Side 1  free  transition at x/c =  0.6215   56
 Side 2  free  transition at x/c =  0.7689   66

  30   rms: 0.3001E+00   max: -.5761E+01   C at   66  2   RLX: 0.087
       a =  0.000      CL =  0.0444
      Cm =  0.0026     CD =  0.00674   =>   CDf =  0.00491    CDp =  0.00183

 Side 1  free  transition at x/c =  0.6209   56
 Side 2  free  transition at x/c =  0.7934   68

  31   rms: 0.2622E+00   max: -.5134E+01   C at   68  2   RLX: 0.097
       a =  0.000      CL =  0.0457
      Cm =  0.0031     CD =  0.00666   =>   CDf =  0.00481    CDp =  0.00185

 Side 1  free  transition at x/c =  0.6202   56
 Side 2  free  transition at x/c =  0.8129   69

  32   rms: 0.1465E+00   max: -.2765E+01   C at   69  2   RLX: 0.181
       a =  0.000      CL =  0.0492
      Cm =  0.0035     CD =  0.00663   =>   CDf =  0.00474    CDp =  0.00189

 Side 1  free  transition at x/c =  0.6192   56
 Side 2  free  transition at x/c =  0.8437   71

  33   rms: 0.5582E-01   max: -.7795E+00   C at   71  2   RLX: 0.641
       a =  0.000      CL =  0.0602
      Cm =  0.0044     CD =  0.00662   =>   CDf =  0.00465    CDp =  0.00197

 Side 1  free  transition at x/c =  0.6164   55
 Side 2  free  transition at x/c =  0.8954   74

  34   rms: 0.1891E-01   max: 0.1997E+00   D at   72  2
       a =  0.000      CL =  0.0686
      Cm =  0.0044     CD =  0.00662   =>   CDf =  0.00454    CDp =  0.00209

 Side 1  free  transition at x/c =  0.6140   55
 Side 2  free  transition at x/c =  0.8911   74

  35   rms: 0.2234E-02   max: -.3464E-01   D at   75  2
       a =  0.000      CL =  0.0688
      Cm =  0.0043     CD =  0.00663   =>   CDf =  0.00454    CDp =  0.00208

 Side 1  free  transition at x/c =  0.6141   55
 Side 2  free  transition at x/c =  0.8892   74

  36   rms: 0.2302E-03   max: -.3164E-02   C at   74  2
       a =  0.000      CL =  0.0687
      Cm =  0.0043     CD =  0.00663   =>   CDf =  0.00455    CDp =  0.00208

 Side 1  free  transition at x/c =  0.6141   55
 Side 2  free  transition at x/c =  0.8893   74

  37   rms: 0.1076E-05   max: 0.7152E-05   D at   75  2
       a =  0.000      CL =  0.0687
      Cm =  0.0043     CD =  0.00663   =>   CDf =  0.00454    CDp =  0.00208
 plradd ia,ip,cpol            9           0  1.36949783E-02

 Point added to stored polar  1
 Point written to save file  m6_Re600k.base.pol                              
 Dump file unspecified or not available
 Calculating wake trajectory ...
 Calculating source influence matrix ...

 Solving BL system ...

 Side 1  free  transition at x/c =  0.6141   55
 Side 2  free  transition at x/c =  0.8893   74

   1   rms: 0.1192E+00   max: -.9202E+00   C at   74  2   RLX: 0.543
       a =  0.500      CL =  0.0991
      Cm =  0.0049     CD =  0.00666   =>   CDf =  0.00455    CDp =  0.00211

 Side 1  free  transition at x/c =  0.6047   56
 Side 2  free  transition at x/c =  0.9234   75

   2   rms: 0.5222E-01   max: 0.2743E+00   D at   76  2
       a =  0.500      CL =  0.1232
      Cm =  0.0056     CD =  0.00689   =>   CDf =  0.00453    CDp =  0.00236

 Side 1  free  transition at x/c =  0.5999   55
 Side 2  free  transition at x/c =  0.9424   76

   3   rms: 0.1073E-01   max: 0.1231E+00   C at   76  2
       a =  0.500      CL =  0.1241
      Cm =  0.0054     CD =  0.00690   =>   CDf =  0.00457    CDp =  0.00233

 Side 1  free  transition at x/c =  0.5995   55
 Side 2  free  transition at x/c =  0.9418   76

   4   rms: 0.1751E-02   max: 0.1494E-01   D at   77  2
       a =  0.500      CL =  0.1253
      Cm =  0.0051     CD =  0.00692   =>   CDf =  0.00456    CDp =  0.00235

 Side 1  free  transition at x/c =  0.5995   55
 Side 2  free  transition at x/c =  0.9414   76

   5   rms: 0.1256E-04   max: -.8943E-04   D at   84  2
       a =  0.500      CL =  0.1253
      Cm =  0.0051     CD =  0.00692   =>   CDf =  0.00456    CDp =  0.00236
 plradd ia,ip,cpol           10           0  0.23919746    

 Point added to stored polar  1
 Point written to save file  m6_Re600k.base.pol                              
 Dump file unspecified or not available
 Calculating wake trajectory ...
 Calculating source influence matrix ...

 Solving BL system ...

 Side 1  free  transition at x/c =  0.5995   55
 Side 2  free  transition at x/c =  0.9414   76

   1   rms: 0.9456E-01   max: -.4550E+00   T at   76  2
       a =  1.000      CL =  0.1711
      Cm =  0.0081     CD =  0.00708   =>   CDf =  0.00458    CDp =  0.00250

 MRCHDU: Convergence failed at  77  side 2    Res =  0.1639E+02
 MRCHDU: Convergence failed at  78  side 2    Res =  0.2320E+01
 MRCHDU: Convergence failed at  79  side 2    Res =  0.9516E+01
 MRCHDU: Convergence failed at  80  side 2    Res =  0.3450E+02
 Side 1  free  transition at x/c =  0.5826   55
 Side 2  free  transition at x/c =  0.9683   77

   2   rms: 0.1256E+00   max: 0.1202E+01   C at   77  2
       a =  1.000      CL =  0.2097
      Cm = -0.0004     CD =  0.00678   =>   CDf =  0.00468    CDp =  0.00211

 Side 1  free  transition at x/c =  0.5839   55
 Side 2  free  transition at x/c =  0.9562   76

   3   rms: 0.7148E-01   max: -.5717E+00   D at   80  2   RLX: 0.875
       a =  1.000      CL =  0.1691
      Cm =  0.0084     CD =  0.00729   =>   CDf =  0.00467    CDp =  0.00262

 MRCHDU: Convergence failed at  78  side 2    Res =  0.1980E+01
 MRCHDU: Convergence failed at  79  side 2    Res =  0.3912E+01
 MRCHDU: Convergence failed at  80  side 2    Res =  0.8736E+01
 Side 1  free  transition at x/c =  0.5846   55
 Side 2  free  transition at x/c =  0.9749   78

   4   rms: 0.1159E+00   max: 0.1252E+01   C at   78  2
       a =  1.000      CL =  0.1938
      Cm =  0.0033     CD =  0.00678   =>   CDf =  0.00468    CDp =  0.00210

 Side 1  free  transition at x/c =  0.5844   55
 Side 2  free  transition at x/c =  0.9584   76

   5   rms: 0.1130E+00   max: -.8494E+00   D at   80  2   RLX: 0.589
       a =  1.000      CL =  0.1451
      Cm =  0.0138     CD =  0.00742   =>   CDf =  0.00466    CDp =  0.00275

 MRCHDU: Convergence failed at  78  side 2    Res =  0.2200E+01
 MRCHDU: Convergence failed at  79  side 2    Res =  0.2315E+02
 MRCHDU: Convergence failed at  80  side 2    Res =  0.7290E+01
 Side 1  free  transition at x/c =  0.5858   56
 Side 2  free  transition at x/c =  0.9866   79

   6   rms: 0.1226E+00   max: 0.1529E+01   C at   79  2   RLX: 0.981
       a =  1.000      CL =  0.1770
      Cm =  0.0073     CD =  0.00665   =>   CDf =  0.00465    CDp =  0.00200

 Side 1  free  transition at x/c =  0.5850   56
 Side 2  free  transition at x/c =  0.9607   77

   7   rms: 0.2678E-01   max: -.4479E+00   D at   78  2
       a =  1.000      CL =  0.1895
      Cm =  0.0040     CD =  0.00743   =>   CDf =  0.00465    CDp =  0.00278

 Side 1  free  transition at x/c =  0.5844   55
 Side 2  free  transition at x/c =  0.9618   77

   8   rms: 0.3450E-02   max: 0.3495E-01   D at   80  2
       a =  1.000      CL =  0.1908
      Cm =  0.0037     CD =  0.00733   =>   CDf =  0.00467    CDp =  0.00266

 Side 1  free  transition at x/c =  0.5843   55
 Side 2  free  transition at x/c =  0.9617   77

   9   rms: 0.1507E-03   max: 0.1231E-02   D at   79  2
       a =  1.000      CL =  0.1909
      Cm =  0.0037     CD =  0.00733   =>   CDf =  0.00467    CDp =  0.00267

 Side 1  free  transition at x/c =  0.5843   55
 Side 2  free  transition at x/c =  0.9617   77

  10   rms: 0.6607E-06   max: 0.4880E-05   D at   79  2
       a =  1.000      CL =  0.1909
      Cm =  0.0037     CD =  0.00733   =>   CDf =  0.00467    CDp =  0.00267
 plradd ia,ip,cpol           11           0  0.22414850    

 Point added to stored polar  1
 Point written to save file  m6_Re600k.base.pol                              
 Dump file unspecified or not available
 Calculating wake trajectory ...
 Calculating source influence matrix ...

 Solving BL system ...

 Side 1  free  transition at x/c =  0.5843   55
 Side 2  free  transition at x/c =  0.9617   77

   1   rms: 0.1228E+00   max: 0.4869E+00   D at   80  2
       a =  1.500      CL =  0.2784
      Cm = -0.0025     CD =  0.00774   =>   CDf =  0.00468    CDp =  0.00306

 Side 1  free  transition at x/c =  0.5646   55
 Side 2  free  transition at x/c =  0.9773   77

   2   rms: 0.2751E-01   max: 0.2680E+00   D at   79  2
       a =  1.500      CL =  0.2875
      Cm = -0.0046     CD =  0.00790   =>   CDf =  0.00481    CDp =  0.00309

 Side 1  free  transition at x/c =  0.5677   55
 Side 2  free  transition at x/c =  0.9737   77

   3   rms: 0.4314E-02   max: -.3353E-01   D at   79  2
       a =  1.500      CL =  0.2857
      Cm = -0.0042     CD =  0.00793   =>   CDf =  0.00477    CDp =  0.00316

 Side 1  free  transition at x/c =  0.5673   55
 Side 2  free  transition at x/c =  0.9741   77

   4   rms: 0.3578E-04   max: -.4328E-03   D at   77  2
       a =  1.500      CL =  0.2857
      Cm = -0.0042     CD =  0.00793   =>   CDf =  0.00477    CDp =  0.00316
 plradd ia,ip,cpol           12           0  0.13584651    

 Point added to stored polar  1
 Point written to save file  m6_Re600k.base.pol                              
 Dump file unspecified or not available
 Calculating wake trajectory ...
 Calculating source influence matrix ...

 Solving BL system ...

 Side 1  free  transition at x/c =  0.5673   55
 Side 2  free  transition at x/c =  0.9741   77

   1   rms: 0.1676E+00   max: 0.6042E+00   D at   79  2
       a =  2.000      CL =  0.4180
      Cm = -0.0201     CD =  0.00859   =>   CDf =  0.00478    CDp =  0.00381

 Side 1  free  transition at x/c =  0.5412   55
 Side 2  free  transition at x/c =  0.9736   76

   2   rms: 0.7862E-01   max: -.4909E+00   D at   76  2
       a =  2.000      CL =  0.3867
      Cm = -0.0136     CD =  0.00832   =>   CDf =  0.00496    CDp =  0.00336

 Side 1  free  transition at x/c =  0.5491   55
 Side 2  free  transition at x/c =  0.9839   77

   3   rms: 0.2383E-01   max: -.1642E+00   D at   76  2
       a =  2.000      CL =  0.3821
      Cm = -0.0126     CD =  0.00835   =>   CDf =  0.00486    CDp =  0.00348

 Side 1  free  transition at x/c =  0.5484   55
 Side 2  free  transition at x/c =  0.9851   77

   4   rms: 0.8391E-03   max: -.1477E-01   D at   77  2
       a =  2.000      CL =  0.3821
      Cm = -0.0127     CD =  0.00840   =>   CDf =  0.00486    CDp =  0.00354

 Side 1  free  transition at x/c =  0.5484   55
 Side 2  free  transition at x/c =  0.9850   77

   5   rms: 0.1211E-04   max: -.8997E-04   D at   78  2
       a =  2.000      CL =  0.3821
      Cm = -0.0127     CD =  0.00840   =>   CDf =  0.00486    CDp =  0.00354
 plradd ia,ip,cpol           13           0  0.12223566    

 Point added to stored polar  1
 Point written to save file  m6_Re600k.base.pol                              
 Dump file unspecified or not available
 Calculating wake trajectory ...
 Calculating source influence matrix ...

 Solving BL system ...

 Side 1  free  transition at x/c =  0.5484   55
 Side 2  free  transition at x/c =  0.9851   77

   1   rms: 0.9579E-01   max: -.1808E+00   T at   77  2
       a =  2.500      CL =  0.4584
      Cm = -0.0172     CD =  0.00841   =>   CDf =  0.00486    CDp =  0.00355

 Side 1  free  transition at x/c =  0.5235   55
 Side 2  free  transition at x/c =  0.9897   76

   2   rms: 0.2191E-01   max: -.3193E+00   D at   55  1
       a =  2.500      CL =  0.4580
      Cm = -0.0172     CD =  0.00847   =>   CDf =  0.00501    CDp =  0.00345

 Side 1  free  transition at x/c =  0.5292   55
 Side 2  free  transition at x/c =  0.9894   76

   3   rms: 0.4780E-02   max: 0.7827E-01   C at   55  1
       a =  2.500      CL =  0.4581
      Cm = -0.0172     CD =  0.00849   =>   CDf =  0.00492    CDp =  0.00357

 Side 1  free  transition at x/c =  0.5273   55
 Side 2  free  transition at x/c =  0.9894   76

   4   rms: 0.1702E-03   max: -.2227E-02   D at   56  1
       a =  2.500      CL =  0.4581
      Cm = -0.0172     CD =  0.00849   =>   CDf =  0.00494    CDp =  0.00355

 Side 1  free  transition at x/c =  0.5273   55
 Side 2  free  transition at x/c =  0.9894   76

   5   rms: 0.1659E-05   max: 0.1572E-04   T at   76  2
       a =  2.500      CL =  0.4581
      Cm = -0.0172     CD =  0.00849   =>   CDf =  0.00494    CDp =  0.00355
 plradd ia,ip,cpol           14           0  0.12223566    

 Point added to stored polar  1
 Point written to save file  m6_Re600k.base.pol                              
 Dump file unspecified or not available
 Calculating wake trajectory ...
 Calculating source influence matrix ...

 Solving BL system ...

 Side 1  free  transition at x/c =  0.5273   55
 Side 2  free  transition at x/c =  0.9894   76

   1   rms: 0.9295E-01   max: -.2114E+00   T at   76  2
       a =  3.000      CL =  0.5276
      Cm = -0.0204     CD =  0.00858   =>   CDf =  0.00493    CDp =  0.00365

 Side 1  free  transition at x/c =  0.5108   55
 Side 2  free  transition at x/c =  0.9910   75

   2   rms: 0.1866E-01   max: -.1588E+00   D at   75  2
       a =  3.000      CL =  0.5223
      Cm = -0.0193     CD =  0.00856   =>   CDf =  0.00500    CDp =  0.00356

 Side 1  free  transition at x/c =  0.5096   55
 Side 2  free  transition at x/c =  0.9932   75

   3   rms: 0.4682E-03   max: -.3366E-02   D at    4  1
       a =  3.000      CL =  0.5222
      Cm = -0.0192     CD =  0.00857   =>   CDf =  0.00500    CDp =  0.00357

 Side 1  free  transition at x/c =  0.5095   55
 Side 2  free  transition at x/c =  0.9931   75

   4   rms: 0.1197E-05   max: 0.1562E-04   T at   75  2
       a =  3.000      CL =  0.5222
      Cm = -0.0192     CD =  0.00857   =>   CDf =  0.00500    CDp =  0.00357
 plradd ia,ip,cpol           15           0  0.12223566    

 Point added to stored polar  1
 Point written to save file  m6_Re600k.base.pol                              
 Dump file unspecified or not available
 Calculating wake trajectory ...
 Calculating source influence matrix ...

 Solving BL system ...

 Side 1  free  transition at x/c =  0.5095   55
 Side 2  free  transition at x/c =  0.9931   75

   1   rms: 0.8724E-01   max: -.2759E+00   T at   75  2
       a =  3.500      CL =  0.5835
      Cm = -0.0207     CD =  0.00873   =>   CDf =  0.00500    CDp =  0.00372

 Side 1  free  transition at x/c =  0.4873   53
 Side 2  free  transition at x/c =  0.9979   76

   2   rms: 0.2300E-01   max: 0.2406E+00   D at   54  1
       a =  3.500      CL =  0.5888
      Cm = -0.0219     CD =  0.00862   =>   CDf =  0.00512    CDp =  0.00350

 Side 1  free  transition at x/c =  0.4893   54
 Side 2  free  transition at x/c =  0.9954   76

   3   rms: 0.3264E-02   max: -.4846E-01   D at   53  1
       a =  3.500      CL =  0.5887
      Cm = -0.0219     CD =  0.00864   =>   CDf =  0.00510    CDp =  0.00354

 Side 1  free  transition at x/c =  0.4892   54
 Side 2  free  transition at x/c =  0.9953   76

   4   rms: 0.2309E-03   max: -.2960E-02   D at   55  1
       a =  3.500      CL =  0.5887
      Cm = -0.0219     CD =  0.00864   =>   CDf =  0.00508    CDp =  0.00356

 Side 1  free  transition at x/c =  0.4891   54
 Side 2  free  transition at x/c =  0.9953   76

   5   rms: 0.3670E-05   max: -.3908E-04   D at    4  2
       a =  3.500      CL =  0.5887
      Cm = -0.0219     CD =  0.00864   =>   CDf =  0.00508    CDp =  0.00356
 plradd ia,ip,cpol           16           0  0.10910731    

 Point added to stored polar  1
 Point written to save file  m6_Re600k.base.pol                              
 Dump file unspecified or not available
 Calculating wake trajectory ...
 Calculating source influence matrix ...

 Solving BL system ...

 Side 1  free  transition at x/c =  0.4891   54
 Side 2  free  transition at x/c =  0.9953   76

   1   rms: 0.9727E-01   max: -.4719E+00   D at   54  1
       a =  4.000      CL =  0.6547
      Cm = -0.0245     CD =  0.00886   =>   CDf =  0.00506    CDp =  0.00380

 Side 1  free  transition at x/c =  0.4712   53
 Side 2  free  transition at x/c =  0.9973   75

   2   rms: 0.1698E-01   max: 0.2406E+00   D at   54  1
       a =  4.000      CL =  0.6546
      Cm = -0.0244     CD =  0.00871   =>   CDf =  0.00510    CDp =  0.00361

 Side 1  free  transition at x/c =  0.4698   53
 Side 2  free  transition at x/c =  0.9977   75

   3   rms: 0.1708E-02   max: -.2776E-01   D at   55  1
       a =  4.000      CL =  0.6547
      Cm = -0.0244     CD =  0.00871   =>   CDf =  0.00510    CDp =  0.00360

 Side 1  free  transition at x/c =  0.4691   53
 Side 2  free  transition at x/c =  0.9976   75

   4   rms: 0.2527E-04   max: -.4280E-03   D at   55  1
       a =  4.000      CL =  0.6547
      Cm = -0.0244     CD =  0.00871   =>   CDf =  0.00511    CDp =  0.00360
 plradd ia,ip,cpol           17           0  1.59792192E-02

 Point added to stored polar  1
 Point written to save file  m6_Re600k.base.pol                              
 Dump file unspecified or not available
 Calculating wake trajectory ...
 Calculating source influence matrix ...

 Solving BL system ...

 Side 1  free  transition at x/c =  0.4691   53
 Side 2  free  transition at x/c =  0.9976   75

   1   rms: 0.8786E-01   max: -.1626E+00   T at   75  2
       a =  4.500      CL =  0.7210
      Cm = -0.0270     CD =  0.00875   =>   CDf =  0.00507    CDp =  0.00368

 Side 1  free  transition at x/c =  0.4374   52
 Side 2 forced transition at x/c =  1.0000   74

   2   rms: 0.1514E-01   max: 0.2420E+00   D at   53  1
       a =  4.500      CL =  0.7203
      Cm = -0.0269     CD =  0.00887   =>   CDf =  0.00525    CDp =  0.00363

 Side 1  free  transition at x/c =  0.4446   53
 Side 2  free  transition at x/c =  0.9999   74

   3   rms: 0.2187E-02   max: -.3131E-01   D at   52  1
       a =  4.500      CL =  0.7202
      Cm = -0.0269     CD =  0.00885   =>   CDf =  0.00516    CDp =  0.00369

 Side 1  free  transition at x/c =  0.4435   53
 Side 2  free  transition at x/c =  1.0000   74

   4   rms: 0.1004E-03   max: -.1383E-02   D at   54  1
       a =  4.500      CL =  0.7202
      Cm = -0.0269     CD =  0.00885   =>   CDf =  0.00517    CDp =  0.00368

 Side 1  free  transition at x/c =  0.4435   53
 Side 2  free  transition at x/c =  1.0000   74

   5   rms: 0.1066E-05   max: 0.1112E-04   D at   53  1
       a =  4.500      CL =  0.7202
      Cm = -0.0269     CD =  0.00885   =>   CDf =  0.00517    CDp =  0.00368
 plradd ia,ip,cpol           18           0  1.59792192E-02

 Point added to stored polar  1
 Point written to save file  m6_Re600k.base.pol                              
 Dump file unspecified or not available
 Calculating wake trajectory ...
 Calculating source influence matrix ...

 Solving BL system ...

 Side 1  free  transition at x/c =  0.4435   53
 Side 2  free  transition at x/c =  1.0000   74

   1   rms: 0.1029E+00   max: -.6118E+00   D at   53  1   RLX: 0.817
       a =  5.000      CL =  0.7727
      Cm = -0.0288     CD =  0.00912   =>   CDf =  0.00512    CDp =  0.00400

 Side 1  free  transition at x/c =  0.4187   52
 Side 2 forced transition at x/c =  1.0000   73

   2   rms: 0.2341E-01   max: -.2183E+00   D at   54  1
       a =  5.000      CL =  0.7715
      Cm = -0.0264     CD =  0.00903   =>   CDf =  0.00522    CDp =  0.00381

 Side 1  free  transition at x/c =  0.4153   52
 Side 2 forced transition at x/c =  1.0000   73

   3   rms: 0.1307E-02   max: -.1795E-01   D at   54  1
       a =  5.000      CL =  0.7716
      Cm = -0.0264     CD =  0.00902   =>   CDf =  0.00522    CDp =  0.00380

 Side 1  free  transition at x/c =  0.4150   52
 Side 2 forced transition at x/c =  1.0000   73

   4   rms: 0.1397E-04   max: 0.2010E-03   D at   78  2
       a =  5.000      CL =  0.7716
      Cm = -0.0264     CD =  0.00902   =>   CDf =  0.00522    CDp =  0.00379
 plradd ia,ip,cpol           19           0  1.59792192E-02

 Point added to stored polar  1
 Point written to save file  m6_Re600k.base.pol                              
 Dump file unspecified or not available
 Calculating wake trajectory ...
 Calculating source influence matrix ...

 Solving BL system ...

 Side 1  free  transition at x/c =  0.4150   52
 Side 2 forced transition at x/c =  1.0000   73

   1   rms: 0.8708E-01   max: 0.5535E+00   C at   52  1
       a =  5.500      CL =  0.8226
      Cm = -0.0259     CD =  0.00927   =>   CDf =  0.00522    CDp =  0.00405

 Side 1  free  transition at x/c =  0.3798   50
 Side 2 forced transition at x/c =  1.0000   73

   2   rms: 0.1986E-01   max: 0.2681E+00   D at   51  1
       a =  5.500      CL =  0.8224
      Cm = -0.0258     CD =  0.00925   =>   CDf =  0.00535    CDp =  0.00390

 Side 1  free  transition at x/c =  0.3856   50
 Side 2 forced transition at x/c =  1.0000   73

   3   rms: 0.3230E-02   max: 0.5390E-01   C at   50  1
       a =  5.500      CL =  0.8224
      Cm = -0.0258     CD =  0.00926   =>   CDf =  0.00529    CDp =  0.00397

 Side 1  free  transition at x/c =  0.3841   50
 Side 2 forced transition at x/c =  1.0000   73

   4   rms: 0.7152E-04   max: -.1569E-02   D at   51  1
       a =  5.500      CL =  0.8224
      Cm = -0.0258     CD =  0.00926   =>   CDf =  0.00530    CDp =  0.00396
 plradd ia,ip,cpol           20           0  1.27075342E-02

 Point added to stored polar  1
 Point written to save file  m6_Re600k.base.pol                              
 Dump file unspecified or not available
 Calculating wake trajectory ...
 Calculating source influence matrix ...

 Solving BL system ...

 Side 1  free  transition at x/c =  0.3841   50
 Side 2 forced transition at x/c =  1.0000   73

   1   rms: 0.9270E-01   max: 0.7741E+00   C at   50  1
       a =  6.000      CL =  0.8727
      Cm = -0.0252     CD =  0.00961   =>   CDf =  0.00524    CDp =  0.00437

 Side 1  free  transition at x/c =  0.3409   48
 Side 2 forced transition at x/c =  1.0000   72

   2   rms: 0.1841E-01   max: 0.2130E+00   D at   50  1
       a =  6.000      CL =  0.8722
      Cm = -0.0251     CD =  0.00961   =>   CDf =  0.00545    CDp =  0.00416

 Side 1  free  transition at x/c =  0.3463   48
 Side 2 forced transition at x/c =  1.0000   72

   3   rms: 0.1525E-02   max: -.2394E-01   D at   50  1
       a =  6.000      CL =  0.8722
      Cm = -0.0251     CD =  0.00963   =>   CDf =  0.00542    CDp =  0.00421

 Side 1  free  transition at x/c =  0.3455   48
 Side 2 forced transition at x/c =  1.0000   72

   4   rms: 0.1618E-04   max: -.2255E-03   C at   48  1
       a =  6.000      CL =  0.8722
      Cm = -0.0251     CD =  0.00963   =>   CDf =  0.00542    CDp =  0.00421
 plradd ia,ip,cpol           21           0  7.63816573E-03

 Point added to stored polar  1
 Point written to save file  m6_Re600k.base.pol                              
 Dump file unspecified or not available
 Calculating wake trajectory ...
 Calculating source influence matrix ...

 Solving BL system ...

 Side 1  free  transition at x/c =  0.3455   48
 Side 2 forced transition at x/c =  1.0000   72

   1   rms: 0.8587E-01   max: 0.5920E+00   C at   48  1
       a =  6.500      CL =  0.9225
      Cm = -0.0244     CD =  0.00987   =>   CDf =  0.00535    CDp =  0.00452

 Side 1  free  transition at x/c =  0.2966   46
 Side 2 forced transition at x/c =  1.0000   71

   2   rms: 0.1458E-01   max: -.2311E+00   C at   46  1
       a =  6.500      CL =  0.9206
      Cm = -0.0243     CD =  0.01012   =>   CDf =  0.00560    CDp =  0.00451

 Side 1  free  transition at x/c =  0.3031   47
 Side 2 forced transition at x/c =  1.0000   71

   3   rms: 0.1475E-02   max: -.2841E-01   D at   48  1
       a =  6.500      CL =  0.9207
      Cm = -0.0243     CD =  0.01010   =>   CDf =  0.00555    CDp =  0.00455

 Side 1  free  transition at x/c =  0.3024   47
 Side 2 forced transition at x/c =  1.0000   71

   4   rms: 0.2637E-04   max: -.5032E-03   D at   48  1
       a =  6.500      CL =  0.9207
      Cm = -0.0243     CD =  0.01010   =>   CDf =  0.00555    CDp =  0.00455
 plradd ia,ip,cpol           22           0  5.73400315E-03

 Point added to stored polar  1
 Point written to save file  m6_Re600k.base.pol                              
 Dump file unspecified or not available
 Calculating wake trajectory ...
 Calculating source influence matrix ...

 Solving BL system ...

 Side 1  free  transition at x/c =  0.3024   47
 Side 2 forced transition at x/c =  1.0000   71

   1   rms: 0.1125E+00   max: 0.1346E+01   C at   47  1   RLX: 0.718
       a =  7.000      CL =  0.9541
      Cm = -0.0235     CD =  0.01066   =>   CDf =  0.00555    CDp =  0.00511

 Side 1  free  transition at x/c =  0.2623   44
 Side 2 forced transition at x/c =  1.0000   71

   2   rms: 0.2890E-01   max: 0.1831E+00   C at   44  1
       a =  7.000      CL =  0.9668
      Cm = -0.0230     CD =  0.01077   =>   CDf =  0.00572    CDp =  0.00505

 Side 1  free  transition at x/c =  0.2487   43
 Side 2 forced transition at x/c =  1.0000   71

   3   rms: 0.3062E-02   max: -.6286E-01   C at   43  1
       a =  7.000      CL =  0.9665
      Cm = -0.0230     CD =  0.01080   =>   CDf =  0.00577    CDp =  0.00503

 Side 1  free  transition at x/c =  0.2502   43
 Side 2 forced transition at x/c =  1.0000   71

   4   rms: 0.2842E-04   max: -.5323E-03   C at   43  1
       a =  7.000      CL =  0.9665
      Cm = -0.0230     CD =  0.01080   =>   CDf =  0.00576    CDp =  0.00504
 plradd ia,ip,cpol           23           0  4.16614767E-03

 Point added to stored polar  1
 Point written to save file  m6_Re600k.base.pol                              
 Dump file unspecified or not available
 Calculating wake trajectory ...
 Calculating source influence matrix ...

 Solving BL system ...

 Side 1  free  transition at x/c =  0.2502   43
 Side 2 forced transition at x/c =  1.0000   71

   1   rms: 0.1150E+00   max: 0.1808E+01   C at   43  1   RLX: 0.830
       a =  7.500      CL =  1.0036
      Cm = -0.0218     CD =  0.01139   =>   CDf =  0.00567    CDp =  0.00572

 Side 1  free  transition at x/c =  0.1966   41
 Side 2 forced transition at x/c =  1.0000   70

   2   rms: 0.1701E-01   max: -.2155E-01   D at   66  2
       a =  7.500      CL =  1.0083
      Cm = -0.0212     CD =  0.01176   =>   CDf =  0.00602    CDp =  0.00573

 Side 1  free  transition at x/c =  0.1926   40
 Side 2 forced transition at x/c =  1.0000   70

   3   rms: 0.4714E-03   max: 0.6822E-02   C at   40  1
       a =  7.500      CL =  1.0083
      Cm = -0.0212     CD =  0.01175   =>   CDf =  0.00603    CDp =  0.00573

 Side 1  free  transition at x/c =  0.1924   40
 Side 2 forced transition at x/c =  1.0000   70

   4   rms: 0.1275E-05   max: -.2356E-04   C at   40  1
       a =  7.500      CL =  1.0083
      Cm = -0.0212     CD =  0.01175   =>   CDf =  0.00603    CDp =  0.00573
 plradd ia,ip,cpol           24           0  4.16614767E-03

 Point added to stored polar  1
 Point written to save file  m6_Re600k.base.pol                              
 Dump file unspecified or not available
 Calculating wake trajectory ...
 Calculating source influence matrix ...

 Solving BL system ...

 Side 1  free  transition at x/c =  0.1924   40
 Side 2 forced transition at x/c =  1.0000   70

   1   rms: 0.1163E+00   max: 0.1913E+01   C at   40  1   RLX: 0.784
       a =  8.000      CL =  1.0414
      Cm = -0.0197     CD =  0.01240   =>   CDf =  0.00603    CDp =  0.00637

 Side 1  free  transition at x/c =  0.1382   37
 Side 2 forced transition at x/c =  1.0000   70

   2   rms: 0.2874E-01   max: 0.3247E+00   C at   37  1
       a =  8.000      CL =  1.0449
      Cm = -0.0186     CD =  0.01308   =>   CDf =  0.00631    CDp =  0.00677

 Side 1  free  transition at x/c =  0.1199   35
 Side 2 forced transition at x/c =  1.0000   70

   3   rms: 0.4387E-02   max: 0.6650E-01   D at   36  1
       a =  8.000      CL =  1.0447
      Cm = -0.0186     CD =  0.01309   =>   CDf =  0.00642    CDp =  0.00667

 Side 1  free  transition at x/c =  0.1197   35
 Side 2 forced transition at x/c =  1.0000   70

   4   rms: 0.2439E-03   max: 0.5769E-02   C at   35  1
       a =  8.000      CL =  1.0447
      Cm = -0.0186     CD =  0.01309   =>   CDf =  0.00642    CDp =  0.00667

 Side 1  free  transition at x/c =  0.1196   35
 Side 2 forced transition at x/c =  1.0000   70

   5   rms: 0.1083E-05   max: -.1209E-04   C at   35  1
       a =  8.000      CL =  1.0447
      Cm = -0.0186     CD =  0.01309   =>   CDf =  0.00642    CDp =  0.00667
 plradd ia,ip,cpol           25           0  2.88715749E-03

 Point added to stored polar  1
 Point written to save file  m6_Re600k.base.pol                              
 Dump file unspecified or not available
 Calculating wake trajectory ...
 Calculating source influence matrix ...

 Solving BL system ...

 Side 1  free  transition at x/c =  0.1196   35
 Side 2 forced transition at x/c =  1.0000   70

   1   rms: 0.2409E+00   max: 0.5418E+01   C at   35  1   RLX: 0.277
       a =  8.500      CL =  1.0536
      Cm = -0.0177     CD =  0.01355   =>   CDf =  0.00642    CDp =  0.00712

 Side 1  free  transition at x/c =  0.0947   33
 Side 2 forced transition at x/c =  1.0000   70

   2   rms: 0.1014E+00   max: 0.2003E+01   C at   33  1   RLX: 0.749
       a =  8.500      CL =  1.0718
      Cm = -0.0160     CD =  0.01431   =>   CDf =  0.00649    CDp =  0.00783

 Side 1  free  transition at x/c =  0.0773   33
 Side 2 forced transition at x/c =  1.0000   69

   3   rms: 0.2027E-01   max: -.2167E+00   D at   33  1
       a =  8.500      CL =  1.0765
      Cm = -0.0152     CD =  0.01459   =>   CDf =  0.00667    CDp =  0.00792

 Side 1  free  transition at x/c =  0.0717   33
 Side 2 forced transition at x/c =  1.0000   69

   4   rms: 0.2880E-02   max: -.4144E-01   D at   33  1
       a =  8.500      CL =  1.0760
      Cm = -0.0151     CD =  0.01463   =>   CDf =  0.00671    CDp =  0.00792

 Side 1  free  transition at x/c =  0.0707   32
 Side 2 forced transition at x/c =  1.0000   69

   5   rms: 0.2349E-02   max: -.4648E-01   C at   32  1
       a =  8.500      CL =  1.0763
      Cm = -0.0151     CD =  0.01460   =>   CDf =  0.00671    CDp =  0.00788

 Side 1  free  transition at x/c =  0.0711   32
 Side 2 forced transition at x/c =  1.0000   69

   6   rms: 0.1465E-04   max: -.2098E-03   D at   33  1
       a =  8.500      CL =  1.0763
      Cm = -0.0151     CD =  0.01460   =>   CDf =  0.00671    CDp =  0.00788
 plradd ia,ip,cpol           26           0  2.88715749E-03

 Point added to stored polar  1
 Point written to save file  m6_Re600k.base.pol                              
 Dump file unspecified or not available
 Calculating wake trajectory ...
 Calculating source influence matrix ...

 Solving BL system ...

 Side 1  free  transition at x/c =  0.0711   32
 Side 2 forced transition at x/c =  1.0000   69

   1   rms: 0.8104E-01   max: -.4588E+00   D at   32  1
       a =  9.000      CL =  1.1153
      Cm = -0.0124     CD =  0.01532   =>   CDf =  0.00671    CDp =  0.00860

 Side 1  free  transition at x/c =  0.0532   31
 Side 2 forced transition at x/c =  1.0000   69

   2   rms: 0.1001E-01   max: 0.3052E-01   U at   32  1
       a =  9.000      CL =  1.1097
      Cm = -0.0117     CD =  0.01569   =>   CDf =  0.00678    CDp =  0.00891

 Side 1  free  transition at x/c =  0.0533   31
 Side 2 forced transition at x/c =  1.0000   69

   3   rms: 0.3480E-03   max: -.3540E-02   D at   32  1
       a =  9.000      CL =  1.1095
      Cm = -0.0116     CD =  0.01569   =>   CDf =  0.00679    CDp =  0.00891

 Side 1  free  transition at x/c =  0.0533   31
 Side 2 forced transition at x/c =  1.0000   69

   4   rms: 0.1887E-05   max: -.1635E-04   D at   31  1
       a =  9.000      CL =  1.1095
      Cm = -0.0116     CD =  0.01569   =>   CDf =  0.00679    CDp =  0.00890
 plradd ia,ip,cpol           27           0  1.86344108E-03

 Point added to stored polar  1
 Point written to save file  m6_Re600k.base.pol                              
 Dump file unspecified or not available
 Calculating wake trajectory ...
 Calculating source influence matrix ...

 Solving BL system ...

 Side 1  free  transition at x/c =  0.0533   31
 Side 2 forced transition at x/c =  1.0000   69

   1   rms: 0.8978E-01   max: -.6189E+00   D at   31  1   RLX: 0.808
       a =  9.500      CL =  1.1333
      Cm = -0.0084     CD =  0.01679   =>   CDf =  0.00679    CDp =  0.01000

 Side 1  free  transition at x/c =  0.0464   30
 Side 2 forced transition at x/c =  1.0000   69

   2   rms: 0.4355E-01   max: -.5202E+00   D at   30  1   RLX: 0.961
       a =  9.500      CL =  1.1452
      Cm = -0.0086     CD =  0.01644   =>   CDf =  0.00652    CDp =  0.00992

 Side 1  free  transition at x/c =  0.0460   31
 Side 2 forced transition at x/c =  1.0000   68

   3   rms: 0.7834E-02   max: -.4841E-01   D at   32  1
       a =  9.500      CL =  1.1413
      Cm = -0.0079     CD =  0.01673   =>   CDf =  0.00677    CDp =  0.00996

 Side 1  free  transition at x/c =  0.0452   31
 Side 2 forced transition at x/c =  1.0000   68

   4   rms: 0.1109E-02   max: -.1268E-01   D at    4  1
       a =  9.500      CL =  1.1412
      Cm = -0.0079     CD =  0.01673   =>   CDf =  0.00678    CDp =  0.00995

 Side 1  free  transition at x/c =  0.0452   31
 Side 2 forced transition at x/c =  1.0000   68

   5   rms: 0.1587E-05   max: 0.1214E-04   D at    8  1
       a =  9.500      CL =  1.1412
      Cm = -0.0079     CD =  0.01673   =>   CDf =  0.00678    CDp =  0.00995
 plradd ia,ip,cpol           28           0  1.86344108E-03

 Point added to stored polar  1
 Point written to save file  m6_Re600k.base.pol                              
 Dump file unspecified or not available
 Calculating wake trajectory ...
 Calculating source influence matrix ...

 Solving BL system ...

 Side 1  free  transition at x/c =  0.0452   31
 Side 2 forced transition at x/c =  1.0000   68

   1   rms: 0.8096E-01   max: -.4276E+00   D at   31  1
       a = 10.000      CL =  1.1691
      Cm = -0.0036     CD =  0.01803   =>   CDf =  0.00678    CDp =  0.01125

 Side 1  free  transition at x/c =  0.0404   30
 Side 2 forced transition at x/c =  1.0000   68

   2   rms: 0.3591E-01   max: -.3369E+00   D at   31  1
       a = 10.000      CL =  1.1724
      Cm = -0.0041     CD =  0.01766   =>   CDf =  0.00665    CDp =  0.01102

 Side 1  free  transition at x/c =  0.0403   30
 Side 2 forced transition at x/c =  1.0000   68

   3   rms: 0.3869E-02   max: 0.3769E-01   D at   30  1
       a = 10.000      CL =  1.1702
      Cm = -0.0038     CD =  0.01781   =>   CDf =  0.00671    CDp =  0.01111

 Side 1  free  transition at x/c =  0.0401   30
 Side 2 forced transition at x/c =  1.0000   68

   4   rms: 0.4997E-04   max: -.3721E-03   D at   31  1
       a = 10.000      CL =  1.1702
      Cm = -0.0038     CD =  0.01781   =>   CDf =  0.00671    CDp =  0.01110
 plradd ia,ip,cpol           29           0  1.86344108E-03

 Point added to stored polar  1
 Point written to save file  m6_Re600k.base.pol                              
 Dump file unspecified or not available

.OPERva   c>  
 Solving BL system ...

 Side 1  free  transition at x/c =  0.0401   30
 Side 2 forced transition at x/c =  1.0000   68

   1   rms: 0.5754E-06   max: 0.2546E-05   D at   66  2
       a = 10.000      CL =  1.1702
      Cm = -0.0038     CD =  0.01781   =>   CDf =  0.00671    CDp =  0.01110
 plradd ia,ip,cpol           30         182  1.86344108E-03

 Point added to stored polar  1
 Point written to save file  m6_Re600k.base.pol                              
 Dump file unspecified or not available
 Calculating wake trajectory ...
 Calculating source influence matrix ...

 Solving BL system ...

 Side 1  free  transition at x/c =  0.0401   30
 Side 2 forced transition at x/c =  1.0000   68

   1   rms: 0.3637E-01   max: 0.1487E+00   T at   30  1
       a = 10.250      CL =  1.1848
      Cm = -0.0018     CD =  0.01835   =>   CDf =  0.00671    CDp =  0.01164

 Side 1  free  transition at x/c =  0.0380   30
 Side 2 forced transition at x/c =  1.0000   68

   2   rms: 0.2320E-02   max: -.2360E-01   D at   30  1
       a = 10.250      CL =  1.1831
      Cm = -0.0015     CD =  0.01840   =>   CDf =  0.00669    CDp =  0.01171

 Side 1  free  transition at x/c =  0.0381   30
 Side 2 forced transition at x/c =  1.0000   68

   3   rms: 0.1467E-04   max: 0.6340E-04   T at   31  1
       a = 10.250      CL =  1.1831
      Cm = -0.0016     CD =  0.01840   =>   CDf =  0.00670    CDp =  0.01171
 plradd ia,ip,cpol           31           0  1.86344108E-03

 Point added to stored polar  1
 Point written to save file  m6_Re600k.base.pol                              
 Dump file unspecified or not available
 Calculating wake trajectory ...
 Calculating source influence matrix ...

 Solving BL system ...

 Side 1  free  transition at x/c =  0.0381   30
 Side 2 forced transition at x/c =  1.0000   68

   1   rms: 0.3808E-01   max: -.1526E+00   D at   30  1
       a = 10.500      CL =  1.1946
      Cm =  0.0009     CD =  0.01911   =>   CDf =  0.00670    CDp =  0.01241

 Side 1  free  transition at x/c =  0.0361   30
 Side 2 forced transition at x/c =  1.0000   68

   2   rms: 0.6391E-02   max: -.3958E-01   D at   30  1
       a = 10.500      CL =  1.1899
      Cm =  0.0016     CD =  0.01931   =>   CDf =  0.00667    CDp =  0.01264

 Side 1  free  transition at x/c =  0.0357   30
 Side 2 forced transition at x/c =  1.0000   68

   3   rms: 0.3247E-03   max: -.2170E-02   D at   30  1
       a = 10.500      CL =  1.1897
      Cm =  0.0016     CD =  0.01931   =>   CDf =  0.00667    CDp =  0.01264

 Side 1  free  transition at x/c =  0.0357   30
 Side 2 forced transition at x/c =  1.0000   68

   4   rms: 0.3284E-05   max: -.1121E-04   D at   30  1
       a = 10.500      CL =  1.1897
      Cm =  0.0016     CD =  0.01931   =>   CDf =  0.00667    CDp =  0.01264
 plradd ia,ip,cpol           32           0  1.86344108E-03

 Point added to stored polar  1
 Point written to save file  m6_Re600k.base.pol                              
 Dump file unspecified or not available
 Calculating wake trajectory ...
 Calculating source influence matrix ...

 Solving BL system ...

 Side 1  free  transition at x/c =  0.0357   30
 Side 2 forced transition at x/c =  1.0000   68

   1   rms: 0.4843E-01   max: -.2478E+00   C at   68  2
       a = 10.750      CL =  1.1896
      Cm =  0.0057     CD =  0.02061   =>   CDf =  0.00645    CDp =  0.01416

 Side 1  free  transition at x/c =  0.0340   30
 Side 2 forced transition at x/c =  1.0000   67

   2   rms: 0.4032E-01   max: -.3547E+00   D at   30  1
       a = 10.750      CL =  1.2020
      Cm =  0.0039     CD =  0.01976   =>   CDf =  0.00655    CDp =  0.01321

 Side 1  free  transition at x/c =  0.0346   30
 Side 2 forced transition at x/c =  1.0000   67

   3   rms: 0.3004E-02   max: 0.2974E-01   D at   30  1
       a = 10.750      CL =  1.2032
      Cm =  0.0037     CD =  0.01980   =>   CDf =  0.00661    CDp =  0.01319

 Side 1  free  transition at x/c =  0.0345   30
 Side 2 forced transition at x/c =  1.0000   67

   4   rms: 0.6081E-04   max: 0.2901E-03   D at   95  1
       a = 10.750      CL =  1.2032
      Cm =  0.0037     CD =  0.01980   =>   CDf =  0.00660    CDp =  0.01320
 plradd ia,ip,cpol           33           0  1.07270130E-03

 Point added to stored polar  1
 Point written to save file  m6_Re600k.base.pol                              
 Dump file unspecified or not available
 Calculating wake trajectory ...
 Calculating source influence matrix ...

 Solving BL system ...

 Side 1  free  transition at x/c =  0.0345   30
 Side 2 forced transition at x/c =  1.0000   67

   1   rms: 0.3488E-01   max: -.1648E+00   C at   67  2
       a = 11.000      CL =  1.2157
      Cm =  0.0058     CD =  0.02038   =>   CDf =  0.00661    CDp =  0.01377

 Side 1  free  transition at x/c =  0.0328   30
 Side 2 forced transition at x/c =  1.0000   67

   2   rms: 0.3482E-02   max: -.3115E-01   D at   30  1
       a = 11.000      CL =  1.2136
      Cm =  0.0062     CD =  0.02041   =>   CDf =  0.00656    CDp =  0.01385

 Side 1  free  transition at x/c =  0.0329   30
 Side 2 forced transition at x/c =  1.0000   67

   3   rms: 0.1948E-03   max: -.2239E-02   C at   67  2
       a = 11.000      CL =  1.2134
      Cm =  0.0062     CD =  0.02041   =>   CDf =  0.00656    CDp =  0.01385

 Side 1  free  transition at x/c =  0.0329   30
 Side 2 forced transition at x/c =  1.0000   67

   4   rms: 0.6268E-06   max: 0.3742E-05   C at   67  2
       a = 11.000      CL =  1.2134
      Cm =  0.0062     CD =  0.02041   =>   CDf =  0.00656    CDp =  0.01385
 plradd ia,ip,cpol           34           0  1.07270130E-03

 Point added to stored polar  1
 Point written to save file  m6_Re600k.base.pol                              
 Dump file unspecified or not available
 Calculating wake trajectory ...
 Calculating source influence matrix ...

 Solving BL system ...

 Side 1  free  transition at x/c =  0.0329   30
 Side 2 forced transition at x/c =  1.0000   67

   1   rms: 0.3470E-01   max: -.2253E+00   C at   67  2
       a = 11.250      CL =  1.2210
      Cm =  0.0091     CD =  0.02108   =>   CDf =  0.00656    CDp =  0.01452

 Side 1  free  transition at x/c =  0.0315   30
 Side 2 forced transition at x/c =  1.0000   67

   2   rms: 0.3871E-02   max: 0.2547E-01   D at   93  1
       a = 11.250      CL =  1.2187
      Cm =  0.0094     CD =  0.02114   =>   CDf =  0.00653    CDp =  0.01462

 Side 1  free  transition at x/c =  0.0316   30
 Side 2 forced transition at x/c =  1.0000   67

   3   rms: 0.1103E-03   max: 0.1411E-02   D at   91  1
       a = 11.250      CL =  1.2187
      Cm =  0.0093     CD =  0.02115   =>   CDf =  0.00652    CDp =  0.01462

 Side 1  free  transition at x/c =  0.0316   30
 Side 2 forced transition at x/c =  1.0000   67

   4   rms: 0.2224E-05   max: 0.1062E-04   D at   91  1
       a = 11.250      CL =  1.2187
      Cm =  0.0093     CD =  0.02115   =>   CDf =  0.00652    CDp =  0.01462
 plradd ia,ip,cpol           35           0  1.07270130E-03

 Point added to stored polar  1
 Point written to save file  m6_Re600k.base.pol                              
 Dump file unspecified or not available
 Calculating wake trajectory ...
 Calculating source influence matrix ...

 Solving BL system ...

 Side 1  free  transition at x/c =  0.0316   30
 Side 2 forced transition at x/c =  1.0000   67

   1   rms: 0.3712E-01   max: -.2255E+00   C at   67  2
       a = 11.500      CL =  1.2242
      Cm =  0.0122     CD =  0.02208   =>   CDf =  0.00652    CDp =  0.01555

 Side 1  free  transition at x/c =  0.0304   30
 Side 2 forced transition at x/c =  1.0000   67

   2   rms: 0.6739E-02   max: 0.4187E-01   D at   89  1
       a = 11.500      CL =  1.2206
      Cm =  0.0123     CD =  0.02234   =>   CDf =  0.00649    CDp =  0.01585

 Side 1  free  transition at x/c =  0.0302   30
 Side 2 forced transition at x/c =  1.0000   67

   3   rms: 0.3764E-03   max: 0.5086E-02   D at   88  1
       a = 11.500      CL =  1.2204
      Cm =  0.0124     CD =  0.02234   =>   CDf =  0.00649    CDp =  0.01585

 Side 1  free  transition at x/c =  0.0302   30
 Side 2 forced transition at x/c =  1.0000   67

   4   rms: 0.6454E-05   max: 0.5098E-04   D at   88  1
       a = 11.500      CL =  1.2204
      Cm =  0.0124     CD =  0.02234   =>   CDf =  0.00649    CDp =  0.01585
 plradd ia,ip,cpol           36           0  1.07270130E-03

 Point added to stored polar  1
 Point written to save file  m6_Re600k.base.pol                              
 Dump file unspecified or not available
 Calculating wake trajectory ...
 Calculating source influence matrix ...

 Solving BL system ...

 Side 1  free  transition at x/c =  0.0302   30
 Side 2 forced transition at x/c =  1.0000   67

   1   rms: 0.4780E-01   max: -.2383E+00   C at   67  2
       a = 11.750      CL =  1.2187
      Cm =  0.0153     CD =  0.02405   =>   CDf =  0.00649    CDp =  0.01757

 Side 1  free  transition at x/c =  0.0291   29
 Side 2 forced transition at x/c =  1.0000   67

   2   rms: 0.1686E-01   max: -.1339E+00   D at   29  1
       a = 11.750      CL =  1.2246
      Cm =  0.0145     CD =  0.02360   =>   CDf =  0.00639    CDp =  0.01721

 Side 1  free  transition at x/c =  0.0292   29
 Side 2 forced transition at x/c =  1.0000   67

   3   rms: 0.1280E-02   max: 0.6055E-02   C at   67  2
       a = 11.750      CL =  1.2254
      Cm =  0.0144     CD =  0.02361   =>   CDf =  0.00641    CDp =  0.01720

 Side 1  free  transition at x/c =  0.0291   29
 Side 2 forced transition at x/c =  1.0000   67

   4   rms: 0.1249E-04   max: -.1037E-03   C at   67  2
       a = 11.750      CL =  1.2254
      Cm =  0.0144     CD =  0.02361   =>   CDf =  0.00641    CDp =  0.01720
 plradd ia,ip,cpol           37           0  1.07270130E-03

 Point added to stored polar  1
 Point written to save file  m6_Re600k.base.pol                              
 Dump file unspecified or not available
 Calculating wake trajectory ...
 Calculating source influence matrix ...

 Solving BL system ...

 Side 1  free  transition at x/c =  0.0291   29
 Side 2 forced transition at x/c =  1.0000   67

   1   rms: 0.3579E-01   max: 0.1604E+00   T at   29  1
       a = 12.000      CL =  1.2388
      Cm =  0.0155     CD =  0.02452   =>   CDf =  0.00641    CDp =  0.01811

 Side 1  free  transition at x/c =  0.0280   29
 Side 2 forced transition at x/c =  1.0000   67

   2   rms: 0.3225E-02   max: 0.2387E-01   D at   84  1
       a = 12.000      CL =  1.2367
      Cm =  0.0156     CD =  0.02463   =>   CDf =  0.00634    CDp =  0.01829

 Side 1  free  transition at x/c =  0.0281   29
 Side 2 forced transition at x/c =  1.0000   67

   3   rms: 0.6341E-04   max: 0.8529E-03   D at   84  1
       a = 12.000      CL =  1.2367
      Cm =  0.0156     CD =  0.02462   =>   CDf =  0.00633    CDp =  0.01829
 plradd ia,ip,cpol           38           0  1.07270130E-03

 Point added to stored polar  1
 Point written to save file  m6_Re600k.base.pol                              
 Dump file unspecified or not available
 Calculating wake trajectory ...
 Calculating source influence matrix ...

 Solving BL system ...

 Side 1  free  transition at x/c =  0.0281   29
 Side 2 forced transition at x/c =  1.0000   67

   1   rms: 0.3655E-01   max: 0.1435E+00   T at   29  1
       a = 12.250      CL =  1.2481
      Cm =  0.0166     CD =  0.02579   =>   CDf =  0.00605    CDp =  0.01974

 Side 1  free  transition at x/c =  0.0268   30
 Side 2 forced transition at x/c =  1.0000   66

   2   rms: 0.4832E-02   max: -.3619E-01   D at   30  1
       a = 12.250      CL =  1.2466
      Cm =  0.0166     CD =  0.02583   =>   CDf =  0.00627    CDp =  0.01956

 Side 1  free  transition at x/c =  0.0269   30
 Side 2 forced transition at x/c =  1.0000   66

   3   rms: 0.9304E-03   max: -.1044E-01   D at    4  1
       a = 12.250      CL =  1.2466
      Cm =  0.0166     CD =  0.02582   =>   CDf =  0.00627    CDp =  0.01956

 Side 1  free  transition at x/c =  0.0269   30
 Side 2 forced transition at x/c =  1.0000   66

   4   rms: 0.4342E-05   max: -.1430E-04   D at   80  2
       a = 12.250      CL =  1.2466
      Cm =  0.0166     CD =  0.02582   =>   CDf =  0.00627    CDp =  0.01956
 plradd ia,ip,cpol           39           0  1.07270130E-03

 Point added to stored polar  1
 Point written to save file  m6_Re600k.base.pol                              
 Dump file unspecified or not available
 Calculating wake trajectory ...
 Calculating source influence matrix ...

 Solving BL system ...

 Side 1  free  transition at x/c =  0.0269   30
 Side 2 forced transition at x/c =  1.0000   66

   1   rms: 0.3716E-01   max: 0.1491E+00   T at   30  1
       a = 12.500      CL =  1.2577
      Cm =  0.0174     CD =  0.02714   =>   CDf =  0.00627    CDp =  0.02087

 Side 1  free  transition at x/c =  0.0257   30
 Side 2 forced transition at x/c =  1.0000   66

   2   rms: 0.5082E-02   max: -.4365E-01   D at   30  1
       a = 12.500      CL =  1.2554
      Cm =  0.0175     CD =  0.02721   =>   CDf =  0.00622    CDp =  0.02098

 Side 1  free  transition at x/c =  0.0259   30
 Side 2 forced transition at x/c =  1.0000   66

   3   rms: 0.1586E-03   max: 0.1293E-02   D at   81  1
       a = 12.500      CL =  1.2555
      Cm =  0.0175     CD =  0.02720   =>   CDf =  0.00622    CDp =  0.02098

 Side 1  free  transition at x/c =  0.0259   30
 Side 2 forced transition at x/c =  1.0000   66

   4   rms: 0.3620E-05   max: -.1347E-04   D at   75  2
       a = 12.500      CL =  1.2555
      Cm =  0.0175     CD =  0.02720   =>   CDf =  0.00622    CDp =  0.02098
 plradd ia,ip,cpol           40           0  1.07270130E-03

 Point added to stored polar  1
 Point written to save file  m6_Re600k.base.pol                              
 Dump file unspecified or not available
 Calculating wake trajectory ...
 Calculating source influence matrix ...

 Solving BL system ...

 Side 1  free  transition at x/c =  0.0259   30
 Side 2 forced transition at x/c =  1.0000   66

   1   rms: 0.3924E-01   max: 0.1450E+00   T at   30  1
       a = 12.750      CL =  1.2638
      Cm =  0.0182     CD =  0.02888   =>   CDf =  0.00622    CDp =  0.02265

 Side 1  free  transition at x/c =  0.0249   30
 Side 2 forced transition at x/c =  1.0000   66

   2   rms: 0.9155E-02   max: 0.5232E-01   D at   80  1
       a = 12.750      CL =  1.2579
      Cm =  0.0184     CD =  0.02928   =>   CDf =  0.00619    CDp =  0.02309

 Side 1  free  transition at x/c =  0.0248   30
 Side 2 forced transition at x/c =  1.0000   66

   3   rms: 0.4492E-03   max: 0.5890E-02   D at   79  1
       a = 12.750      CL =  1.2577
      Cm =  0.0184     CD =  0.02926   =>   CDf =  0.00618    CDp =  0.02308

 Side 1  free  transition at x/c =  0.0248   30
 Side 2 forced transition at x/c =  1.0000   66

   4   rms: 0.8286E-05   max: 0.7955E-04   D at   79  1
       a = 12.750      CL =  1.2577
      Cm =  0.0184     CD =  0.02925   =>   CDf =  0.00617    CDp =  0.02308
 plradd ia,ip,cpol           41           0  1.07270130E-03

 Point added to stored polar  1
 Point written to save file  m6_Re600k.base.pol                              
 Dump file unspecified or not available
 Calculating wake trajectory ...
 Calculating source influence matrix ...

 Solving BL system ...

 Side 1  free  transition at x/c =  0.0248   30
 Side 2 forced transition at x/c =  1.0000   66

   1   rms: 0.5034E-01   max: 0.1729E+00   D at   77  1
       a = 13.000      CL =  1.2557
      Cm =  0.0192     CD =  0.03211   =>   CDf =  0.00618    CDp =  0.02593

 Side 1  free  transition at x/c =  0.0240   29
 Side 2 forced transition at x/c =  1.0000   66

   2   rms: 0.1352E-01   max: -.1068E+00   D at   29  1
       a = 13.000      CL =  1.2592
      Cm =  0.0192     CD =  0.03142   =>   CDf =  0.00608    CDp =  0.02534

 Side 1  free  transition at x/c =  0.0241   29
 Side 2 forced transition at x/c =  1.0000   66

   3   rms: 0.2129E-02   max: -.8807E-02   D at   78  1
       a = 13.000      CL =  1.2605
      Cm =  0.0192     CD =  0.03135   =>   CDf =  0.00609    CDp =  0.02527

 Side 1  free  transition at x/c =  0.0240   29
 Side 2 forced transition at x/c =  1.0000   66

   4   rms: 0.1024E-03   max: -.4916E-03   D at   75  2
       a = 13.000      CL =  1.2605
      Cm =  0.0191     CD =  0.03136   =>   CDf =  0.00609    CDp =  0.02527

 Side 1  free  transition at x/c =  0.0240   29
 Side 2 forced transition at x/c =  1.0000   66

   5   rms: 0.3691E-05   max: -.1302E-04   D at   79  2
       a = 13.000      CL =  1.2605
      Cm =  0.0191     CD =  0.03136   =>   CDf =  0.00609    CDp =  0.02527
 plradd ia,ip,cpol           42           0  1.07270130E-03

 Point added to stored polar  1
 Point written to save file  m6_Re600k.base.pol                              
 Dump file unspecified or not available
 Calculating wake trajectory ...
 Calculating source influence matrix ...

 Solving BL system ...

 Side 1  free  transition at x/c =  0.0240   29
 Side 2 forced transition at x/c =  1.0000   66

   1   rms: 0.3510E-01   max: 0.1616E+00   T at   29  1
       a = 13.250      CL =  1.2742
      Cm =  0.0193     CD =  0.03273   =>   CDf =  0.00609    CDp =  0.02664

 Side 1  free  transition at x/c =  0.0232   29
 Side 2 forced transition at x/c =  1.0000   66

   2   rms: 0.4955E-02   max: 0.2460E-01   D at   76  1
       a = 13.250      CL =  1.2709
      Cm =  0.0194     CD =  0.03290   =>   CDf =  0.00601    CDp =  0.02690

 Side 1  free  transition at x/c =  0.0233   29
 Side 2 forced transition at x/c =  1.0000   66

   3   rms: 0.3328E-03   max: 0.2619E-02   D at   76  2
       a = 13.250      CL =  1.2707
      Cm =  0.0195     CD =  0.03289   =>   CDf =  0.00600    CDp =  0.02689

 Side 1  free  transition at x/c =  0.0233   29
 Side 2 forced transition at x/c =  1.0000   66

   4   rms: 0.1561E-04   max: 0.1065E-03   D at   76  2
       a = 13.250      CL =  1.2707
      Cm =  0.0195     CD =  0.03289   =>   CDf =  0.00600    CDp =  0.02689
 plradd ia,ip,cpol           43           0  1.07270130E-03

 Point added to stored polar  1
 Point written to save file  m6_Re600k.base.pol                              
 Dump file unspecified or not available
 Calculating wake trajectory ...
 Calculating source influence matrix ...

 Solving BL system ...

 Side 1  free  transition at x/c =  0.0233   29
 Side 2 forced transition at x/c =  1.0000   66

   1   rms: 0.3539E-01   max: 0.1240E+00   T at   29  1
       a = 13.500      CL =  1.2809
      Cm =  0.0196     CD =  0.03469   =>   CDf =  0.00600    CDp =  0.02869

 Side 1  free  transition at x/c =  0.0224   29
 Side 2 forced transition at x/c =  1.0000   66

   2   rms: 0.4015E-02   max: 0.2793E-01   D at   75  1
       a = 13.500      CL =  1.2781
      Cm =  0.0197     CD =  0.03473   =>   CDf =  0.00593    CDp =  0.02880

 Side 1  free  transition at x/c =  0.0225   29
 Side 2 forced transition at x/c =  1.0000   66

   3   rms: 0.1438E-03   max: 0.8131E-03   D at   77  2
       a = 13.500      CL =  1.2780
      Cm =  0.0197     CD =  0.03471   =>   CDf =  0.00592    CDp =  0.02879

 Side 1  free  transition at x/c =  0.0225   29
 Side 2 forced transition at x/c =  1.0000   66

   4   rms: 0.2934E-05   max: -.1142E-04   T at   76  2
       a = 13.500      CL =  1.2780
      Cm =  0.0197     CD =  0.03471   =>   CDf =  0.00592    CDp =  0.02879
 plradd ia,ip,cpol           44           0  1.07270130E-03

 Point added to stored polar  1
 Point written to save file  m6_Re600k.base.pol                              
 Dump file unspecified or not available
 Calculating wake trajectory ...
 Calculating source influence matrix ...

 Solving BL system ...

 Side 1  free  transition at x/c =  0.0225   29
 Side 2 forced transition at x/c =  1.0000   66

   1   rms: 0.3527E-01   max: 0.1163E+00   T at   29  1
       a = 13.750      CL =  1.2870
      Cm =  0.0198     CD =  0.03668   =>   CDf =  0.00560    CDp =  0.03109

 Side 1  free  transition at x/c =  0.0217   30
 Side 2 forced transition at x/c =  1.0000   65

   2   rms: 0.4592E-02   max: 0.3035E-01   D at   75  1
       a = 13.750      CL =  1.2845
      Cm =  0.0199     CD =  0.03669   =>   CDf =  0.00585    CDp =  0.03084

 Side 1  free  transition at x/c =  0.0218   30
 Side 2 forced transition at x/c =  1.0000   65

   3   rms: 0.6087E-03   max: -.7221E-02   D at    4  1
       a = 13.750      CL =  1.2844
      Cm =  0.0199     CD =  0.03666   =>   CDf =  0.00585    CDp =  0.03082

 Side 1  free  transition at x/c =  0.0218   30
 Side 2 forced transition at x/c =  1.0000   65

   4   rms: 0.2912E-05   max: -.1127E-04   D at   77  2
       a = 13.750      CL =  1.2844
      Cm =  0.0199     CD =  0.03666   =>   CDf =  0.00585    CDp =  0.03082
 plradd ia,ip,cpol           45           0  5.01180824E-04

 Point added to stored polar  1
 Point written to save file  m6_Re600k.base.pol                              
 Dump file unspecified or not available
 Calculating wake trajectory ...
 Calculating source influence matrix ...

 Solving BL system ...

 Side 1  free  transition at x/c =  0.0218   30
 Side 2 forced transition at x/c =  1.0000   65

   1   rms: 0.3540E-01   max: 0.1165E+00   T at   30  1
       a = 14.000      CL =  1.2926
      Cm =  0.0198     CD =  0.03883   =>   CDf =  0.00585    CDp =  0.03298

 Side 1  free  transition at x/c =  0.0211   30
 Side 2 forced transition at x/c =  1.0000   65

   2   rms: 0.4664E-02   max: -.2417E-01   D at   30  1
       a = 14.000      CL =  1.2896
      Cm =  0.0200     CD =  0.03881   =>   CDf =  0.00579    CDp =  0.03302

 Side 1  free  transition at x/c =  0.0212   30
 Side 2 forced transition at x/c =  1.0000   65

   3   rms: 0.1286E-03   max: 0.2147E-02   D at   76  2
       a = 14.000      CL =  1.2896
      Cm =  0.0200     CD =  0.03879   =>   CDf =  0.00579    CDp =  0.03300

 Side 1  free  transition at x/c =  0.0212   30
 Side 2 forced transition at x/c =  1.0000   65

   4   rms: 0.8673E-05   max: -.3393E-04   D at   75  2
       a = 14.000      CL =  1.2896
      Cm =  0.0200     CD =  0.03879   =>   CDf =  0.00579    CDp =  0.03300
 plradd ia,ip,cpol           46           0  5.01180824E-04

 Point added to stored polar  1
 Point written to save file  m6_Re600k.base.pol                              
 Dump file unspecified or not available
 Calculating wake trajectory ...
 Calculating source influence matrix ...

 Solving BL system ...

 Side 1  free  transition at x/c =  0.0212   30
 Side 2 forced transition at x/c =  1.0000   65

   1   rms: 0.3575E-01   max: 0.1205E+00   T at   30  1
       a = 14.250      CL =  1.2962
      Cm =  0.0198     CD =  0.04119   =>   CDf =  0.00579    CDp =  0.03540

 Side 1  free  transition at x/c =  0.0205   30
 Side 2 forced transition at x/c =  1.0000   65

   2   rms: 0.6762E-02   max: 0.3725E-01   D at   72  1
       a = 14.250      CL =  1.2913
      Cm =  0.0200     CD =  0.04135   =>   CDf =  0.00574    CDp =  0.03561

 Side 1  free  transition at x/c =  0.0206   30
 Side 2 forced transition at x/c =  1.0000   65

   3   rms: 0.3297E-03   max: 0.1859E-02   D at   77  2
       a = 14.250      CL =  1.2911
      Cm =  0.0200     CD =  0.04131   =>   CDf =  0.00573    CDp =  0.03558

 Side 1  free  transition at x/c =  0.0206   30
 Side 2 forced transition at x/c =  1.0000   65

   4   rms: 0.9664E-05   max: 0.5902E-04   D at   76  2
       a = 14.250      CL =  1.2910
      Cm =  0.0200     CD =  0.04131   =>   CDf =  0.00573    CDp =  0.03558
 plradd ia,ip,cpol           47           0  5.01180824E-04

 Point added to stored polar  1
 Point written to save file  m6_Re600k.base.pol                              
 Dump file unspecified or not available
 Calculating wake trajectory ...
 Calculating source influence matrix ...

 Solving BL system ...

 Side 1  free  transition at x/c =  0.0206   30
 Side 2 forced transition at x/c =  1.0000   65

   1   rms: 0.3829E-01   max: 0.1328E+00   D at   70  1   RLX: 0.977
       a = 14.500      CL =  1.2925
      Cm =  0.0199     CD =  0.04431   =>   CDf =  0.00573    CDp =  0.03858

 Side 1  free  transition at x/c =  0.0200   30
 Side 2 forced transition at x/c =  1.0000   65

   2   rms: 0.9371E-02   max: 0.5158E-01   D at   71  1
       a = 14.500      CL =  1.2859
      Cm =  0.0201     CD =  0.04465   =>   CDf =  0.00568    CDp =  0.03898

 Side 1  free  transition at x/c =  0.0200   30
 Side 2 forced transition at x/c =  1.0000   65

   3   rms: 0.5214E-03   max: 0.5211E-02   D at   70  1
       a = 14.500      CL =  1.2856
      Cm =  0.0201     CD =  0.04457   =>   CDf =  0.00567    CDp =  0.03891

 Side 1  free  transition at x/c =  0.0200   30
 Side 2 forced transition at x/c =  1.0000   65

   4   rms: 0.9955E-05   max: 0.6779E-04   D at   77  2
       a = 14.500      CL =  1.2856
      Cm =  0.0201     CD =  0.04457   =>   CDf =  0.00567    CDp =  0.03890
 plradd ia,ip,cpol           48           0  5.01180824E-04

 Point added to stored polar  1
 Point written to save file  m6_Re600k.base.pol                              
 Dump file unspecified or not available
 Calculating wake trajectory ...
 Calculating source influence matrix ...

 Solving BL system ...

 Side 1  free  transition at x/c =  0.0200   30
 Side 2 forced transition at x/c =  1.0000   65

   1   rms: 0.4633E-01   max: 0.1712E+00   D at   68  1   RLX: 0.901
       a = 14.750      CL =  1.2792
      Cm =  0.0200     CD =  0.04833   =>   CDf =  0.00567    CDp =  0.04266

 Side 1  free  transition at x/c =  0.0196   29
 Side 2 forced transition at x/c =  1.0000   65

   2   rms: 0.1117E-01   max: -.1012E+00   D at   29  1
       a = 14.750      CL =  1.2836
      Cm =  0.0201     CD =  0.04749   =>   CDf =  0.00557    CDp =  0.04192

 Side 1  free  transition at x/c =  0.0196   29
 Side 2 forced transition at x/c =  1.0000   65

   3   rms: 0.1979E-02   max: -.7975E-02   D at   70  1
       a = 14.750      CL =  1.2848
      Cm =  0.0201     CD =  0.04735   =>   CDf =  0.00557    CDp =  0.04178

 Side 1  free  transition at x/c =  0.0196   29
 Side 2 forced transition at x/c =  1.0000   65

   4   rms: 0.1703E-03   max: -.9080E-03   D at   77  2
       a = 14.750      CL =  1.2850
      Cm =  0.0201     CD =  0.04737   =>   CDf =  0.00557    CDp =  0.04180

 Side 1  free  transition at x/c =  0.0196   29
 Side 2 forced transition at x/c =  1.0000   65

   5   rms: 0.7113E-05   max: -.4164E-04   D at   77  2
       a = 14.750      CL =  1.2850
      Cm =  0.0201     CD =  0.04737   =>   CDf =  0.00557    CDp =  0.04180
 plradd ia,ip,cpol           49           0  5.01180824E-04

 Point added to stored polar  1
 Point written to save file  m6_Re600k.base.pol                              
 Dump file unspecified or not available
 Calculating wake trajectory ...
 Calculating source influence matrix ...

 Solving BL system ...

 Side 1  free  transition at x/c =  0.0196   29
 Side 2 forced transition at x/c =  1.0000   65

   1   rms: 0.3219E-01   max: 0.1209E+00   T at   29  1   RLX: 0.878
       a = 15.000      CL =  1.2918
      Cm =  0.0197     CD =  0.04955   =>   CDf =  0.00558    CDp =  0.04398

 Side 1  free  transition at x/c =  0.0192   29
 Side 2 forced transition at x/c =  1.0000   65

   2   rms: 0.5846E-02   max: 0.3069E-01   D at   68  1
       a = 15.000      CL =  1.2895
      Cm =  0.0198     CD =  0.04985   =>   CDf =  0.00548    CDp =  0.04436

 Side 1  free  transition at x/c =  0.0192   29
 Side 2 forced transition at x/c =  1.0000   65

   3   rms: 0.8102E-03   max: 0.3734E-02   D at   78  2
       a = 15.000      CL =  1.2889
      Cm =  0.0199     CD =  0.04980   =>   CDf =  0.00547    CDp =  0.04433

 Side 1  free  transition at x/c =  0.0192   29
 Side 2 forced transition at x/c =  1.0000   65

   4   rms: 0.5615E-04   max: 0.2959E-03   D at   78  2
       a = 15.000      CL =  1.2888
      Cm =  0.0199     CD =  0.04979   =>   CDf =  0.00547    CDp =  0.04433
 plradd ia,ip,cpol           50           0  5.01180824E-04

 Point added to stored polar  1
 Point written to save file  m6_Re600k.base.pol                              
 Dump file unspecified or not available
 Calculating wake trajectory ...
 Calculating source influence matrix ...

 Solving BL system ...

 Side 1  free  transition at x/c =  0.0192   29
 Side 2 forced transition at x/c =  1.0000   65

   1   rms: 0.3213E-01   max: 0.1049E+00   T at   29  1   RLX: 0.838
       a = 15.250      CL =  1.2938
      Cm =  0.0195     CD =  0.05212   =>   CDf =  0.00547    CDp =  0.04665

 Side 1  free  transition at x/c =  0.0188   29
 Side 2 forced transition at x/c =  1.0000   65

   2   rms: 0.6763E-02   max: 0.3417E-01   D at   67  1
       a = 15.250      CL =  1.2917
      Cm =  0.0195     CD =  0.05250   =>   CDf =  0.00539    CDp =  0.04711

 Side 1  free  transition at x/c =  0.0187   29
 Side 2 forced transition at x/c =  1.0000   65

   3   rms: 0.9890E-03   max: 0.4783E-02   D at   78  2
       a = 15.250      CL =  1.2910
      Cm =  0.0196     CD =  0.05244   =>   CDf =  0.00537    CDp =  0.04707

 Side 1  free  transition at x/c =  0.0187   29
 Side 2 forced transition at x/c =  1.0000   65

   4   rms: 0.7537E-04   max: 0.4116E-03   D at   78  2
       a = 15.250      CL =  1.2909
      Cm =  0.0196     CD =  0.05243   =>   CDf =  0.00537    CDp =  0.04706
 plradd ia,ip,cpol           51           0  5.01180824E-04

 Point added to stored polar  1
 Point written to save file  m6_Re600k.base.pol                              
 Dump file unspecified or not available
 Calculating wake trajectory ...
 Calculating source influence matrix ...

 Solving BL system ...

 Side 1  free  transition at x/c =  0.0187   29
 Side 2 forced transition at x/c =  1.0000   65

   1   rms: 0.3193E-01   max: 0.1061E+00   D at   65  1   RLX: 0.800
       a = 15.500      CL =  1.2947
      Cm =  0.0191     CD =  0.05484   =>   CDf =  0.00537    CDp =  0.04946

 Side 1  free  transition at x/c =  0.0183   29
 Side 2 forced transition at x/c =  1.0000   65

   2   rms: 0.7462E-02   max: 0.3614E-01   D at   66  1
       a = 15.500      CL =  1.2931
      Cm =  0.0191     CD =  0.05531   =>   CDf =  0.00530    CDp =  0.05001

 Side 1  free  transition at x/c =  0.0183   29
 Side 2 forced transition at x/c =  1.0000   65

   3   rms: 0.1155E-02   max: 0.6608E-02   D at   78  2
       a = 15.500      CL =  1.2923
      Cm =  0.0192     CD =  0.05524   =>   CDf =  0.00528    CDp =  0.04996

 Side 1  free  transition at x/c =  0.0183   29
 Side 2 forced transition at x/c =  1.0000   65

   4   rms: 0.8899E-04   max: 0.4863E-03   D at   78  2
       a = 15.500      CL =  1.2922
      Cm =  0.0192     CD =  0.05523   =>   CDf =  0.00528    CDp =  0.04995
 plradd ia,ip,cpol           52           0  5.01180824E-04

 Point added to stored polar  1
 Point written to save file  m6_Re600k.base.pol                              
 Dump file unspecified or not available
 Calculating wake trajectory ...
 Calculating source influence matrix ...

 Solving BL system ...

 Side 1  free  transition at x/c =  0.0183   29
 Side 2 forced transition at x/c =  1.0000   65

   1   rms: 0.3172E-01   max: 0.1078E+00   D at   64  1   RLX: 0.765
       a = 15.750      CL =  1.2955
      Cm =  0.0186     CD =  0.05766   =>   CDf =  0.00492    CDp =  0.05274

 Side 1  free  transition at x/c =  0.0179   30
 Side 2 forced transition at x/c =  1.0000   64

   2   rms: 0.3341E-01   max: 0.5665E+00   D at    2  1
       a = 15.750      CL =  1.2941
      Cm =  0.0185     CD =  0.05825   =>   CDf =  0.00522    CDp =  0.05304

 Side 1  free  transition at x/c =  0.0178   30
 Side 2 forced transition at x/c =  1.0000   64

   3   rms: 0.1720E-02   max: 0.1479E-01   D at    4  1
       a = 15.750      CL =  1.2931
      Cm =  0.0186     CD =  0.05818   =>   CDf =  0.00520    CDp =  0.05298

 Side 1  free  transition at x/c =  0.0178   30
 Side 2 forced transition at x/c =  1.0000   64

   4   rms: 0.1113E-03   max: 0.5516E-03   D at   77  2
       a = 15.750      CL =  1.2931
      Cm =  0.0186     CD =  0.05817   =>   CDf =  0.00519    CDp =  0.05297

 Side 1  free  transition at x/c =  0.0178   30
 Side 2 forced transition at x/c =  1.0000   64

   5   rms: 0.6358E-05   max: 0.3482E-04   D at   77  2
       a = 15.750      CL =  1.2930
      Cm =  0.0186     CD =  0.05816   =>   CDf =  0.00519    CDp =  0.05297
 plradd ia,ip,cpol           53           0  5.01180824E-04

 Point added to stored polar  1
 Point written to save file  m6_Re600k.base.pol                              
 Dump file unspecified or not available
 Calculating wake trajectory ...
 Calculating source influence matrix ...

 Solving BL system ...

 Side 1  free  transition at x/c =  0.0178   30
 Side 2 forced transition at x/c =  1.0000   64

   1   rms: 0.3164E-01   max: 0.1098E+00   D at   64  1   RLX: 0.733
       a = 16.000      CL =  1.2959
      Cm =  0.0179     CD =  0.06064   =>   CDf =  0.00520    CDp =  0.05544

 Side 1  free  transition at x/c =  0.0175   30
 Side 2 forced transition at x/c =  1.0000   64

   2   rms: 0.9163E-02   max: 0.4095E-01   D at   65  1
       a = 16.000      CL =  1.2945
      Cm =  0.0178     CD =  0.06137   =>   CDf =  0.00514    CDp =  0.05622

 Side 1  free  transition at x/c =  0.0174   30
 Side 2 forced transition at x/c =  1.0000   64

   3   rms: 0.1558E-02   max: 0.7440E-02   D at   65  1
       a = 16.000      CL =  1.2934
      Cm =  0.0179     CD =  0.06128   =>   CDf =  0.00512    CDp =  0.05616

 Side 1  free  transition at x/c =  0.0174   30
 Side 2 forced transition at x/c =  1.0000   64

   4   rms: 0.1335E-03   max: 0.7190E-03   D at   78  2
       a = 16.000      CL =  1.2932
      Cm =  0.0179     CD =  0.06126   =>   CDf =  0.00512    CDp =  0.05614

 Side 1  free  transition at x/c =  0.0174   30
 Side 2 forced transition at x/c =  1.0000   64

   5   rms: 0.7569E-05   max: 0.4288E-04   D at   78  2
       a = 16.000      CL =  1.2932
      Cm =  0.0179     CD =  0.06126   =>   CDf =  0.00512    CDp =  0.05614
 plradd ia,ip,cpol           54           0  5.01180824E-04

 Point added to stored polar  1
 Point written to save file  m6_Re600k.base.pol                              
 Dump file unspecified or not available

.OPERva   c>  
 Polar accumulation disabled

.OPERv   c>  
 XFOIL   c>  
 XFOIL   c>  