
 ===================================================
  XFOIL Version 6.99
  Copyright (C) 2000   Mark Drela, Harold Youngren

  This software comes with ABSOLUTELY NO WARRANTY,
    subject to the GNU General Public License.

  Caveat computor
 ===================================================

 File  xfoil.def  not found

   QUIT    Exit program

  .OPER    Direct operating point(s)
  .MDES    Complex mapping design routine
  .QDES    Surface speed design routine
  .GDES    Geometry design routine

   SAVE f  Write airfoil to labeled coordinate file
   PSAV f  Write airfoil to plain coordinate file
   ISAV f  Write airfoil to ISES coordinate file
   MSAV f  Write airfoil to MSES coordinate file
   REVE    Reverse written-airfoil node ordering

   LOAD f  Read buffer airfoil from coordinate file
   NACA i  Set NACA 4,5-digit airfoil and buffer airfoil
   INTE    Set buffer airfoil by interpolating two airfoils
   NORM    Buffer airfoil normalization toggle
   XYCM rr Change CM reference location, currently  0.25000 0.00000

   BEND    Display structural properties of current airfoil

   PCOP    Set current-airfoil panel nodes directly from buffer airfoil points
   PANE    Set current-airfoil panel nodes ( 160 ) based on curvature
  .PPAR    Show/change paneling

  .PLOP    Plotting options

   WDEF f  Write  current-settings file
   RDEF f  Reread current-settings file
   NAME s  Specify new airfoil name
   NINC    Increment name version number

   Z       Zoom    | (available in all menus)
   U       Unzoom  | 

 XFOIL   c>  
 Labeled airfoil file.  Name:  MA409 (smoothed)                                

 Number of input coordinate points:  79
 Counterclockwise ordering
 Max thickness =     0.066940  at x =   0.238
 Max camber    =     0.033271  at x =   0.493

  LE  x,y  =  -0.00000   0.00001  |   Chord =   1.00000
  TE  x,y  =   1.00000  -0.00001  |

 Current airfoil nodes set from buffer airfoil nodes (  79 )

 XFOIL   c>  
 XFOIL   c>  
 Blunt trailing edge.  Gap =  0.00070

 Paneling parameters used...
   Number of panel nodes       160
   Panel bunching parameter    1.000
   TE/LE panel density ratio   0.150
   Refined-area/LE panel density ratio    0.200
   Top    side refined area x/c limits  1.000 1.000
   Bottom side refined area x/c limits  1.000 1.000

 XFOIL   c>  
.OPERi   c>  
 Xtr/c     =  1.0000    top    side
 Xtr/c     =  1.0000    bottom side
 Ncrit     =    9.00   ( 0.070 % turb. level )
 Vacc      =  0.0100

 Klag  =  5.6000     Uxwt  =    1.00
 A     =  6.7000     B     =  0.7500       KCt = 0.01485
 CtiniK=  1.8000     CtiniX=  3.3000

..VPAR   c>  
..VPAR   c>  
.OPERi   c>  
 M  =    0.0000
 Re =    300000

.OPERv   c>  
.OPERv   c>  
.OPERv   c>  
 Polar  1 newly created for accumulation
 Airfoil archived with polar: MA409 (smoothed)                                

Enter  polar save filename  OR  <return> for no file   s>  
 New polar save file available

Enter  polar dump filename  OR  <return> for no file   s>  
 Polar dump file will NOT be written

 Polar accumulation enabled

.OPERva   c>   Calculating unit vorticity distributions ...
 Calculating wake trajectory ...
 Calculating source influence matrix ...

 Solving BL system ...

 Initializing BL ...
    side            1  ...
 MRCHUE: Inverse mode at  69     Hk =   3.800
 MRCHUE: Inverse mode at  70     Hk =   4.156
 MRCHUE: Inverse mode at  71     Hk =   4.506
 MRCHUE: Inverse mode at  72     Hk =   4.852
 MRCHUE: Inverse mode at  73     Hk =   5.193
 MRCHUE: Inverse mode at  74     Hk =   5.529
 MRCHUE: Inverse mode at  75     Hk =   5.860
 MRCHUE: Inverse mode at  76     Hk =   6.181
 MRCHUE: Inverse mode at  77     Hk =   6.464
 MRCHUE: Inverse mode at  78     Hk =   6.608
    side            2  ...
 MRCHUE: Inverse mode at   9     Hk =   4.060
 MRCHUE: Inverse mode at  10     Hk =   5.341
 MRCHUE: Inverse mode at  11     Hk =   6.655
 MRCHUE: Inverse mode at  12     Hk =   8.215
 MRCHUE: Inverse mode at  13     Hk =  10.017
 MRCHUE: Inverse mode at  14     Hk =   4.049
 MRCHUE: Inverse mode at  15     Hk =   2.500

 Side 1 forced transition at x/c =  1.0000   78
 Side 2  free  transition at x/c =  0.0321   14
 idif Ue xi dudx           1  0.30251789      3.19039822E-03   94.821358    
 Uenew xinew           2  1.07384077E-03  1.13248825E-05

   1   rms: 0.2770E+00   max: 0.1864E+01   T at   14  2   RLX: 0.545
       a = -4.000      CL = -0.1284
      Cm = -0.0882     CD =  0.01103   =>   CDf =  0.00644    CDp =  0.00459

 MRCHDU: Convergence failed at  15  side 2    Res =  0.8341E+01
 MRCHDU: Convergence failed at  16  side 2    Res =  0.4980E+02
 MRCHDU: Convergence failed at  17  side 2    Res =  0.4459E+02
 MRCHDU: Convergence failed at  18  side 2    Res =  0.2695E+02
 MRCHDU: Convergence failed at  19  side 2    Res =  0.4004E+02
 MRCHDU: Convergence failed at  20  side 2    Res =  0.1425E+03
 MRCHDU: Convergence failed at  21  side 2    Res =  0.1103E+03
 MRCHDU: Convergence failed at  22  side 2    Res =  0.1227E+03
 MRCHDU: Convergence failed at  23  side 2    Res =  0.1645E+03
 MRCHDU: Convergence failed at  24  side 2    Res =  0.1325E+03
 MRCHDU: Convergence failed at  25  side 2    Res =  0.5655E+02
 MRCHDU: Convergence failed at  26  side 2    Res =  0.3919E+02
 MRCHDU: Convergence failed at  27  side 2    Res =  0.4030E+03
 MRCHDU: Convergence failed at  28  side 2    Res =  0.2854E+03
 MRCHDU: Convergence failed at  29  side 2    Res =  0.2382E+03
 MRCHDU: Convergence failed at  30  side 2    Res =  0.3448E+02
 MRCHDU: Convergence failed at  31  side 2    Res =  0.9145E+02
 MRCHDU: Convergence failed at  32  side 2    Res =  0.7445E+02
 MRCHDU: Convergence failed at  33  side 2    Res =  0.3461E+02
 MRCHDU: Convergence failed at  34  side 2    Res =  0.3699E+02
 MRCHDU: Convergence failed at  35  side 2    Res =  0.4284E+02
 MRCHDU: Convergence failed at  36  side 2    Res =  0.4564E+02
 MRCHDU: Convergence failed at  37  side 2    Res =  0.4879E+02
 MRCHDU: Convergence failed at  38  side 2    Res =  0.5206E+02
 MRCHDU: Convergence failed at  39  side 2    Res =  0.5554E+02
 MRCHDU: Convergence failed at  40  side 2    Res =  0.5901E+02
 MRCHDU: Convergence failed at  41  side 2    Res =  0.4643E+02
 MRCHDU: Convergence failed at  42  side 2    Res =  0.4849E+02
 MRCHDU: Convergence failed at  43  side 2    Res =  0.5043E+02
 MRCHDU: Convergence failed at  44  side 2    Res =  0.5223E+02
 MRCHDU: Convergence failed at  45  side 2    Res =  0.5385E+02
 MRCHDU: Convergence failed at  46  side 2    Res =  0.5523E+02
 MRCHDU: Convergence failed at  47  side 2    Res =  0.5641E+02
 MRCHDU: Convergence failed at  48  side 2    Res =  0.5731E+02
 MRCHDU: Convergence failed at  49  side 2    Res =  0.5807E+02
 MRCHDU: Convergence failed at  50  side 2    Res =  0.5857E+02
 MRCHDU: Convergence failed at  51  side 2    Res =  0.5713E+02
 MRCHDU: Convergence failed at  52  side 2    Res =  0.5732E+02
 MRCHDU: Convergence failed at  53  side 2    Res =  0.5742E+02
 MRCHDU: Convergence failed at  54  side 2    Res =  0.5743E+02
 MRCHDU: Convergence failed at  55  side 2    Res =  0.5749E+02
 MRCHDU: Convergence failed at  56  side 2    Res =  0.5763E+02
 MRCHDU: Convergence failed at  57  side 2    Res =  0.3148E+02
 MRCHDU: Convergence failed at  58  side 2    Res =  0.3161E+02
 MRCHDU: Convergence failed at  59  side 2    Res =  0.3174E+02
 MRCHDU: Convergence failed at  60  side 2    Res =  0.3195E+02
 MRCHDU: Convergence failed at  61  side 2    Res =  0.3221E+02
 MRCHDU: Convergence failed at  62  side 2    Res =  0.3249E+02
 MRCHDU: Convergence failed at  63  side 2    Res =  0.3268E+02
 MRCHDU: Convergence failed at  64  side 2    Res =  0.3292E+02
 MRCHDU: Convergence failed at  65  side 2    Res =  0.3314E+02
 MRCHDU: Convergence failed at  66  side 2    Res =  0.3343E+02
 MRCHDU: Convergence failed at  67  side 2    Res =  0.3365E+02
 MRCHDU: Convergence failed at  68  side 2    Res =  0.3380E+02
 MRCHDU: Convergence failed at  69  side 2    Res =  0.3398E+02
 MRCHDU: Convergence failed at  70  side 2    Res =  0.3415E+02
 MRCHDU: Convergence failed at  71  side 2    Res =  0.3439E+02
 MRCHDU: Convergence failed at  72  side 2    Res =  0.3456E+02
 MRCHDU: Convergence failed at  73  side 2    Res =  0.3472E+02
 MRCHDU: Convergence failed at  74  side 2    Res =  0.3478E+02
 MRCHDU: Convergence failed at  75  side 2    Res =  0.3485E+02
 MRCHDU: Convergence failed at  76  side 2    Res =  0.3481E+02
 MRCHDU: Convergence failed at  77  side 2    Res =  0.3464E+02
 MRCHDU: Convergence failed at  78  side 2    Res =  0.3443E+02
 MRCHDU: Convergence failed at  79  side 2    Res =  0.3413E+02
 MRCHDU: Convergence failed at  80  side 2    Res =  0.3366E+02
 MRCHDU: Convergence failed at  81  side 2    Res =  0.3893E+02
 MRCHDU: Convergence failed at  82  side 2    Res =  0.3684E+02
 MRCHDU: Convergence failed at  83  side 2    Res =  0.3322E+02
 MRCHDU: Convergence failed at  84  side 2    Res =  0.3303E+02
 MRCHDU: Convergence failed at  85  side 2    Res =  0.1799E+03
 Side 1 forced transition at x/c =  1.0000   77
 Side 2  free  transition at x/c =  0.0267   14

   2   rms: 0.2552E+02   max: -.4479E+03   T at    2  2   RLX: 0.001
       a = -4.000      CL = -2.0515
      Cm =  0.4842     CD =  0.00399   =>   CDf =  0.00249    CDp =  0.00149

 MRCHDU: Convergence failed at  32  side 2    Res =  0.4843E+00
 MRCHDU: Convergence failed at  33  side 2    Res =  0.4838E+00
 MRCHDU: Convergence failed at  34  side 2    Res =  0.4835E+00
 MRCHDU: Convergence failed at  35  side 2    Res =  0.4832E+00
 MRCHDU: Convergence failed at  36  side 2    Res =  0.4830E+00
 MRCHDU: Convergence failed at  37  side 2    Res =  0.4828E+00
 MRCHDU: Convergence failed at  38  side 2    Res =  0.4826E+00
 MRCHDU: Convergence failed at  39  side 2    Res =  0.4824E+00
 MRCHDU: Convergence failed at  40  side 2    Res =  0.4822E+00
 MRCHDU: Convergence failed at  41  side 2    Res =  0.4820E+00
 MRCHDU: Convergence failed at  42  side 2    Res =  0.4819E+00
 MRCHDU: Convergence failed at  43  side 2    Res =  0.4817E+00
 MRCHDU: Convergence failed at  44  side 2    Res =  0.4816E+00
 MRCHDU: Convergence failed at  45  side 2    Res =  0.4815E+00
 MRCHDU: Convergence failed at  46  side 2    Res =  0.4814E+00
 MRCHDU: Convergence failed at  47  side 2    Res =  0.4814E+00
 MRCHDU: Convergence failed at  48  side 2    Res =  0.4810E+00
 MRCHDU: Convergence failed at  49  side 2    Res =  0.4810E+00
 MRCHDU: Convergence failed at  50  side 2    Res =  0.4810E+00
 MRCHDU: Convergence failed at  51  side 2    Res =  0.4810E+00
 MRCHDU: Convergence failed at  52  side 2    Res =  0.4809E+00
 MRCHDU: Convergence failed at  53  side 2    Res =  0.4809E+00
 MRCHDU: Convergence failed at  54  side 2    Res =  0.4809E+00
 MRCHDU: Convergence failed at  55  side 2    Res =  0.4809E+00
 MRCHDU: Convergence failed at  56  side 2    Res =  0.4809E+00
 MRCHDU: Convergence failed at  57  side 2    Res =  0.4809E+00
 MRCHDU: Convergence failed at  58  side 2    Res =  0.4809E+00
 MRCHDU: Convergence failed at  59  side 2    Res =  0.4809E+00
 MRCHDU: Convergence failed at  60  side 2    Res =  0.4809E+00
 MRCHDU: Convergence failed at  61  side 2    Res =  0.4809E+00
 MRCHDU: Convergence failed at  62  side 2    Res =  0.4809E+00
 MRCHDU: Convergence failed at  63  side 2    Res =  0.4809E+00
 MRCHDU: Convergence failed at  64  side 2    Res =  0.4809E+00
 MRCHDU: Convergence failed at  65  side 2    Res =  0.4810E+00
 MRCHDU: Convergence failed at  66  side 2    Res =  0.4810E+00
 MRCHDU: Convergence failed at  67  side 2    Res =  0.4811E+00
 MRCHDU: Convergence failed at  68  side 2    Res =  0.4811E+00
 MRCHDU: Convergence failed at  69  side 2    Res =  0.4812E+00
 MRCHDU: Convergence failed at  70  side 2    Res =  0.4812E+00
 MRCHDU: Convergence failed at  71  side 2    Res =  0.4813E+00
 MRCHDU: Convergence failed at  72  side 2    Res =  0.4814E+00
 MRCHDU: Convergence failed at  73  side 2    Res =  0.4814E+00
 MRCHDU: Convergence failed at  74  side 2    Res =  0.4815E+00
 MRCHDU: Convergence failed at  75  side 2    Res =  0.4816E+00
 MRCHDU: Convergence failed at  76  side 2    Res =  0.4817E+00
 MRCHDU: Convergence failed at  77  side 2    Res =  0.4818E+00
 MRCHDU: Convergence failed at  78  side 2    Res =  0.4819E+00
 MRCHDU: Convergence failed at  79  side 2    Res =  0.4820E+00
 MRCHDU: Convergence failed at  80  side 2    Res =  0.4821E+00
 MRCHDU: Convergence failed at  81  side 2    Res =  0.4822E+00
 MRCHDU: Convergence failed at  82  side 2    Res =  0.4816E+00
 MRCHDU: Convergence failed at  83  side 2    Res =  0.4781E+00
 MRCHDU: Convergence failed at  84  side 2    Res =  0.4591E+00
 Side 1 forced transition at x/c =  1.0000   78
 Side 2  free  transition at x/c =  0.0267   13

   3   rms: 0.1108E+01   max: -.1726E+02   T at    2  1   RLX: 0.029
       a = -4.000      CL = -1.0386
      Cm =  0.1912     CD =  0.02763   =>   CDf =  0.00276    CDp =  0.02486

 Side 1 forced transition at x/c =  1.0000   78
 Side 2  free  transition at x/c =  0.0268   13

   4   rms: 0.3884E+00   max: -.7655E+00   D at   85  2   RLX: 0.626
       a = -4.000      CL = -0.4836
      Cm =  0.0070     CD =  0.04466   =>   CDf =  0.00278    CDp =  0.04188

 Side 1 forced transition at x/c =  1.0000   78
 Side 2  free  transition at x/c =  0.0269   13
 idif Ue xi dudx           1  0.36641720      4.32872772E-03   84.647781    
 Uenew xinew           2  9.73156914E-02  1.14965439E-03

   5   rms: 0.3799E+00   max: 0.1922E+01   C at   78  1   RLX: 0.522
       a = -4.000      CL = -0.3936
      Cm = -0.0314     CD =  0.04896   =>   CDf =  0.00278    CDp =  0.04618

 Side 1 forced transition at x/c =  1.0000   77
 Side 2  free  transition at x/c =  0.0279   14

   6   rms: 0.9837E+00   max: 0.3185E+01   T at   15  2   RLX: 0.194
       a = -4.000      CL = -0.4418
      Cm = -0.0432     CD =  0.06439   =>   CDf =  0.00267    CDp =  0.06171

 MRCHDU: Convergence failed at  15  side 2    Res =  0.8007E+01
 MRCHDU: Convergence failed at  16  side 2    Res =  0.1220E+02
 MRCHDU: Convergence failed at  17  side 2    Res =  0.2686E+02
 MRCHDU: Convergence failed at  18  side 2    Res =  0.3619E+03
 MRCHDU: Convergence failed at  19  side 2    Res =  0.1945E+03
 MRCHDU: Convergence failed at  20  side 2    Res =  0.1125E+03
 MRCHDU: Convergence failed at  21  side 2    Res =  0.1058E+03
 MRCHDU: Convergence failed at  22  side 2    Res =  0.9756E+02
 MRCHDU: Convergence failed at  23  side 2    Res =  0.1094E+03
 MRCHDU: Convergence failed at  24  side 2    Res =  0.1199E+03
 MRCHDU: Convergence failed at  25  side 2    Res =  0.1222E+03
 MRCHDU: Convergence failed at  26  side 2    Res =  0.1118E+03
 MRCHDU: Convergence failed at  27  side 2    Res =  0.1049E+03
 MRCHDU: Convergence failed at  28  side 2    Res =  0.1030E+03
 MRCHDU: Convergence failed at  29  side 2    Res =  0.2455E+03
 MRCHDU: Convergence failed at  30  side 2    Res =  0.8514E+03
 MRCHDU: Convergence failed at  31  side 2    Res =  0.9381E+02
 MRCHDU: Convergence failed at  32  side 2    Res =  0.4819E+02
 MRCHDU: Convergence failed at  33  side 2    Res =  0.5177E+02
 MRCHDU: Convergence failed at  34  side 2    Res =  0.5467E+02
 MRCHDU: Convergence failed at  35  side 2    Res =  0.1145E+03
 MRCHDU: Convergence failed at  36  side 2    Res =  0.1344E+03
 MRCHDU: Convergence failed at  37  side 2    Res =  0.1483E+03
 MRCHDU: Convergence failed at  38  side 2    Res =  0.1491E+03
 MRCHDU: Convergence failed at  39  side 2    Res =  0.1502E+03
 MRCHDU: Convergence failed at  40  side 2    Res =  0.1510E+03
 MRCHDU: Convergence failed at  41  side 2    Res =  0.1522E+03
 MRCHDU: Convergence failed at  42  side 2    Res =  0.1530E+03
 MRCHDU: Convergence failed at  43  side 2    Res =  0.1535E+03
 MRCHDU: Convergence failed at  44  side 2    Res =  0.1547E+03
 MRCHDU: Convergence failed at  45  side 2    Res =  0.1554E+03
 MRCHDU: Convergence failed at  46  side 2    Res =  0.1573E+03
 MRCHDU: Convergence failed at  47  side 2    Res =  0.1603E+03
 MRCHDU: Convergence failed at  48  side 2    Res =  0.1671E+03
 MRCHDU: Convergence failed at  49  side 2    Res =  0.1744E+03
 MRCHDU: Convergence failed at  50  side 2    Res =  0.1823E+03
 MRCHDU: Convergence failed at  51  side 2    Res =  0.1906E+03
 MRCHDU: Convergence failed at  52  side 2    Res =  0.1990E+03
 MRCHDU: Convergence failed at  53  side 2    Res =  0.2082E+03
 MRCHDU: Convergence failed at  54  side 2    Res =  0.2178E+03
 MRCHDU: Convergence failed at  55  side 2    Res =  0.2200E+03
 MRCHDU: Convergence failed at  56  side 2    Res =  0.2304E+03
 MRCHDU: Convergence failed at  57  side 2    Res =  0.2414E+03
 MRCHDU: Convergence failed at  58  side 2    Res =  0.2437E+03
 MRCHDU: Convergence failed at  59  side 2    Res =  0.2548E+03
 MRCHDU: Convergence failed at  60  side 2    Res =  0.2682E+03
 MRCHDU: Convergence failed at  61  side 2    Res =  0.8028E+04
 MRCHDU: Convergence failed at  62  side 2    Res =  0.1700E+03
 MRCHDU: Convergence failed at  63  side 2    Res =  0.1751E+03
 MRCHDU: Convergence failed at  64  side 2    Res =  0.1807E+03
 MRCHDU: Convergence failed at  65  side 2    Res =  0.1867E+03
 MRCHDU: Convergence failed at  66  side 2    Res =  0.1926E+03
 MRCHDU: Convergence failed at  67  side 2    Res =  0.1976E+03
 MRCHDU: Convergence failed at  68  side 2    Res =  0.2031E+03
 MRCHDU: Convergence failed at  69  side 2    Res =  0.2087E+03
 MRCHDU: Convergence failed at  70  side 2    Res =  0.2142E+03
 MRCHDU: Convergence failed at  71  side 2    Res =  0.2196E+03
 MRCHDU: Convergence failed at  72  side 2    Res =  0.2244E+03
 MRCHDU: Convergence failed at  73  side 2    Res =  0.2296E+03
 MRCHDU: Convergence failed at  74  side 2    Res =  0.2349E+03
 MRCHDU: Convergence failed at  75  side 2    Res =  0.2403E+03
 MRCHDU: Convergence failed at  76  side 2    Res =  0.2457E+03
 MRCHDU: Convergence failed at  77  side 2    Res =  0.2505E+03
 MRCHDU: Convergence failed at  78  side 2    Res =  0.2571E+03
 MRCHDU: Convergence failed at  79  side 2    Res =  0.2617E+03
 MRCHDU: Convergence failed at  80  side 2    Res =  0.2625E+03
 MRCHDU: Convergence failed at  81  side 2    Res =  0.2646E+03
 MRCHDU: Convergence failed at  82  side 2    Res =  0.2644E+03
 MRCHDU: Convergence failed at  83  side 2    Res =  0.2635E+03
 MRCHDU: Convergence failed at  84  side 2    Res =  0.2619E+03
 MRCHDU: Convergence failed at  85  side 2    Res =  0.5159E+03
 Side 1 forced transition at x/c =  1.0000   77
 Side 2  free  transition at x/c =  0.0288   15

   7   rms: 0.1851E+01   max: 0.9203E+01   D at   87  2   RLX: 0.163
       a = -4.000      CL = -2.0380
      Cm =  0.4778     CD =  0.00539   =>   CDf =  0.00177    CDp =  0.00362

 Side 1 forced transition at x/c =  1.0000   77
 Side 2  free  transition at x/c =  0.0277   14

   8   rms: 0.9562E+00   max: -.3671E+01   D at   71  1   RLX: 0.136
       a = -4.000      CL = -1.0946
      Cm =  0.2068     CD =  0.06288   =>   CDf =  0.00263    CDp =  0.06026

 Side 1 forced transition at x/c =  1.0000   77
 Side 2  free  transition at x/c =  0.0276   14

   9   rms: 0.6571E+00   max: -.2296E+01   C at   77  1   RLX: 0.218
       a = -4.000      CL = -0.8751
      Cm =  0.1486     CD =  0.06910   =>   CDf =  0.00305    CDp =  0.06604

 Side 1 forced transition at x/c =  1.0000   78
 Side 2  free  transition at x/c =  0.0277   13

  10   rms: 0.5326E+00   max: -.1430E+01   C at  106  2   RLX: 0.350
       a = -4.000      CL = -0.6185
      Cm =  0.0796     CD =  0.05655   =>   CDf =  0.00319    CDp =  0.05336

 MRCHDU: Convergence failed at  98  side 2    Res =  0.1034E+01
 MRCHDU: Convergence failed at  99  side 2    Res =  0.5133E+01
 Side 1 forced transition at x/c =  1.0000   78
 Side 2  free  transition at x/c =  0.0279   13

  11   rms: 0.4583E+00   max: -.1432E+01   T at  106  2   RLX: 0.349
       a = -4.000      CL = -0.4340
      Cm =  0.0276     CD =  0.06138   =>   CDf =  0.00333    CDp =  0.05805

 Side 1 forced transition at x/c =  1.0000   78
 Side 2  free  transition at x/c =  0.0280   13

  12   rms: 0.4009E+00   max: -.1638E+01   D at  104  2   RLX: 0.305
       a = -4.000      CL = -0.3393
      Cm = -0.0041     CD =  0.07654   =>   CDf =  0.00335    CDp =  0.07319

 Side 1 forced transition at x/c =  1.0000   78
 Side 2  free  transition at x/c =  0.0278   13

  13   rms: 0.3982E+00   max: -.1845E+01   D at  103  2   RLX: 0.271
       a = -4.000      CL = -0.3071
      Cm = -0.0194     CD =  0.07928   =>   CDf =  0.00333    CDp =  0.07596

 Side 1 forced transition at x/c =  1.0000   78
 Side 2  free  transition at x/c =  0.0276   13

  14   rms: 0.3900E+00   max: -.1801E+01   D at  103  2   RLX: 0.278
       a = -4.000      CL = -0.2931
      Cm = -0.0311     CD =  0.07628   =>   CDf =  0.00329    CDp =  0.07299

 Side 1 forced transition at x/c =  1.0000   78
 Side 2  free  transition at x/c =  0.0275   13

  15   rms: 0.4169E+00   max: -.2003E+01   D at  103  2   RLX: 0.250
       a = -4.000      CL = -0.2877
      Cm = -0.0416     CD =  0.07381   =>   CDf =  0.00324    CDp =  0.07057

 Side 1 forced transition at x/c =  1.0000   78
 Side 2  free  transition at x/c =  0.0274   13
 idif Ue xi dudx           1  0.31667915      3.57890129E-03   88.485016    
 Uenew xinew           2  3.53787839E-02  3.99827957E-04

  16   rms: 0.4563E+00   max: -.2318E+01   D at  103  2   RLX: 0.216
       a = -4.000      CL = -0.2931
      Cm = -0.0493     CD =  0.06834   =>   CDf =  0.00305    CDp =  0.06530

 Side 1 forced transition at x/c =  1.0000   77
 Side 2  free  transition at x/c =  0.0274   14

  17   rms: 0.5062E+00   max: -.2484E+01   D at  104  2   RLX: 0.201
       a = -4.000      CL = -0.2955
      Cm = -0.0570     CD =  0.06081   =>   CDf =  0.00311    CDp =  0.05770

 Side 1 forced transition at x/c =  1.0000   77
 Side 2  free  transition at x/c =  0.0274   14

  18   rms: 0.5383E+00   max: 0.3397E+01   C at   77  1   RLX: 0.215
       a = -4.000      CL = -0.2986
      Cm = -0.0645     CD =  0.05262   =>   CDf =  0.00304    CDp =  0.04958

 Side 1 forced transition at x/c =  1.0000   77
 Side 2  free  transition at x/c =  0.0275   14

  19   rms: 0.6090E+00   max: 0.3506E+01   C at   77  1   RLX: 0.229
       a = -4.000      CL = -0.3128
      Cm = -0.0707     CD =  0.04447   =>   CDf =  0.00293    CDp =  0.04154

 Side 1 forced transition at x/c =  1.0000   77
 Side 2  free  transition at x/c =  0.0281   14

  20   rms: 0.1298E+01   max: 0.9864E+01   T at   14  2   RLX: 0.078
       a = -4.000      CL = -0.3148
      Cm = -0.0643     CD =  0.05387   =>   CDf =  0.00285    CDp =  0.05102

 MRCHDU: Convergence failed at 104  side 2    Res =  0.5325E+00
 MRCHDU: Convergence failed at 105  side 2    Res =  0.5008E+00
 MRCHDU: Convergence failed at 106  side 2    Res =  0.4314E+00
 MRCHDU: Convergence failed at 107  side 2    Res =  0.3470E+00
 Side 1 forced transition at x/c =  1.0000   77
 Side 2  free  transition at x/c =  0.0282   15

  21   rms: 0.5453E+00   max: -.1934E+01   T at   15  2   RLX: 0.259
       a = -4.000      CL = -0.3937
      Cm = -0.0189     CD =  0.05396   =>   CDf =  0.00276    CDp =  0.05120

 Side 1 forced transition at x/c =  1.0000   77
 Side 2  free  transition at x/c =  0.0286   15

  22   rms: 0.8558E+00   max: -.3077E+01   D at  101  2   RLX: 0.163
       a = -4.000      CL = -0.4743
      Cm = -0.0216     CD =  0.05514   =>   CDf =  0.00273    CDp =  0.05241

 Side 1 forced transition at x/c =  1.0000   77
 Side 2  free  transition at x/c =  0.0286   15

  23   rms: 0.1889E+01   max: 0.5198E+01   T at   15  2   RLX: 0.099
       a = -4.000      CL = -0.4889
      Cm = -0.0467     CD =  0.04943   =>   CDf =  0.00272    CDp =  0.04671

 MRCHDU: Convergence failed at  15  side 2    Res =  0.1224E+02
 MRCHDU: Convergence failed at  16  side 2    Res =  0.9891E+02
 MRCHDU: Convergence failed at  17  side 2    Res =  0.2400E+02
 MRCHDU: Convergence failed at  18  side 2    Res =  0.2236E+02
 MRCHDU: Convergence failed at  19  side 2    Res =  0.2571E+02
 MRCHDU: Convergence failed at  20  side 2    Res =  0.3232E+02
 MRCHDU: Convergence failed at  21  side 2    Res =  0.4099E+02
 MRCHDU: Convergence failed at  22  side 2    Res =  0.5119E+02
 MRCHDU: Convergence failed at  23  side 2    Res =  0.6575E+02
 MRCHDU: Convergence failed at  24  side 2    Res =  0.7991E+02
 MRCHDU: Convergence failed at  25  side 2    Res =  0.6493E+02
 MRCHDU: Convergence failed at  26  side 2    Res =  0.4675E+03
 MRCHDU: Convergence failed at  27  side 2    Res =  0.8129E+02
 MRCHDU: Convergence failed at  28  side 2    Res =  0.9951E+03
 MRCHDU: Convergence failed at  29  side 2    Res =  0.3610E+03
 MRCHDU: Convergence failed at  30  side 2    Res =  0.2317E+03
 MRCHDU: Convergence failed at  31  side 2    Res =  0.8998E+02
 MRCHDU: Convergence failed at  32  side 2    Res =  0.1088E+03
 MRCHDU: Convergence failed at  33  side 2    Res =  0.6813E+02
 MRCHDU: Convergence failed at  34  side 2    Res =  0.6459E+02
 MRCHDU: Convergence failed at  35  side 2    Res =  0.6550E+02
 MRCHDU: Convergence failed at  36  side 2    Res =  0.6910E+02
 MRCHDU: Convergence failed at  37  side 2    Res =  0.9909E+02
 MRCHDU: Convergence failed at  38  side 2    Res =  0.1135E+03
 MRCHDU: Convergence failed at  39  side 2    Res =  0.1207E+03
 MRCHDU: Convergence failed at  40  side 2    Res =  0.3267E+03
 MRCHDU: Convergence failed at  41  side 2    Res =  0.1142E+04
 MRCHDU: Convergence failed at  42  side 2    Res =  0.1132E+03
 MRCHDU: Convergence failed at  43  side 2    Res =  0.1131E+03
 MRCHDU: Convergence failed at  44  side 2    Res =  0.3391E+03
 MRCHDU: Convergence failed at  45  side 2    Res =  0.1254E+03
 MRCHDU: Convergence failed at  46  side 2    Res =  0.1616E+03
 MRCHDU: Convergence failed at  47  side 2    Res =  0.1381E+03
 MRCHDU: Convergence failed at  48  side 2    Res =  0.1607E+03
 MRCHDU: Convergence failed at  49  side 2    Res =  0.1579E+03
 MRCHDU: Convergence failed at  50  side 2    Res =  0.1674E+03
 MRCHDU: Convergence failed at  51  side 2    Res =  0.1158E+03
 MRCHDU: Convergence failed at  52  side 2    Res =  0.1177E+03
 MRCHDU: Convergence failed at  53  side 2    Res =  0.2275E+03
 MRCHDU: Convergence failed at  54  side 2    Res =  0.1459E+05
 MRCHDU: Convergence failed at  55  side 2    Res =  0.4320E+04
 MRCHDU: Convergence failed at  56  side 2    Res =  0.2527E+04
 MRCHDU: Convergence failed at  57  side 2    Res =  0.1784E+04
 MRCHDU: Convergence failed at  58  side 2    Res =  0.1453E+03
 MRCHDU: Convergence failed at  59  side 2    Res =  0.1510E+03
 MRCHDU: Convergence failed at  60  side 2    Res =  0.1568E+03
 MRCHDU: Convergence failed at  61  side 2    Res =  0.1625E+03
 MRCHDU: Convergence failed at  62  side 2    Res =  0.7620E+03
 MRCHDU: Convergence failed at  63  side 2    Res =  0.6930E+03
 MRCHDU: Convergence failed at  64  side 2    Res =  0.1680E+03
 MRCHDU: Convergence failed at  65  side 2    Res =  0.1120E+03
 MRCHDU: Convergence failed at  66  side 2    Res =  0.1606E+03
 MRCHDU: Convergence failed at  67  side 2    Res =  0.8633E+03
 MRCHDU: Convergence failed at  68  side 2    Res =  0.9071E+03
 MRCHDU: Convergence failed at  69  side 2    Res =  0.1001E+04
 MRCHDU: Convergence failed at  70  side 2    Res =  0.3097E+03
 MRCHDU: Convergence failed at  71  side 2    Res =  0.3421E+05
 MRCHDU: Convergence failed at  72  side 2    Res =  0.1781E+04
 MRCHDU: Convergence failed at  73  side 2    Res =  0.1272E+03
 MRCHDU: Convergence failed at  74  side 2    Res =  0.2942E+03
 MRCHDU: Convergence failed at  75  side 2    Res =  0.3008E+03
 MRCHDU: Convergence failed at  76  side 2    Res =  0.2139E+03
 MRCHDU: Convergence failed at  77  side 2    Res =  0.2345E+03
 MRCHDU: Convergence failed at  78  side 2    Res =  0.2526E+03
 MRCHDU: Convergence failed at  79  side 2    Res =  0.2644E+03
 MRCHDU: Convergence failed at  80  side 2    Res =  0.2790E+03
 MRCHDU: Convergence failed at  81  side 2    Res =  0.1965E+03
 MRCHDU: Convergence failed at  82  side 2    Res =  0.2239E+03
 MRCHDU: Convergence failed at  83  side 2    Res =  0.2456E+03
 MRCHDU: Convergence failed at  84  side 2    Res =  0.2645E+03
 MRCHDU: Convergence failed at  85  side 2    Res =  0.3064E+03
 MRCHDU: Convergence failed at  87  side 2    Res =  0.4727E+00
 MRCHDU: Convergence failed at  88  side 2    Res =  0.1166E+00
 MRCHDU: Convergence failed at  89  side 2    Res =  0.2859E+00
 MRCHDU: Convergence failed at  90  side 2    Res =  0.3667E+00
 MRCHDU: Convergence failed at  91  side 2    Res =  0.4427E+00
 MRCHDU: Convergence failed at  92  side 2    Res =  0.4973E+00
 MRCHDU: Convergence failed at  93  side 2    Res =  0.6634E+00
 MRCHDU: Convergence failed at  94  side 2    Res =  0.6263E+00
 MRCHDU: Convergence failed at  95  side 2    Res =  0.5398E+00
 MRCHDU: Convergence failed at  96  side 2    Res =  0.4107E+00
 MRCHDU: Convergence failed at  97  side 2    Res =  0.3286E+00
 MRCHDU: Convergence failed at  98  side 2    Res =  0.1673E+00
 MRCHDU: Convergence failed at 103  side 2    Res =  0.1137E+01
 MRCHDU: Convergence failed at 107  side 2    Res =  0.2001E+02
 Side 1 forced transition at x/c =  1.0000   77
 Side 2  free  transition at x/c =  0.0277   14

  24   rms: 0.1841E+01   max: 0.2170E+02   T at   14  2   RLX: 0.030
       a = -4.000      CL = -2.7541
      Cm =  0.6553     CD =  0.00360   =>   CDf =  0.00191    CDp =  0.00169

 MRCHDU: Convergence failed at  99  side 2    Res =  0.1515E+00
 Side 1 forced transition at x/c =  1.0000   77
 Side 2  free  transition at x/c =  0.0269   14

  25   rms: 0.1579E+01   max: 0.8966E+01   D at  100  2   RLX: 0.167
       a = -4.000      CL = -1.6092
      Cm =  0.3402     CD =  0.13586   =>   CDf =  0.00256    CDp =  0.13331

 MRCHDU: Convergence failed at 100  side 2    Res =  0.2461E+03
 MRCHDU: Convergence failed at 101  side 2    Res =  0.3732E+02
 Side 1 forced transition at x/c =  1.0000   77
 Side 2  free  transition at x/c =  0.0265   14

  26   rms: 0.1951E+01   max: 0.8101E+01   D at  107  2   RLX: 0.185
       a = -4.000      CL = -1.1536
      Cm =  0.2473     CD =  0.07945   =>   CDf =  0.00264    CDp =  0.07681

 MRCHDU: Convergence failed at 106  side 2    Res =  0.3147E+01
 Side 1  free  transition at x/c =  0.9156   71
 Side 2  free  transition at x/c =  0.0274   13

  27   rms: 0.1190E+01   max: -.8118E+01   T at    2  1   RLX: 0.062
       a = -4.000      CL = -1.0671
      Cm =  0.2235     CD =  0.08701   =>   CDf =  0.00218    CDp =  0.08483

 Side 1  free  transition at x/c =  0.9101   71
 Side 2  free  transition at x/c =  0.0277   13

  28   rms: 0.7654E+00   max: 0.3097E+01   T at   14  2   RLX: 0.236
       a = -4.000      CL = -0.7775
      Cm =  0.1497     CD =  0.05561   =>   CDf =  0.00219    CDp =  0.05342

 Side 1  free  transition at x/c =  0.9165   72
 Side 2  free  transition at x/c =  0.0312   14

  29   rms: 0.6677E+00   max: -.2772E+01   T at   14  2   RLX: 0.180
       a = -4.000      CL = -0.5976
      Cm =  0.1026     CD =  0.06947   =>   CDf =  0.00230    CDp =  0.06718

 Side 1  free  transition at x/c =  0.9202   72
 Side 2  free  transition at x/c =  0.0375   14

  30   rms: 0.6685E+00   max: 0.4501E+01   T at   82  2   RLX: 0.286
       a = -4.000      CL = -0.4266
      Cm =  0.0560     CD =  0.06260   =>   CDf =  0.00237    CDp =  0.06023

 Side 1  free  transition at x/c =  0.9311   73
 Side 2  free  transition at x/c =  0.0384   14

  31   rms: 0.4323E+00   max: -.1508E+01   T at   73  1   RLX: 0.332
       a = -4.000      CL = -0.1595
      Cm = -0.0288     CD =  0.04888   =>   CDf =  0.00245    CDp =  0.04643

 Side 1  free  transition at x/c =  0.9464   74
 Side 2  free  transition at x/c =  0.0365   14

  32   rms: 0.4771E+00   max: 0.1774E+01   T at   14  2   RLX: 0.298
       a = -4.000      CL = -0.1531
      Cm = -0.0479     CD =  0.04667   =>   CDf =  0.00250    CDp =  0.04418

 Side 1  free  transition at x/c =  0.9615   75
 Side 2  free  transition at x/c =  0.0303   14

  33   rms: 0.2418E+01   max: 0.1006E+02   D at   14  2   RLX: 0.085
       a = -4.000      CL = -0.0845
      Cm = -0.0424     CD =  0.06551   =>   CDf =  0.00265    CDp =  0.06285

 Side 1  free  transition at x/c =  0.9619   76
 Side 2  free  transition at x/c =  0.0387   13
 idif Ue xi dudx           1  0.30151275      2.50315666E-03   120.45301    
 Uenew xinew           2  1.22626862E-02  1.01804733E-04

  34   rms: 0.7287E+00   max: 0.1067E+02   T at    2  1   RLX: 0.101
       a = -4.000      CL =  0.0129
      Cm = -0.0651     CD =  0.06348   =>   CDf =  0.00254    CDp =  0.06094

 Side 1  free  transition at x/c =  0.9671   75
 Side 2  free  transition at x/c =  0.0382   14

  35   rms: 0.6414E+00   max: -.8010E+01   T at   75  1   RLX: 0.062
       a = -4.000      CL =  0.0073
      Cm = -0.0669     CD =  0.06124   =>   CDf =  0.00258    CDp =  0.05866

 Side 1  free  transition at x/c =  0.9780   76
 Side 2  free  transition at x/c =  0.0379   14

  36   rms: 0.3715E+00   max: -.1688E+01   T at   15  2   RLX: 0.296
       a = -4.000      CL = -0.0553
      Cm = -0.0596     CD =  0.06596   =>   CDf =  0.00260    CDp =  0.06336

 Side 1  free  transition at x/c =  0.9864   77
 Side 2  free  transition at x/c =  0.0343   14

  37   rms: 0.5028E+00   max: 0.3771E+01   T at   14  2   RLX: 0.398
       a = -4.000      CL = -0.2087
      Cm = -0.0450     CD =  0.06546   =>   CDf =  0.00260    CDp =  0.06287

 Side 1  free  transition at x/c =  0.9944   78
 Side 2  free  transition at x/c =  0.0292   14
 idif Ue xi dudx           1  0.37275127      4.55164909E-03   81.893677    
 Uenew xinew           2  0.11240528      1.37257576E-03

  38   rms: 0.4465E+00   max: 0.1299E+01   D at    9  2   RLX: 0.385
       a = -4.000      CL = -0.3902
      Cm = -0.0267     CD =  0.06547   =>   CDf =  0.00244    CDp =  0.06304

 TRCHEK2: N2 convergence failed.
 x:  0.09298  0.10636  0.10636  N:  8.847  9.000  9.127  Nx:  20.710   dN: 0.127E+00
 TRCHEK2: N2 convergence failed.
 x:  0.09298  0.10229  0.10636  N:  8.847  9.000  9.051  Nx:  27.080   dN:-0.284E+00
 TRCHEK2: N2 convergence failed.
 x:  0.09298  0.10636  0.10636  N:  8.847  9.000  9.078  Nx:  17.099   dN: 0.781E-01
 TRCHEK2: N2 convergence failed.
 x:  0.09298  0.10499  0.10636  N:  8.847  9.000  9.027  Nx:  17.212   dN: 0.309E+00
 TRCHEK2: N2 convergence failed.
 x:  0.09298  0.10501  0.10636  N:  8.847  9.000  9.008  Nx:  17.887   dN:-0.357E-01
 TRCHEK2: N2 convergence failed.
 x:  0.09298  0.10506  0.10636  N:  8.847  9.000  9.007  Nx:  17.141   dN:-0.515E-01
 TRCHEK2: N2 convergence failed.
 x:  0.09298  0.10507  0.10636  N:  8.847  9.000  9.026  Nx:  17.119   dN: 0.609E-01
 TRCHEK2: N2 convergence failed.
 x:  0.09298  0.10503  0.10636  N:  8.847  9.000  9.026  Nx:  17.098   dN: 0.600E-01
 TRCHEK2: N2 convergence failed.
 x:  0.09298  0.10502  0.10636  N:  8.847  9.000  9.008  Nx:  17.292   dN:-0.189E+00
 TRCHEK2: N2 convergence failed.
 x:  0.09298  0.10508  0.10636  N:  8.847  9.000  9.026  Nx:  17.096   dN: 0.608E-01
 TRCHEK2: N2 convergence failed.
 x:  0.09298  0.10506  0.10636  N:  8.847  9.000  9.026  Nx:  17.067   dN: 0.600E-01
 TRCHEK2: N2 convergence failed.
 x:  0.09298  0.10505  0.10636  N:  8.847  9.000  9.026  Nx:  17.185   dN: 0.338E+00
 TRCHEK2: N2 convergence failed.
 x:  0.09298  0.10504  0.10636  N:  8.847  9.000  9.007  Nx:  17.854   dN:-0.543E-01
 TRCHEK2: N2 convergence failed.
 x:  0.09298  0.10510  0.10636  N:  8.847  9.000  9.025  Nx:  17.045   dN: 0.644E-01
 TRCHEK2: N2 convergence failed.
 x:  0.09298  0.10506  0.10636  N:  8.847  9.000  9.007  Nx:  17.325   dN:-0.241E+00
 TRCHEK2: N2 convergence failed.
 x:  0.09298  0.10511  0.10636  N:  8.847  9.000  9.025  Nx:  17.048   dN: 0.604E-01
 TRCHEK2: N2 convergence failed.
 x:  0.09298  0.10507  0.10636  N:  8.847  9.000  9.026  Nx:  17.101   dN: 0.110E+00
 TRCHEK2: N2 convergence failed.
 x:  0.09298  0.10506  0.10636  N:  8.847  9.000  9.007  Nx:  17.599   dN:-0.963E-01
 TRCHEK2: N2 convergence failed.
 x:  0.09298  0.10512  0.10636  N:  8.847  9.000  9.025  Nx:  17.031   dN: 0.603E-01
 TRCHEK2: N2 convergence failed.
 x:  0.09298  0.10506  0.10636  N:  8.847  9.000  9.007  Nx:  17.299   dN:-0.479E+00
 TRCHEK2: N2 convergence failed.
 x:  0.09298  0.10511  0.10636  N:  8.847  9.000  9.025  Nx:  17.043   dN: 0.604E-01
 TRCHEK2: N2 convergence failed.
 x:  0.09298  0.10506  0.10636  N:  8.847  9.000  9.026  Nx:  17.216   dN: 0.790E+00
 TRCHEK2: N2 convergence failed.
 x:  0.09298  0.10503  0.10636  N:  8.847  9.000  9.007  Nx:  18.136   dN:-0.474E-01
 MRCHDU: Convergence failed at  19  side 2    Res =  0.2995E+01
 MRCHDU: Convergence failed at  20  side 2    Res =  0.2580E+02
 MRCHDU: Convergence failed at  21  side 2    Res =  0.6137E+02
 MRCHDU: Convergence failed at  22  side 2    Res =  0.1019E+03
 MRCHDU: Convergence failed at  23  side 2    Res =  0.5076E+02
 MRCHDU: Convergence failed at  24  side 2    Res =  0.4974E+02
 MRCHDU: Convergence failed at  25  side 2    Res =  0.3844E+02
 MRCHDU: Convergence failed at  26  side 2    Res =  0.3557E+02
 MRCHDU: Convergence failed at  27  side 2    Res =  0.3248E+02
 MRCHDU: Convergence failed at  28  side 2    Res =  0.3341E+02
 MRCHDU: Convergence failed at  29  side 2    Res =  0.3330E+02
 MRCHDU: Convergence failed at  30  side 2    Res =  0.3233E+02
 MRCHDU: Convergence failed at  31  side 2    Res =  0.3261E+02
 MRCHDU: Convergence failed at  32  side 2    Res =  0.3635E+02
 MRCHDU: Convergence failed at  33  side 2    Res =  0.3625E+02
 MRCHDU: Convergence failed at  34  side 2    Res =  0.4992E+02
 MRCHDU: Convergence failed at  35  side 2    Res =  0.5508E+02
 MRCHDU: Convergence failed at  36  side 2    Res =  0.6019E+02
 MRCHDU: Convergence failed at  37  side 2    Res =  0.6359E+02
 MRCHDU: Convergence failed at  38  side 2    Res =  0.5596E+02
 MRCHDU: Convergence failed at  39  side 2    Res =  0.1026E+03
 MRCHDU: Convergence failed at  40  side 2    Res =  0.1009E+03
 MRCHDU: Convergence failed at  41  side 2    Res =  0.1001E+03
 MRCHDU: Convergence failed at  42  side 2    Res =  0.1001E+03
 MRCHDU: Convergence failed at  43  side 2    Res =  0.1005E+03
 MRCHDU: Convergence failed at  44  side 2    Res =  0.1010E+03
 MRCHDU: Convergence failed at  45  side 2    Res =  0.1026E+03
 MRCHDU: Convergence failed at  46  side 2    Res =  0.1045E+03
 MRCHDU: Convergence failed at  47  side 2    Res =  0.1057E+03
 MRCHDU: Convergence failed at  48  side 2    Res =  0.1069E+03
 MRCHDU: Convergence failed at  49  side 2    Res =  0.1085E+03
 MRCHDU: Convergence failed at  50  side 2    Res =  0.1112E+03
 MRCHDU: Convergence failed at  51  side 2    Res =  0.1150E+03
 MRCHDU: Convergence failed at  52  side 2    Res =  0.1196E+03
 MRCHDU: Convergence failed at  53  side 2    Res =  0.1254E+03
 MRCHDU: Convergence failed at  54  side 2    Res =  0.3363E+03
 MRCHDU: Convergence failed at  55  side 2    Res =  0.3587E+03
 MRCHDU: Convergence failed at  56  side 2    Res =  0.3761E+03
 MRCHDU: Convergence failed at  57  side 2    Res =  0.4047E+03
 MRCHDU: Convergence failed at  58  side 2    Res =  0.4508E+03
 MRCHDU: Convergence failed at  59  side 2    Res =  0.4756E+03
 MRCHDU: Convergence failed at  60  side 2    Res =  0.5144E+03
 MRCHDU: Convergence failed at  61  side 2    Res =  0.5571E+03
 MRCHDU: Convergence failed at  62  side 2    Res =  0.6729E+03
 MRCHDU: Convergence failed at  63  side 2    Res =  0.7567E+03
 MRCHDU: Convergence failed at  64  side 2    Res =  0.1160E+04
 MRCHDU: Convergence failed at  65  side 2    Res =  0.9404E+03
 MRCHDU: Convergence failed at  66  side 2    Res =  0.2997E+04
 MRCHDU: Convergence failed at  67  side 2    Res =  0.1069E+04
 MRCHDU: Convergence failed at  68  side 2    Res =  0.6884E+03
 MRCHDU: Convergence failed at  69  side 2    Res =  0.3830E+03
 MRCHDU: Convergence failed at  70  side 2    Res =  0.2733E+03
 MRCHDU: Convergence failed at  71  side 2    Res =  0.1922E+03
 MRCHDU: Convergence failed at  72  side 2    Res =  0.1594E+03
 MRCHDU: Convergence failed at  73  side 2    Res =  0.1360E+03
 MRCHDU: Convergence failed at  74  side 2    Res =  0.1421E+03
 MRCHDU: Convergence failed at  75  side 2    Res =  0.1408E+03
 MRCHDU: Convergence failed at  76  side 2    Res =  0.1407E+03
 MRCHDU: Convergence failed at  77  side 2    Res =  0.1545E+03
 MRCHDU: Convergence failed at  78  side 2    Res =  0.1920E+03
 MRCHDU: Convergence failed at  79  side 2    Res =  0.2252E+03
 MRCHDU: Convergence failed at  80  side 2    Res =  0.4479E+03
 MRCHDU: Convergence failed at  81  side 2    Res =  0.6050E+03
 MRCHDU: Convergence failed at  82  side 2    Res =  0.7334E+03
 MRCHDU: Convergence failed at  83  side 2    Res =  0.1606E+03
 MRCHDU: Convergence failed at  84  side 2    Res =  0.2512E+03
 MRCHDU: Convergence failed at  85  side 2    Res =  0.2450E+03
 MRCHDU: Convergence failed at  99  side 2    Res =  0.4886E+01
 MRCHDU: Convergence failed at 100  side 2    Res =  0.2048E+01
 MRCHDU: Convergence failed at 101  side 2    Res =  0.3764E+01
 MRCHDU: Convergence failed at 102  side 2    Res =  0.3556E+01
 MRCHDU: Convergence failed at 103  side 2    Res =  0.4722E+02
 MRCHDU: Convergence failed at 104  side 2    Res =  0.2049E+02
 MRCHDU: Convergence failed at 105  side 2    Res =  0.6118E+01
 MRCHDU: Convergence failed at 106  side 2    Res =  0.3479E+01
 Side 1 forced transition at x/c =  1.0000   77
 Side 2  free  transition at x/c =  0.0842   19

  39   rms: 0.6023E+01   max: -.1136E+03   D at  107  2   RLX: 0.004
       a = -4.000      CL = -1.8328
      Cm =  0.4303     CD =  0.00474   =>   CDf =  0.00185    CDp =  0.00289

 Side 1 forced transition at x/c =  1.0000   77
 Side 2  free  transition at x/c =  0.0856   19

  40   rms: 0.1549E+01   max: -.9313E+01   T at   19  2   RLX: 0.054
       a = -4.000      CL = -1.3823
      Cm =  0.2828     CD =  0.08490   =>   CDf =  0.00235    CDp =  0.08255

 Side 1 forced transition at x/c =  1.0000   77
 Side 2  free  transition at x/c =  0.0782   19

  41   rms: 0.1494E+01   max: -.7333E+01   D at   76  1   RLX: 0.068
       a = -4.000      CL = -1.3171
      Cm =  0.2675     CD =  0.11629   =>   CDf =  0.00257    CDp =  0.11371

 Side 1 forced transition at x/c =  1.0000   77
 Side 2  free  transition at x/c =  0.0766   18

  42   rms: 0.1623E+01   max: 0.2914E+02   T at   19  2   RLX: 0.051
       a = -4.000      CL = -1.2467
      Cm =  0.2397     CD =  0.17334   =>   CDf =  0.00289    CDp =  0.17046

 Side 1 forced transition at x/c =  1.0000   77
 Side 2  free  transition at x/c =  0.0683   18

  43   rms: 0.7803E+00   max: -.7400E+01   T at   18  2   RLX: 0.068
       a = -4.000      CL = -1.2191
      Cm =  0.2323     CD =  0.16869   =>   CDf =  0.00301    CDp =  0.16568

 Side 1 forced transition at x/c =  1.0000   77
 Side 2  free  transition at x/c =  0.0670   18

  44   rms: 0.7083E+00   max: -.2062E+01   C at   99  2   RLX: 0.242
       a = -4.000      CL = -0.9876
      Cm =  0.1740     CD =  0.08386   =>   CDf =  0.00323    CDp =  0.08063

 MRCHDU: Convergence failed at 100  side 2    Res =  0.1143E+01
 MRCHDU: Convergence failed at 101  side 2    Res =  0.9360E+00
 MRCHDU: Convergence failed at 102  side 2    Res =  0.2332E+01
 MRCHDU: Convergence failed at 103  side 2    Res =  0.2879E+01
 Side 1 forced transition at x/c =  1.0000   78
 Side 2  free  transition at x/c =  0.0635   16

  45   rms: 0.6983E+00   max: -.2948E+01   T at   17  2   RLX: 0.170
       a = -4.000      CL = -0.7959
      Cm =  0.1267     CD =  0.07976   =>   CDf =  0.00335    CDp =  0.07641

 Side 1 forced transition at x/c =  1.0000   78
 Side 2  free  transition at x/c =  0.0424   15

  46   rms: 0.1108E+01   max: -.1567E+02   T at   15  2   RLX: 0.032
       a = -4.000      CL = -0.7283
      Cm =  0.1135     CD =  0.11705   =>   CDf =  0.00341    CDp =  0.11364

 Side 1 forced transition at x/c =  1.0000   78
 Side 2  free  transition at x/c =  0.0407   15

  47   rms: 0.1418E+01   max: 0.2286E+02   T at   15  2   RLX: 0.066
       a = -4.000      CL = -0.6884
      Cm =  0.1037     CD =  0.09345   =>   CDf =  0.00341    CDp =  0.09004

 Side 1 forced transition at x/c =  1.0000   78
 Side 2  free  transition at x/c =  0.0344   14

  48   rms: 0.8433E+00   max: 0.1430E+02   T at   14  2   RLX: 0.105
       a = -4.000      CL = -0.6341
      Cm =  0.0873     CD =  0.07025   =>   CDf =  0.00343    CDp =  0.06683

 Side 1 forced transition at x/c =  1.0000   78
 Side 2  free  transition at x/c =  0.0299   14

  49   rms: 0.6553E+00   max: -.3884E+01   T at   14  2   RLX: 0.129
       a = -4.000      CL = -0.5303
      Cm =  0.0668     CD =  0.06012   =>   CDf =  0.00341    CDp =  0.05671

 Side 1 forced transition at x/c =  1.0000   78
 Side 2  free  transition at x/c =  0.0323   14

  50   rms: 0.5543E+00   max: -.1933E+01   T at  106  2   RLX: 0.259
       a = -4.000      CL = -0.3874
      Cm =  0.0342     CD =  0.01979   =>   CDf =  0.00339    CDp =  0.01640

 Side 1 forced transition at x/c =  1.0000   78
 Side 2  free  transition at x/c =  0.0339   14

  51   rms: 0.4774E+00   max: -.1838E+01   T at  106  2   RLX: 0.272
       a = -4.000      CL = -0.2794
      Cm =  0.0078     CD =  0.01633   =>   CDf =  0.00337    CDp =  0.01297

 Side 1 forced transition at x/c =  1.0000   78
 Side 2  free  transition at x/c =  0.0386   14

  52   rms: 0.3855E+00   max: 0.1064E+01   T at   85  2   RLX: 0.473
       a = -4.000      CL = -0.1924
      Cm = -0.0170     CD =  0.00515   =>   CDf =  0.00333    CDp =  0.00182

 Side 1 forced transition at x/c =  1.0000   78
 Side 2  free  transition at x/c =  0.0382   14

  53   rms: 0.4006E+00   max: -.1962E+01   T at   15  2   RLX: 0.255
       a = -4.000      CL = -0.1740
      Cm = -0.0301     CD =  0.00241   =>   CDf =  0.00331    CDp = -0.00091

 Side 1 forced transition at x/c =  1.0000   78
 Side 2  free  transition at x/c =  0.0365   14

  54   rms: 0.4350E+00   max: 0.3175E+01   T at   14  2   RLX: 0.288
       a = -4.000      CL = -0.2111
      Cm = -0.0322     CD =  0.00181   =>   CDf =  0.00337    CDp = -0.00156

 Side 1 forced transition at x/c =  1.0000   78
 Side 2  free  transition at x/c =  0.0324   14

  55   rms: 0.4430E+00   max: -.2042E+01   D at  103  2   RLX: 0.245
       a = -4.000      CL = -0.2658
      Cm = -0.0296     CD =  0.00192   =>   CDf =  0.00339    CDp = -0.00147

 MRCHDU: Convergence failed at 105  side 2    Res =  0.2509E+01
 Side 1 forced transition at x/c =  1.0000   78
 Side 2  free  transition at x/c =  0.0309   14

  56   rms: 0.4576E+00   max: -.2306E+01   D at  101  2   RLX: 0.217
       a = -4.000      CL = -0.3078
      Cm = -0.0307     CD =  0.00635   =>   CDf =  0.00338    CDp =  0.00297

 Side 1 forced transition at x/c =  1.0000   78
 Side 2  free  transition at x/c =  0.0308   14

  57   rms: 0.4607E+00   max: -.4753E+01   T at   14  2   RLX: 0.105
       a = -4.000      CL = -0.3139
      Cm = -0.0319     CD =  0.01088   =>   CDf =  0.00336    CDp =  0.00752

 Side 1 forced transition at x/c =  1.0000   78
 Side 2  free  transition at x/c =  0.0355   14

  58   rms: 0.4429E+00   max: -.2601E+01   D at  101  2   RLX: 0.192
       a = -4.000      CL = -0.3435
      Cm = -0.0315     CD =  0.00851   =>   CDf =  0.00336    CDp =  0.00515

 MRCHDU: Convergence failed at 102  side 2    Res =  0.2664E-01
 MRCHDU: Convergence failed at 103  side 2    Res =  0.2320E+01
 MRCHDU: Convergence failed at 104  side 2    Res =  0.3137E+01
 MRCHDU: Convergence failed at 105  side 2    Res =  0.2977E+01
 Side 1 forced transition at x/c =  1.0000   78
 Side 2  free  transition at x/c =  0.0517   15

  59   rms: 0.7890E+00   max: -.3336E+01   T at   16  2   RLX: 0.150
       a = -4.000      CL = -0.3508
      Cm = -0.0108     CD =  0.04740   =>   CDf =  0.00333    CDp =  0.04407

 Side 1 forced transition at x/c =  1.0000   78
 Side 2  free  transition at x/c =  0.0545   16

  60   rms: 0.6812E+01   max: -.8571E+02   T at   16  2   RLX: 0.006
       a = -4.000      CL = -0.3263
      Cm = -0.0178     CD =  0.04666   =>   CDf =  0.00334    CDp =  0.04331

 Side 1 forced transition at x/c =  1.0000   78
 Side 2  free  transition at x/c =  0.0585   16

  61   rms: 0.7720E+00   max: -.1646E+02   T at   16  2   RLX: 0.030
       a = -4.000      CL = -0.3411
      Cm = -0.0139     CD =  0.04626   =>   CDf =  0.00333    CDp =  0.04293

 Side 1 forced transition at x/c =  1.0000   78
 Side 2  free  transition at x/c =  0.0560   16

  62   rms: 0.1223E+01   max: -.1270E+02   T at   16  2   RLX: 0.039
       a = -4.000      CL = -0.4009
      Cm = -0.0028     CD =  0.05009   =>   CDf =  0.00334    CDp =  0.04675

 Side 1 forced transition at x/c =  1.0000   78
 Side 2  free  transition at x/c =  0.0543   16

  63   rms: 0.4112E+00   max: -.2445E+01   D at  105  2   RLX: 0.204
       a = -4.000      CL = -0.4417
      Cm =  0.0060     CD =  0.04232   =>   CDf =  0.00339    CDp =  0.03893

 Side 1 forced transition at x/c =  1.0000   78
 Side 2  free  transition at x/c =  0.0527   16

  64   rms: 0.8774E+00   max: 0.9289E+01   T at   16  2   RLX: 0.127
       a = -4.000      CL = -0.5026
      Cm =  0.0104     CD =  0.05017   =>   CDf =  0.00341    CDp =  0.04677

 Side 1 forced transition at x/c =  1.0000   78
 Side 2  free  transition at x/c =  0.0499   15

  65   rms: 0.4269E+00   max: -.1916E+01   D at  101  2   RLX: 0.261
       a = -4.000      CL = -0.3744
      Cm = -0.0307     CD =  0.02943   =>   CDf =  0.00346    CDp =  0.02597

 Side 1 forced transition at x/c =  1.0000   78
 Side 2  free  transition at x/c =  0.0497   15

  66   rms: 0.4283E+00   max: 0.2141E+01   C at   78  1   RLX: 0.260
       a = -4.000      CL = -0.3069
      Cm = -0.0517     CD =  0.02178   =>   CDf =  0.00333    CDp =  0.01845

 Side 1 forced transition at x/c =  1.0000   78
 Side 2  free  transition at x/c =  0.0500   15

  67   rms: 0.4653E+00   max: 0.3227E+01   C at   78  1   RLX: 0.282
       a = -4.000      CL = -0.2639
      Cm = -0.0677     CD =  0.01555   =>   CDf =  0.00319    CDp =  0.01236

 Side 1 forced transition at x/c =  1.0000   78
 Side 2  free  transition at x/c =  0.0504   15
 idif Ue xi dudx           1  0.32449669      3.77476215E-03   85.964806    
 Uenew xinew           2  5.12082726E-02  5.95688820E-04

  68   rms: 0.6686E+00   max: 0.4928E+01   C at   78  1   RLX: 0.269
       a = -4.000      CL = -0.2685
      Cm = -0.0818     CD =  0.01048   =>   CDf =  0.00292    CDp =  0.00756

 Side 1 forced transition at x/c =  1.0000   77
 Side 2  free  transition at x/c =  0.0507   16

  69   rms: 0.4301E+00   max: 0.3095E+01   D at   74  1   RLX: 0.485
       a = -4.000      CL = -0.3577
      Cm = -0.0523     CD =  0.02224   =>   CDf =  0.00329    CDp =  0.01895

 Side 1 forced transition at x/c =  1.0000   77
 Side 2  free  transition at x/c =  0.0489   16

  70   rms: 0.1781E+00   max: 0.9506E+00   D at   68  1   RLX: 0.547
       a = -4.000      CL = -0.3041
      Cm = -0.0555     CD =  0.01808   =>   CDf =  0.00382    CDp =  0.01426

 Side 1  free  transition at x/c =  0.9988   77
 Side 2  free  transition at x/c =  0.0462   16

  71   rms: 0.2322E+00   max: 0.1110E+01   T at   77  1   RLX: 0.656
       a = -4.000      CL = -0.2164
      Cm = -0.0715     CD =  0.01376   =>   CDf =  0.00349    CDp =  0.01027

 Side 1  free  transition at x/c =  0.9882   77
 Side 2  free  transition at x/c =  0.0380   14

  72   rms: 0.5961E+00   max: -.9364E+01   T at    2  1   RLX: 0.053
       a = -4.000      CL = -0.2660
      Cm = -0.0643     CD =  0.02334   =>   CDf =  0.00292    CDp =  0.02042

 Side 1  free  transition at x/c =  0.9877   77
 Side 2  free  transition at x/c =  0.0377   14

  73   rms: 0.3068E+00   max: -.3635E+01   T at   15  2   RLX: 0.138
       a = -4.000      CL = -0.2594
      Cm = -0.0644     CD =  0.02194   =>   CDf =  0.00291    CDp =  0.01903

 Side 1  free  transition at x/c =  0.9863   77
 Side 2  free  transition at x/c =  0.0367   14

  74   rms: 0.1999E+01   max: -.2545E+02   T at   14  2   RLX: 0.020
       a = -4.000      CL = -0.2796
      Cm = -0.0572     CD =  0.02785   =>   CDf =  0.00270    CDp =  0.02515

 Side 1  free  transition at x/c =  0.9865   77
 Side 2  free  transition at x/c =  0.0375   14
 idif Ue xi dudx           1  0.28700814      3.29041481E-03   87.225517    
 Uenew xinew           2  9.71181784E-03  1.11341476E-04

  75   rms: 0.4836E+00   max: -.1277E+01   D at   76  2   RLX: 0.392
       a = -4.000      CL = -0.2438
      Cm = -0.0736     CD =  0.01660   =>   CDf =  0.00253    CDp =  0.01407

 Side 1  free  transition at x/c =  0.9824   75
 Side 2  free  transition at x/c =  0.0361   15

  76   rms: 0.4689E+00   max: 0.4098E+01   T at   15  2   RLX: 0.274
       a = -4.000      CL = -0.2269
      Cm = -0.0765     CD =  0.01172   =>   CDf =  0.00343    CDp =  0.00829

 Side 1  free  transition at x/c =  0.9848   76
 Side 2  free  transition at x/c =  0.0307   15

  77   rms: 0.2128E+00   max: -.2188E+01   T at   15  2   RLX: 0.229
       a = -4.000      CL = -0.2434
      Cm = -0.0706     CD =  0.01884   =>   CDf =  0.00298    CDp =  0.01585

 Side 1  free  transition at x/c =  0.9839   77
 Side 2  free  transition at x/c =  0.0343   14

  78   rms: 0.4183E+01   max: -.5649E+02   T at   14  2   RLX: 0.009
       a = -4.000      CL = -0.2523
      Cm = -0.0665     CD =  0.02236   =>   CDf =  0.00281    CDp =  0.01955

 Side 1  free  transition at x/c =  0.9839   77
 Side 2  free  transition at x/c =  0.0351   14

  79   rms: 0.3951E+00   max: -.1153E+01   D at   76  2   RLX: 0.434
       a = -4.000      CL = -0.2182
      Cm = -0.0794     CD =  0.01551   =>   CDf =  0.00271    CDp =  0.01281

 Side 1  free  transition at x/c =  0.9822   76
 Side 2  free  transition at x/c =  0.0342   14
 idif Ue xi dudx           1  0.28757474      3.28910351E-03   87.432556    
 Uenew xinew           2  9.62021947E-03  1.10030174E-04

  80   rms: 0.7122E+00   max: 0.7901E+01   T at   14  2   RLX: 0.190
       a = -4.000      CL = -0.2043
      Cm = -0.0829     CD =  0.01154   =>   CDf =  0.00319    CDp =  0.00835

 Side 1  free  transition at x/c =  0.9849   76
 Side 2  free  transition at x/c =  0.0284   15

  81   rms: 0.3479E+00   max: -.1075E+01   T at    2  2   RLX: 0.465
       a = -4.000      CL = -0.2162
      Cm = -0.0745     CD =  0.01691   =>   CDf =  0.00293    CDp =  0.01398

 Side 1  free  transition at x/c =  0.9833   77
 Side 2  free  transition at x/c =  0.0287   14

  82   rms: 0.3389E+00   max: -.2647E+01   D at    2  1   RLX: 0.189
       a = -4.000      CL = -0.2128
      Cm = -0.0740     CD =  0.01859   =>   CDf =  0.00292    CDp =  0.01568

 Side 1  free  transition at x/c =  0.9832   77
 Side 2  free  transition at x/c =  0.0290   14

  83   rms: 0.2755E+00   max: -.1235E+01   T at   14  2   RLX: 0.405
       a = -4.000      CL = -0.1942
      Cm = -0.0766     CD =  0.01655   =>   CDf =  0.00296    CDp =  0.01359

 Side 1  free  transition at x/c =  0.9830   77
 Side 2  free  transition at x/c =  0.0302   14

  84   rms: 0.2231E+00   max: -.2293E+01   T at   14  2   RLX: 0.218
       a = -4.000      CL = -0.1981
      Cm = -0.0753     CD =  0.01910   =>   CDf =  0.00291    CDp =  0.01618

 Side 1  free  transition at x/c =  0.9828   77
 Side 2  free  transition at x/c =  0.0331   14

  85   rms: 0.1305E+01   max: 0.1308E+02   T at   14  2   RLX: 0.115
       a = -4.000      CL = -0.1940
      Cm = -0.0835     CD =  0.01359   =>   CDf =  0.00282    CDp =  0.01076

 MRCHDU: Convergence failed at  48  side 2    Res =  0.8605E+00
 MRCHDU: Convergence failed at  49  side 2    Res =  0.8771E+00
 MRCHDU: Convergence failed at  50  side 2    Res =  0.9068E+00
 MRCHDU: Convergence failed at  51  side 2    Res =  0.9349E+00
 MRCHDU: Convergence failed at  52  side 2    Res =  0.9604E+00
 MRCHDU: Convergence failed at  53  side 2    Res =  0.9858E+00
 MRCHDU: Convergence failed at  54  side 2    Res =  0.1123E+01
 MRCHDU: Convergence failed at  55  side 2    Res =  0.1191E+01
 MRCHDU: Convergence failed at  56  side 2    Res =  0.1264E+01
 MRCHDU: Convergence failed at  57  side 2    Res =  0.1328E+01
 MRCHDU: Convergence failed at  58  side 2    Res =  0.1402E+01
 MRCHDU: Convergence failed at  59  side 2    Res =  0.1472E+01
 MRCHDU: Convergence failed at  60  side 2    Res =  0.1546E+01
 MRCHDU: Convergence failed at  61  side 2    Res =  0.1619E+01
 MRCHDU: Convergence failed at  62  side 2    Res =  0.1695E+01
 MRCHDU: Convergence failed at  63  side 2    Res =  0.1758E+01
 MRCHDU: Convergence failed at  64  side 2    Res =  0.1823E+01
 MRCHDU: Convergence failed at  65  side 2    Res =  0.1888E+01
 MRCHDU: Convergence failed at  66  side 2    Res =  0.1983E+01
 MRCHDU: Convergence failed at  67  side 2    Res =  0.2058E+01
 MRCHDU: Convergence failed at  68  side 2    Res =  0.2173E+01
 MRCHDU: Convergence failed at  69  side 2    Res =  0.2294E+01
 MRCHDU: Convergence failed at  70  side 2    Res =  0.2508E+01
 MRCHDU: Convergence failed at  71  side 2    Res =  0.2873E+01
 MRCHDU: Convergence failed at  72  side 2    Res =  0.3537E+01
 MRCHDU: Convergence failed at  73  side 2    Res =  0.4439E+01
 MRCHDU: Convergence failed at  74  side 2    Res =  0.3361E+02
 MRCHDU: Convergence failed at  75  side 2    Res =  0.7504E+01
 MRCHDU: Convergence failed at  76  side 2    Res =  0.2109E+01
 MRCHDU: Convergence failed at  77  side 2    Res =  0.2485E+01
 MRCHDU: Convergence failed at  78  side 2    Res =  0.1955E+01
 MRCHDU: Convergence failed at  79  side 2    Res =  0.2698E+01
 MRCHDU: Convergence failed at  80  side 2    Res =  0.3172E+01
 MRCHDU: Convergence failed at  81  side 2    Res =  0.6009E+01
 MRCHDU: Convergence failed at  82  side 2    Res =  0.1297E+02
 MRCHDU: Convergence failed at  83  side 2    Res =  0.4474E+01
 MRCHDU: Convergence failed at  84  side 2    Res =  0.2129E+01
 Side 1  free  transition at x/c =  0.9832   77
 Side 2  free  transition at x/c =  0.0280   13

  86   rms: 0.3418E+00   max: -.8948E+00   D at   15  2   RLX: 0.559
       a = -4.000      CL = -0.2583
      Cm = -0.0494     CD =  0.02020   =>   CDf =  0.00274    CDp =  0.01746

 Side 1  free  transition at x/c =  0.9806   76
 Side 2  free  transition at x/c =  0.0278   13

  87   rms: 0.2792E+00   max: -.9009E+00   T at   14  2   RLX: 0.555
       a = -4.000      CL = -0.2087
      Cm = -0.0614     CD =  0.01650   =>   CDf =  0.00338    CDp =  0.01312

 Side 1  free  transition at x/c =  0.9825   76
 Side 2  free  transition at x/c =  0.0276   13

  88   rms: 0.3044E+00   max: -.8500E+00   D at   15  2   RLX: 0.588
       a = -4.000      CL = -0.1787
      Cm = -0.0708     CD =  0.01310   =>   CDf =  0.00342    CDp =  0.00968

 Side 1  free  transition at x/c =  0.9861   77
 Side 2  free  transition at x/c =  0.0272   13
 idif Ue xi dudx           1  0.28974152      3.18181515E-03   91.061707    
 Uenew xinew           2  2.49674224E-04  2.74181366E-06

  89   rms: 0.2899E+00   max: -.8308E+00   D at   15  2   RLX: 0.602
       a = -4.000      CL = -0.1624
      Cm = -0.0744     CD =  0.00997   =>   CDf =  0.00399    CDp =  0.00598

 Side 1  free  transition at x/c =  0.9848   76
 Side 2  free  transition at x/c =  0.0268   14

  90   rms: 0.1131E+01   max: -.1964E+02   T at    2  2   RLX: 0.025
       a = -4.000      CL = -0.1582
      Cm = -0.0736     CD =  0.00960   =>   CDf =  0.00515    CDp =  0.00444

 Side 1  free  transition at x/c =  0.9849   77
 Side 2  free  transition at x/c =  0.0268   13
 idif Ue xi dudx           1  0.29580432      3.18312645E-03   92.928864    
 Uenew xinew           2  3.76651442E-04  4.05311584E-06

  91   rms: 0.1019E+01   max: 0.1767E+02   T at    2  1   RLX: 0.072
       a = -4.000      CL = -0.1576
      Cm = -0.0738     CD =  0.00918   =>   CDf =  0.00499    CDp =  0.00418

 Side 1  free  transition at x/c =  0.9850   76
 Side 2  free  transition at x/c =  0.0268   14

  92   rms: 0.1370E+01   max: -.2393E+02   T at    2  2   RLX: 0.021
       a = -4.000      CL = -0.1574
      Cm = -0.0738     CD =  0.00905   =>   CDf =  0.00527    CDp =  0.00378

 Side 1  free  transition at x/c =  0.9850   77
 Side 2  free  transition at x/c =  0.0268   13
 idif Ue xi dudx           1  0.30127221      3.18169594E-03   94.689194    
 Uenew xinew           2  2.48332304E-04  2.62260437E-06

  93   rms: 0.1147E+01   max: 0.2005E+02   D at    2  1   RLX: 0.064
       a = -4.000      CL = -0.1568
      Cm = -0.0740     CD =  0.00869   =>   CDf =  0.00510    CDp =  0.00359

 Side 1  free  transition at x/c =  0.9851   76
 Side 2  free  transition at x/c =  0.0268   14

  94   rms: 0.1103E+01   max: -.1917E+02   T at    2  2   RLX: 0.026
       a = -4.000      CL = -0.1566
      Cm = -0.0740     CD =  0.00855   =>   CDf =  0.00537    CDp =  0.00318

 Side 1  free  transition at x/c =  0.9852   77
 Side 2  free  transition at x/c =  0.0268   13
 idif Ue xi dudx           1  0.30630234      3.17990780E-03   96.324280    
 Uenew xinew           2  8.03792427E-05  8.34465027E-07

  95   rms: 0.1316E+01   max: 0.2326E+02   T at    2  1   RLX: 0.056
       a = -4.000      CL = -0.1562
      Cm = -0.0741     CD =  0.00825   =>   CDf =  0.00520    CDp =  0.00305

 Side 1  free  transition at x/c =  0.9853   76
 Side 2  free  transition at x/c =  0.0268   14

  96   rms: 0.8688E+00   max: -.1504E+02   T at    2  2   RLX: 0.033
       a = -4.000      CL = -0.1561
      Cm = -0.0742     CD =  0.00807   =>   CDf =  0.00535    CDp =  0.00272

 Side 1  free  transition at x/c =  0.9854   76
 Side 2  free  transition at x/c =  0.0268   14

  97   rms: 0.1241E+01   max: -.2169E+02   D at    2  2   RLX: 0.023
       a = -4.000      CL = -0.1559
      Cm = -0.0742     CD =  0.00795   =>   CDf =  0.00538    CDp =  0.00258

 Side 1  free  transition at x/c =  0.9854   76
 Side 2  free  transition at x/c =  0.0268   14

  98   rms: 0.1101E+01   max: -.1979E+02   D at    2  2   RLX: 0.025
       a = -4.000      CL = -0.1557
      Cm = -0.0743     CD =  0.00783   =>   CDf =  0.00540    CDp =  0.00244

 Side 1  free  transition at x/c =  0.9855   76
 Side 2  free  transition at x/c =  0.0268   14

  99   rms: 0.2360E+00   max: -.1280E+01   D at    3  2   RLX: 0.391
       a = -4.000      CL = -0.1535
      Cm = -0.0749     CD =  0.00618   =>   CDf =  0.00542    CDp =  0.00076

 Side 1  free  transition at x/c =  0.9864   76
 Side 2  free  transition at x/c =  0.0271   14

 100   rms: 0.1266E+00   max: -.6696E+00   D at   16  2   RLX: 0.747
       a = -4.000      CL = -0.1519
      Cm = -0.0756     CD =  0.00441   =>   CDf =  0.00577    CDp = -0.00136

 Side 1  free  transition at x/c =  0.9881   76
 Side 2  free  transition at x/c =  0.0272   14

 101   rms: 0.1776E-01   max: -.1594E+00   D at   18  2
       a = -4.000      CL = -0.1510
      Cm = -0.0761     CD =  0.00398   =>   CDf =  0.00597    CDp = -0.00199

 Side 1  free  transition at x/c =  0.9890   76
 Side 2  free  transition at x/c =  0.0271   14

 102   rms: 0.1768E-02   max: 0.1029E-01   D at   15  2
       a = -4.000      CL = -0.1509
      Cm = -0.0761     CD =  0.00399   =>   CDf =  0.00600    CDp = -0.00201

 Side 1  free  transition at x/c =  0.9890   76
 Side 2  free  transition at x/c =  0.0271   14

 103   rms: 0.1908E-04   max: -.1751E-03   D at  106  2
       a = -4.000      CL = -0.1509
      Cm = -0.0761     CD =  0.00399   =>   CDf =  0.00599    CDp = -0.00200
 plradd ia,ip,cpol            1           0  9.18823876E-04

 Point added to stored polar  1
 Point written to save file  ma409sm_Re300k.base.pol                         
 Dump file unspecified or not available
 Calculating wake trajectory ...
 Calculating source influence matrix ...

 Solving BL system ...

 Side 1  free  transition at x/c =  0.9890   76
 Side 2  free  transition at x/c =  0.0271   14

   1   rms: 0.1514E+00   max: -.4955E+00   T at   14  2
       a = -3.500      CL = -0.0797
      Cm = -0.0795     CD =  0.00252   =>   CDf =  0.00611    CDp = -0.00359

 MRCHDU: Convergence failed at  14  side 2    Res =  0.3943E+01
 MRCHDU: Convergence failed at  15  side 2    Res =  0.1382E+02
 MRCHDU: Convergence failed at  16  side 2    Res =  0.7980E+02
 MRCHDU: Convergence failed at  17  side 2    Res =  0.8062E+02
 MRCHDU: Convergence failed at  18  side 2    Res =  0.9444E+02
 MRCHDU: Convergence failed at  19  side 2    Res =  0.1114E+04
 MRCHDU: Convergence failed at  20  side 2    Res =  0.8986E+02
 MRCHDU: Convergence failed at  21  side 2    Res =  0.4407E+02
 MRCHDU: Convergence failed at  22  side 2    Res =  0.2729E+02
 MRCHDU: Convergence failed at  23  side 2    Res =  0.2241E+02
 MRCHDU: Convergence failed at  24  side 2    Res =  0.1703E+02
 MRCHDU: Convergence failed at  25  side 2    Res =  0.1854E+02
 MRCHDU: Convergence failed at  26  side 2    Res =  0.2011E+02
 MRCHDU: Convergence failed at  27  side 2    Res =  0.2183E+02
 MRCHDU: Convergence failed at  28  side 2    Res =  0.2349E+02
 MRCHDU: Convergence failed at  29  side 2    Res =  0.2520E+02
 MRCHDU: Convergence failed at  30  side 2    Res =  0.2706E+02
 MRCHDU: Convergence failed at  31  side 2    Res =  0.2913E+02
 MRCHDU: Convergence failed at  32  side 2    Res =  0.3122E+02
 MRCHDU: Convergence failed at  33  side 2    Res =  0.3350E+02
 MRCHDU: Convergence failed at  34  side 2    Res =  0.3606E+02
 MRCHDU: Convergence failed at  35  side 2    Res =  0.3596E+02
 MRCHDU: Convergence failed at  36  side 2    Res =  0.3627E+02
 MRCHDU: Convergence failed at  37  side 2    Res =  0.3895E+02
 MRCHDU: Convergence failed at  38  side 2    Res =  0.4556E+02
 MRCHDU: Convergence failed at  39  side 2    Res =  0.4895E+02
 MRCHDU: Convergence failed at  40  side 2    Res =  0.5463E+02
 MRCHDU: Convergence failed at  41  side 2    Res =  0.1230E+03
 MRCHDU: Convergence failed at  42  side 2    Res =  0.1306E+03
 MRCHDU: Convergence failed at  43  side 2    Res =  0.1381E+03
 MRCHDU: Convergence failed at  44  side 2    Res =  0.1124E+03
 MRCHDU: Convergence failed at  45  side 2    Res =  0.7467E+02
 MRCHDU: Convergence failed at  46  side 2    Res =  0.7213E+02
 MRCHDU: Convergence failed at  47  side 2    Res =  0.7463E+02
 MRCHDU: Convergence failed at  48  side 2    Res =  0.7677E+02
 MRCHDU: Convergence failed at  49  side 2    Res =  0.7564E+02
 MRCHDU: Convergence failed at  50  side 2    Res =  0.7506E+02
 MRCHDU: Convergence failed at  51  side 2    Res =  0.7069E+02
 MRCHDU: Convergence failed at  52  side 2    Res =  0.6376E+02
 MRCHDU: Convergence failed at  53  side 2    Res =  0.6426E+02
 MRCHDU: Convergence failed at  54  side 2    Res =  0.5852E+02
 MRCHDU: Convergence failed at  55  side 2    Res =  0.5543E+02
 MRCHDU: Convergence failed at  56  side 2    Res =  0.5611E+02
 MRCHDU: Convergence failed at  57  side 2    Res =  0.5681E+02
 MRCHDU: Convergence failed at  58  side 2    Res =  0.5751E+02
 MRCHDU: Convergence failed at  59  side 2    Res =  0.5823E+02
 MRCHDU: Convergence failed at  60  side 2    Res =  0.5888E+02
 MRCHDU: Convergence failed at  61  side 2    Res =  0.5959E+02
 MRCHDU: Convergence failed at  62  side 2    Res =  0.6007E+02
 MRCHDU: Convergence failed at  63  side 2    Res =  0.6069E+02
 MRCHDU: Convergence failed at  64  side 2    Res =  0.6128E+02
 MRCHDU: Convergence failed at  65  side 2    Res =  0.5994E+02
 MRCHDU: Convergence failed at  66  side 2    Res =  0.6046E+02
 MRCHDU: Convergence failed at  67  side 2    Res =  0.6089E+02
 MRCHDU: Convergence failed at  68  side 2    Res =  0.6136E+02
 MRCHDU: Convergence failed at  69  side 2    Res =  0.6184E+02
 MRCHDU: Convergence failed at  70  side 2    Res =  0.6232E+02
 MRCHDU: Convergence failed at  71  side 2    Res =  0.6275E+02
 MRCHDU: Convergence failed at  72  side 2    Res =  0.6302E+02
 MRCHDU: Convergence failed at  73  side 2    Res =  0.6320E+02
 MRCHDU: Convergence failed at  74  side 2    Res =  0.6329E+02
 MRCHDU: Convergence failed at  75  side 2    Res =  0.5713E+02
 MRCHDU: Convergence failed at  76  side 2    Res =  0.5604E+02
 MRCHDU: Convergence failed at  77  side 2    Res =  0.5462E+02
 MRCHDU: Convergence failed at  78  side 2    Res =  0.5315E+02
 MRCHDU: Convergence failed at  79  side 2    Res =  0.5123E+02
 MRCHDU: Convergence failed at  80  side 2    Res =  0.4851E+02
 MRCHDU: Convergence failed at  81  side 2    Res =  0.4515E+02
 MRCHDU: Convergence failed at  82  side 2    Res =  0.4141E+02
 MRCHDU: Convergence failed at  83  side 2    Res =  0.3795E+02
 MRCHDU: Convergence failed at  84  side 2    Res =  0.3889E+02
 Side 1  free  transition at x/c =  0.9845   77
 Side 2  free  transition at x/c =  0.0361   14

   2   rms: 0.1366E+01   max: 0.3009E+01   D at   45  2   RLX: 0.300
       a = -3.500      CL = -1.0978
      Cm =  0.2324     CD =  0.00118   =>   CDf =  0.00215    CDp = -0.00097

 MRCHDU: Convergence failed at  18  side 2    Res =  0.2314E+00
 MRCHDU: Convergence failed at  20  side 2    Res =  0.2757E+00
 MRCHDU: Convergence failed at  22  side 2    Res =  0.3011E+00
 MRCHDU: Convergence failed at  23  side 2    Res =  0.2613E+00
 MRCHDU: Convergence failed at  24  side 2    Res =  0.2134E+00
 MRCHDU: Convergence failed at  25  side 2    Res =  0.1323E+00
 MRCHDU: Convergence failed at  27  side 2    Res =  0.1647E+00
 MRCHDU: Convergence failed at  29  side 2    Res =  0.1052E+00
 MRCHDU: Convergence failed at  30  side 2    Res =  0.9603E-01
 MRCHDU: Convergence failed at  88  side 2    Res =  0.1807E+01
 MRCHDU: Convergence failed at  89  side 2    Res =  0.3147E+01
 MRCHDU: Convergence failed at  90  side 2    Res =  0.7101E+01
 MRCHDU: Convergence failed at  91  side 2    Res =  0.2220E+01
 MRCHDU: Convergence failed at  92  side 2    Res =  0.1434E+01
 Side 1  free  transition at x/c =  0.9958   78
 Side 2  free  transition at x/c =  0.0322   14

   3   rms: 0.4782E+00   max: -.9409E+00   D at  106  2   RLX: 0.494
       a = -3.500      CL = -0.3864
      Cm =  0.0226     CD =  0.00887   =>   CDf =  0.00318    CDp =  0.00569

 MRCHDU: Convergence failed at  82  side 2    Res =  0.2242E+00
 MRCHDU: Convergence failed at  83  side 2    Res =  0.6121E+00
 Side 1  free  transition at x/c =  0.9922   77
 Side 2  free  transition at x/c =  0.0338   14

   4   rms: 0.4855E+00   max: -.2246E+01   D at   23  2   RLX: 0.223
       a = -3.500      CL = -0.2298
      Cm = -0.0292     CD =  0.00628   =>   CDf =  0.00350    CDp =  0.00279

 MRCHDU: Convergence failed at  84  side 2    Res =  0.8010E-01
 Side 1  free  transition at x/c =  0.9941   77
 Side 2  free  transition at x/c =  0.0389   14

   5   rms: 0.9516E+00   max: -.5950E+01   D at   23  2   RLX: 0.084
       a = -3.500      CL = -0.1939
      Cm = -0.0404     CD =  0.00565   =>   CDf =  0.00369    CDp =  0.00196

 MRCHDU: Convergence failed at  15  side 2    Res =  0.1584E+01
 MRCHDU: Convergence failed at  16  side 2    Res =  0.1748E+02
 MRCHDU: Convergence failed at  17  side 2    Res =  0.7119E+02
 MRCHDU: Convergence failed at  18  side 2    Res =  0.7875E+02
 MRCHDU: Convergence failed at  19  side 2    Res =  0.1024E+02
 MRCHDU: Convergence failed at  20  side 2    Res =  0.2137E+02
 MRCHDU: Convergence failed at  21  side 2    Res =  0.1737E+02
 MRCHDU: Convergence failed at  22  side 2    Res =  0.3294E+02
 MRCHDU: Convergence failed at  23  side 2    Res =  0.2105E+02
 MRCHDU: Convergence failed at  24  side 2    Res =  0.2707E+02
 MRCHDU: Convergence failed at  25  side 2    Res =  0.9085E+02
 MRCHDU: Convergence failed at  26  side 2    Res =  0.1074E+03
 MRCHDU: Convergence failed at  27  side 2    Res =  0.4666E+02
 MRCHDU: Convergence failed at  28  side 2    Res =  0.2776E+02
 MRCHDU: Convergence failed at  29  side 2    Res =  0.2324E+02
 MRCHDU: Convergence failed at  30  side 2    Res =  0.6301E+02
 MRCHDU: Convergence failed at  31  side 2    Res =  0.1400E+02
 MRCHDU: Convergence failed at  32  side 2    Res =  0.1207E+02
 MRCHDU: Convergence failed at  33  side 2    Res =  0.1278E+02
 MRCHDU: Convergence failed at  34  side 2    Res =  0.1344E+02
 MRCHDU: Convergence failed at  35  side 2    Res =  0.1409E+02
 MRCHDU: Convergence failed at  36  side 2    Res =  0.1473E+02
 MRCHDU: Convergence failed at  37  side 2    Res =  0.1487E+02
 MRCHDU: Convergence failed at  38  side 2    Res =  0.1516E+02
 MRCHDU: Convergence failed at  39  side 2    Res =  0.1529E+02
 MRCHDU: Convergence failed at  40  side 2    Res =  0.1523E+02
 MRCHDU: Convergence failed at  41  side 2    Res =  0.1500E+02
 MRCHDU: Convergence failed at  42  side 2    Res =  0.1467E+02
 MRCHDU: Convergence failed at  43  side 2    Res =  0.1438E+02
 MRCHDU: Convergence failed at  44  side 2    Res =  0.1298E+02
 MRCHDU: Convergence failed at  45  side 2    Res =  0.1240E+02
 MRCHDU: Convergence failed at  46  side 2    Res =  0.1832E+02
 MRCHDU: Convergence failed at  47  side 2    Res =  0.2300E+02
 MRCHDU: Convergence failed at  48  side 2    Res =  0.1086E+02
 MRCHDU: Convergence failed at  49  side 2    Res =  0.8041E+02
 MRCHDU: Convergence failed at  50  side 2    Res =  0.1296E+03
 MRCHDU: Convergence failed at  51  side 2    Res =  0.1027E+02
 MRCHDU: Convergence failed at  52  side 2    Res =  0.1282E+02
 MRCHDU: Convergence failed at  53  side 2    Res =  0.1358E+02
 MRCHDU: Convergence failed at  54  side 2    Res =  0.1428E+02
 MRCHDU: Convergence failed at  55  side 2    Res =  0.1487E+02
 MRCHDU: Convergence failed at  56  side 2    Res =  0.1544E+02
 MRCHDU: Convergence failed at  57  side 2    Res =  0.1586E+02
 MRCHDU: Convergence failed at  58  side 2    Res =  0.1617E+02
 MRCHDU: Convergence failed at  59  side 2    Res =  0.1642E+02
 MRCHDU: Convergence failed at  60  side 2    Res =  0.1652E+02
 MRCHDU: Convergence failed at  61  side 2    Res =  0.1654E+02
 MRCHDU: Convergence failed at  62  side 2    Res =  0.1646E+02
 MRCHDU: Convergence failed at  63  side 2    Res =  0.1624E+02
 MRCHDU: Convergence failed at  64  side 2    Res =  0.1589E+02
 MRCHDU: Convergence failed at  65  side 2    Res =  0.1557E+02
 MRCHDU: Convergence failed at  66  side 2    Res =  0.1518E+02
 MRCHDU: Convergence failed at  67  side 2    Res =  0.1472E+02
 MRCHDU: Convergence failed at  68  side 2    Res =  0.1436E+02
 MRCHDU: Convergence failed at  69  side 2    Res =  0.1050E+02
 MRCHDU: Convergence failed at  70  side 2    Res =  0.1076E+02
 MRCHDU: Convergence failed at  71  side 2    Res =  0.1094E+02
 MRCHDU: Convergence failed at  72  side 2    Res =  0.1109E+02
 MRCHDU: Convergence failed at  73  side 2    Res =  0.1122E+02
 MRCHDU: Convergence failed at  74  side 2    Res =  0.1133E+02
 MRCHDU: Convergence failed at  75  side 2    Res =  0.1134E+02
 MRCHDU: Convergence failed at  76  side 2    Res =  0.1117E+02
 MRCHDU: Convergence failed at  77  side 2    Res =  0.1100E+02
 MRCHDU: Convergence failed at  78  side 2    Res =  0.1058E+02
 MRCHDU: Convergence failed at  79  side 2    Res =  0.1609E+02
 MRCHDU: Convergence failed at  80  side 2    Res =  0.8582E+01
 MRCHDU: Convergence failed at  81  side 2    Res =  0.9848E+01
 MRCHDU: Convergence failed at  82  side 2    Res =  0.1169E+02
 MRCHDU: Convergence failed at  83  side 2    Res =  0.3101E+02
 MRCHDU: Convergence failed at  84  side 2    Res =  0.3986E+02
 Side 1  free  transition at x/c =  0.9966   78
 Side 2  free  transition at x/c =  0.0450   15

   6   rms: 0.1289E+01   max: 0.3046E+01   T at   15  2   RLX: 0.492
       a = -3.500      CL = -0.7473
      Cm =  0.1272     CD =  0.00167   =>   CDf =  0.00226    CDp = -0.00060

 MRCHDU: Convergence failed at  15  side 2    Res =  0.6223E+01
 MRCHDU: Convergence failed at  87  side 2    Res =  0.1403E+02
 MRCHDU: Convergence failed at  88  side 2    Res =  0.4680E+01
 MRCHDU: Convergence failed at  89  side 2    Res =  0.1209E+02
 MRCHDU: Convergence failed at  90  side 2    Res =  0.9123E+01
 MRCHDU: Convergence failed at  91  side 2    Res =  0.4268E+01
 MRCHDU: Convergence failed at  92  side 2    Res =  0.5264E+01
 MRCHDU: Convergence failed at  93  side 2    Res =  0.2967E+02
 MRCHDU: Convergence failed at  94  side 2    Res =  0.5839E+01
 MRCHDU: Convergence failed at  95  side 2    Res =  0.4267E+01
 MRCHDU: Convergence failed at  96  side 2    Res =  0.3211E+01
 MRCHDU: Convergence failed at  97  side 2    Res =  0.2260E+01
 MRCHDU: Convergence failed at  98  side 2    Res =  0.1876E+01
 MRCHDU: Convergence failed at  99  side 2    Res =  0.1822E+01
 MRCHDU: Convergence failed at 100  side 2    Res =  0.1863E+01
 MRCHDU: Convergence failed at 101  side 2    Res =  0.2270E+01
 MRCHDU: Convergence failed at 102  side 2    Res =  0.2132E+01
 MRCHDU: Convergence failed at 103  side 2    Res =  0.2076E+01
 MRCHDU: Convergence failed at 105  side 2    Res =  0.1441E+01
 Side 1 forced transition at x/c =  1.0000   78
 Side 2  free  transition at x/c =  0.0343   14

   7   rms: 0.4195E+00   max: -.1244E+01   D at   28  2   RLX: 0.402
       a = -3.500      CL = -0.3347
      Cm =  0.0042     CD =  0.02744   =>   CDf =  0.00310    CDp =  0.02434

 Side 1  free  transition at x/c =  0.9983   78
 Side 2  free  transition at x/c =  0.0347   14

   8   rms: 0.1763E+01   max: -.1329E+02   D at   28  2   RLX: 0.038
       a = -3.500      CL = -0.2965
      Cm = -0.0035     CD =  0.03382   =>   CDf =  0.00323    CDp =  0.03059

 MRCHDU: Convergence failed at  28  side 2    Res =  0.1977E+00
 MRCHDU: Convergence failed at  29  side 2    Res =  0.4248E+00
 MRCHDU: Convergence failed at  32  side 2    Res =  0.5048E+01
 MRCHDU: Convergence failed at  33  side 2    Res =  0.1737E+01
 Side 1  free  transition at x/c =  0.9985   78
 Side 2  free  transition at x/c =  0.0368   14

   9   rms: 0.6677E+00   max: 0.4908E+01   D at   30  2   RLX: 0.306
       a = -3.500      CL = -0.1423
      Cm = -0.0490     CD =  0.02826   =>   CDf =  0.00365    CDp =  0.02462

 Side 1  free  transition at x/c =  0.9947   78
 Side 2  free  transition at x/c =  0.0379   14

  10   rms: 0.4570E+00   max: -.1633E+01   D at   53  2   RLX: 0.306
       a = -3.500      CL = -0.0926
      Cm = -0.0647     CD =  0.01970   =>   CDf =  0.00340    CDp =  0.01630

 Side 1  free  transition at x/c =  0.9950   78
 Side 2  free  transition at x/c =  0.0385   14

  11   rms: 0.5251E+00   max: -.1709E+01   D at   30  2   RLX: 0.293
       a = -3.500      CL = -0.0630
      Cm = -0.0773     CD =  0.01473   =>   CDf =  0.00377    CDp =  0.01097

 Side 1  free  transition at x/c =  0.9968   78
 Side 2  free  transition at x/c =  0.0396   15

  12   rms: 0.6045E+00   max: -.2442E+01   D at   24  2   RLX: 0.205
       a = -3.500      CL = -0.0531
      Cm = -0.0830     CD =  0.01061   =>   CDf =  0.00469    CDp =  0.00592

 Side 1  free  transition at x/c =  0.9991   78
 Side 2  free  transition at x/c =  0.0402   15

  13   rms: 0.5046E+00   max: -.1807E+01   D at   66  2   RLX: 0.277
       a = -3.500      CL = -0.0388
      Cm = -0.0898     CD =  0.00808   =>   CDf =  0.00527    CDp =  0.00281

 MRCHDU: Convergence failed at  55  side 2    Res =  0.3343E+00
 Side 1 forced transition at x/c =  1.0000   78
 Side 2  free  transition at x/c =  0.0419   15

  14   rms: 0.3000E+00   max: -.1139E+01   D at   80  2   RLX: 0.439
       a = -3.500      CL = -0.0195
      Cm = -0.0954     CD =  0.00534   =>   CDf =  0.00605    CDp = -0.00072

 MRCHDU: Convergence failed at  78  side 2    Res =  0.5558E+00
 Side 1 forced transition at x/c =  1.0000   78
 Side 2  free  transition at x/c =  0.0455   15

  15   rms: 0.1811E+00   max: 0.8487E+00   T at   15  2   RLX: 0.689
       a = -3.500      CL = -0.0683
      Cm = -0.0834     CD =  0.00303   =>   CDf =  0.00641    CDp = -0.00339

 Side 1  free  transition at x/c =  0.9876   77
 Side 2  free  transition at x/c =  0.0382   14

  16   rms: 0.1072E+00   max: -.5421E+00   D at   82  2   RLX: 0.922
       a = -3.500      CL = -0.0736
      Cm = -0.0815     CD =  0.00237   =>   CDf =  0.00636    CDp = -0.00399

[...]
 MRCHDU: Convergence failed at  96  side 2    Res =  0.3102E-01
 MRCHDU: Convergence failed at  97  side 2    Res =  0.1098E+01
 MRCHDU: Convergence failed at  98  side 2    Res =  0.5797E-02
 Side 1  free  transition at x/c =  0.0303   14
 Side 2 forced transition at x/c =  1.0000   76

 122   rms: 0.2711E+02   max: -.6500E+03   T at   98  2   RLX: 0.001
       a =  9.000      CL =  1.2608
      Cm = -0.2277     CD =*********   =>   CDf =  0.00268    CDp =*********

 MRCHDU: Convergence failed at  94  side 2    Res =  0.1174E-01
 MRCHDU: Convergence failed at  95  side 2    Res =  0.2854E-01
 MRCHDU: Convergence failed at  96  side 2    Res =  0.3325E-01
 MRCHDU: Convergence failed at  97  side 2    Res =  0.4303E-01
 MRCHDU: Convergence failed at  98  side 2    Res =  0.1256E-02
 Side 1  free  transition at x/c =  0.0303   14
 Side 2 forced transition at x/c =  1.0000   76

 123   rms: 0.3518E+03   max: -.8590E+04   T at   98  2   RLX: 0.000
       a =  9.000      CL =  1.2609
      Cm = -0.2277     CD =+Infinity   =>   CDf =  0.00269    CDp =+Infinity

 MRCHDU: Convergence failed at  94  side 2    Res =  0.1174E-01
 MRCHDU: Convergence failed at  95  side 2    Res =  0.2857E-01
 MRCHDU: Convergence failed at  96  side 2    Res =  0.3358E-01
 MRCHDU: Convergence failed at  97  side 2    Res =  0.2630E-01
 MRCHDU: Convergence failed at  98  side 2    Res =  0.4000E-03
 Side 1  free  transition at x/c =  0.0303   14
 Side 2 forced transition at x/c =  1.0000   76

 124   rms: 0.1378E+03   max: 0.3284E+04   T at   98  2   RLX: 0.000
       a =  9.000      CL =  1.2610
      Cm = -0.2278     CD =*********   =>   CDf =  0.00269    CDp =*********

 MRCHDU: Convergence failed at  94  side 2    Res =  0.1168E-01
 MRCHDU: Convergence failed at  95  side 2    Res =  0.2891E-01
 MRCHDU: Convergence failed at  96  side 2    Res =  0.3837E-01
 MRCHDU: Convergence failed at  97  side 2    Res =  0.4970E+00
 MRCHDU: Convergence failed at  98  side 2    Res =  0.2601E-02
 Side 1  free  transition at x/c =  0.0303   14
 Side 2 forced transition at x/c =  1.0000   76

 125   rms: 0.7739E+02   max: -.1898E+04   T at   98  2   RLX: 0.000
       a =  9.000      CL =  1.2611
      Cm = -0.2278     CD =+Infinity   =>   CDf =  0.00269    CDp =+Infinity

 MRCHDU: Convergence failed at  94  side 2    Res =  0.1166E-01
 MRCHDU: Convergence failed at  95  side 2    Res =  0.2912E-01
 MRCHDU: Convergence failed at  96  side 2    Res =  0.4394E-01
 MRCHDU: Convergence failed at  97  side 2    Res =  0.1264E+00
 MRCHDU: Convergence failed at  98  side 2    Res =  0.8686E-03
 Side 1  free  transition at x/c =  0.0303   14
 Side 2 forced transition at x/c =  1.0000   76

 126   rms: 0.2196E+03   max: 0.5324E+04   T at   98  2   RLX: 0.000
       a =  9.000      CL =  1.2612
      Cm = -0.2279     CD =*********   =>   CDf =  0.00269    CDp =*********

 MRCHDU: Convergence failed at  94  side 2    Res =  0.1159E-01
 MRCHDU: Convergence failed at  95  side 2    Res =  0.2883E-01
 MRCHDU: Convergence failed at  96  side 2    Res =  0.2637E-01
 MRCHDU: Convergence failed at  97  side 2    Res =  0.1437E+00
 MRCHDU: Convergence failed at  98  side 2    Res =  0.3659E-02
 Side 1  free  transition at x/c =  0.0303   14
 Side 2 forced transition at x/c =  1.0000   76

 127   rms: 0.4590E+02   max: -.1120E+04   T at   98  2   RLX: 0.000
       a =  9.000      CL =  1.2614
      Cm = -0.2280     CD =*********   =>   CDf =  0.00269    CDp =*********

 MRCHDU: Convergence failed at  94  side 2    Res =  0.1152E-01
 MRCHDU: Convergence failed at  95  side 2    Res =  0.2896E-01
 MRCHDU: Convergence failed at  96  side 2    Res =  0.2684E-01
 MRCHDU: Convergence failed at  97  side 2    Res =  0.2275E-01
 MRCHDU: Convergence failed at  98  side 2    Res =  0.8462E-03
 Side 1  free  transition at x/c =  0.0303   14
 Side 2 forced transition at x/c =  1.0000   76

 128   rms: 0.3178E+03   max: 0.7676E+04   T at   98  2   RLX: 0.000
       a =  9.000      CL =  1.2614
      Cm = -0.2280     CD =*********   =>   CDf =  0.00269    CDp =*********

 MRCHDU: Convergence failed at  94  side 2    Res =  0.1153E-01
 MRCHDU: Convergence failed at  95  side 2    Res =  0.2963E-01
 MRCHDU: Convergence failed at  96  side 2    Res =  0.3264E-01
 MRCHDU: Convergence failed at  97  side 2    Res =  0.9853E+00
 MRCHDU: Convergence failed at  98  side 2    Res =  0.5577E-02
 Side 1  free  transition at x/c =  0.0303   14
 Side 2 forced transition at x/c =  1.0000   76

 129   rms: 0.2849E+02   max: -.6847E+03   T at   98  2   RLX: 0.001
       a =  9.000      CL =  1.2617
      Cm = -0.2281     CD =*********   =>   CDf =  0.00269    CDp =*********

 MRCHDU: Convergence failed at  94  side 2    Res =  0.1143E-01
 MRCHDU: Convergence failed at  95  side 2    Res =  0.2991E-01
 MRCHDU: Convergence failed at  96  side 2    Res =  0.3501E-01
 MRCHDU: Convergence failed at  97  side 2    Res =  0.4274E-01
 MRCHDU: Convergence failed at  98  side 2    Res =  0.1215E-02
 Side 1  free  transition at x/c =  0.0303   14
 Side 2 forced transition at x/c =  1.0000   76

 130   rms: 0.4821E+03   max: -.1177E+05   T at   98  2   RLX: 0.000
       a =  9.000      CL =  1.2617
      Cm = -0.2281     CD =+Infinity   =>   CDf =  0.00269    CDp =+Infinity

 MRCHDU: Convergence failed at  94  side 2    Res =  0.1142E-01
 MRCHDU: Convergence failed at  95  side 2    Res =  0.2994E-01
 MRCHDU: Convergence failed at  96  side 2    Res =  0.3534E-01
 MRCHDU: Convergence failed at  97  side 2    Res =  0.2609E-01
 MRCHDU: Convergence failed at  98  side 2    Res =  0.3865E-03
 Side 1  free  transition at x/c =  0.0303   14
 Side 2 forced transition at x/c =  1.0000   76

 131   rms: 0.1294E+03   max: 0.3082E+04   T at   98  2   RLX: 0.000
       a =  9.000      CL =  1.2619
      Cm = -0.2282     CD =*********   =>   CDf =  0.00269    CDp =*********

 MRCHDU: Convergence failed at  94  side 2    Res =  0.1136E-01
 MRCHDU: Convergence failed at  95  side 2    Res =  0.3025E-01
 MRCHDU: Convergence failed at  96  side 2    Res =  0.4063E-01
 MRCHDU: Convergence failed at  97  side 2    Res =  0.6334E+00
 MRCHDU: Convergence failed at  98  side 2    Res =  0.2509E-02
 Side 1  free  transition at x/c =  0.0303   14
 Side 2 forced transition at x/c =  1.0000   76

 132   rms: 0.7964E+02   max: -.1953E+04   T at   98  2   RLX: 0.000
       a =  9.000      CL =  1.2619
      Cm = -0.2282     CD =+Infinity   =>   CDf =  0.00269    CDp =+Infinity

 MRCHDU: Convergence failed at  94  side 2    Res =  0.1133E-01
 MRCHDU: Convergence failed at  95  side 2    Res =  0.3042E-01
 MRCHDU: Convergence failed at  96  side 2    Res =  0.4666E-01
 MRCHDU: Convergence failed at  97  side 2    Res =  0.1247E+00
 MRCHDU: Convergence failed at  98  side 2    Res =  0.8390E-03
 Side 1  free  transition at x/c =  0.0303   14
 Side 2 forced transition at x/c =  1.0000   76

 133   rms: 0.1963E+03   max: 0.4755E+04   T at   98  2   RLX: 0.000
       a =  9.000      CL =  1.2620
      Cm = -0.2283     CD =*********   =>   CDf =  0.00269    CDp =*********

 MRCHDU: Convergence failed at  94  side 2    Res =  0.1127E-01
 MRCHDU: Convergence failed at  95  side 2    Res =  0.3034E-01
 MRCHDU: Convergence failed at  96  side 2    Res =  0.2774E-01
 MRCHDU: Convergence failed at  97  side 2    Res =  0.1439E+00
 MRCHDU: Convergence failed at  98  side 2    Res =  0.3536E-02
 Side 1  free  transition at x/c =  0.0303   14
 Side 2 forced transition at x/c =  1.0000   76

 134   rms: 0.4521E+02   max: -.1104E+04   T at   98  2   RLX: 0.000
       a =  9.000      CL =  1.2622
      Cm = -0.2284     CD =*********   =>   CDf =  0.00269    CDp =*********

 MRCHDU: Convergence failed at  94  side 2    Res =  0.1121E-01
 MRCHDU: Convergence failed at  95  side 2    Res =  0.3048E-01
 MRCHDU: Convergence failed at  96  side 2    Res =  0.2827E-01
 MRCHDU: Convergence failed at  97  side 2    Res =  0.2294E-01
 MRCHDU: Convergence failed at  98  side 2    Res =  0.8191E-03
 Side 1  free  transition at x/c =  0.0303   14
 Side 2 forced transition at x/c =  1.0000   76

 135   rms: 0.2717E+03   max: 0.6560E+04   T at   98  2   RLX: 0.000
       a =  9.000      CL =  1.2622
      Cm = -0.2284     CD =*********   =>   CDf =  0.00269    CDp =*********

 MRCHDU: Convergence failed at  94  side 2    Res =  0.1121E-01
 MRCHDU: Convergence failed at  95  side 2    Res =  0.3110E-01
 MRCHDU: Convergence failed at  96  side 2    Res =  0.3437E-01
 MRCHDU: Convergence failed at  97  side 2    Res =  0.8892E+00
 MRCHDU: Convergence failed at  98  side 2    Res =  0.5364E-02
 Side 1  free  transition at x/c =  0.0303   14
 Side 2 forced transition at x/c =  1.0000   76

 136   rms: 0.2794E+02   max: -.6728E+03   T at   98  2   RLX: 0.001
       a =  9.000      CL =  1.2624
      Cm = -0.2285     CD =*********   =>   CDf =  0.00270    CDp =*********

 MRCHDU: Convergence failed at  94  side 2    Res =  0.1110E-01
 MRCHDU: Convergence failed at  95  side 2    Res =  0.3137E-01
 MRCHDU: Convergence failed at  96  side 2    Res =  0.3691E-01
 MRCHDU: Convergence failed at  97  side 2    Res =  0.4247E-01
 MRCHDU: Convergence failed at  98  side 2    Res =  0.1175E-02
 Side 1  free  transition at x/c =  0.0303   14
 Side 2 forced transition at x/c =  1.0000   76

 137   rms: 0.6333E+03   max: -.1546E+05   T at   98  2   RLX: 0.000
       a =  9.000      CL =  1.2624
      Cm = -0.2285     CD =+Infinity   =>   CDf =  0.00270    CDp =+Infinity

 MRCHDU: Convergence failed at  94  side 2    Res =  0.1109E-01
 MRCHDU: Convergence failed at  95  side 2    Res =  0.3139E-01
 MRCHDU: Convergence failed at  96  side 2    Res =  0.3724E-01
 MRCHDU: Convergence failed at  97  side 2    Res =  0.2589E-01
 MRCHDU: Convergence failed at  98  side 2    Res =  0.3733E-03
 Side 1  free  transition at x/c =  0.0303   14
 Side 2 forced transition at x/c =  1.0000   76

 138   rms: 0.1323E+03   max: 0.3147E+04   T at   98  2   RLX: 0.000
       a =  9.000      CL =  1.2626
      Cm = -0.2286     CD =*********   =>   CDf =  0.00270    CDp =*********

 MRCHDU: Convergence failed at  94  side 2    Res =  0.1103E-01
 MRCHDU: Convergence failed at  95  side 2    Res =  0.3168E-01
 MRCHDU: Convergence failed at  96  side 2    Res =  0.4308E-01
 MRCHDU: Convergence failed at  97  side 2    Res =  0.3569E+00
 MRCHDU: Convergence failed at  98  side 2    Res =  0.2419E-02
 Side 1  free  transition at x/c =  0.0303   14
 Side 2 forced transition at x/c =  1.0000   76

 139   rms: 0.8419E+02   max: -.2065E+04   T at   98  2   RLX: 0.000
       a =  9.000      CL =  1.2626
      Cm = -0.2286     CD =+Infinity   =>   CDf =  0.00270    CDp =+Infinity

 MRCHDU: Convergence failed at  94  side 2    Res =  0.1099E-01
 MRCHDU: Convergence failed at  95  side 2    Res =  0.3180E-01
 MRCHDU: Convergence failed at  96  side 2    Res =  0.4960E-01
 MRCHDU: Convergence failed at  97  side 2    Res =  0.1228E+00
 MRCHDU: Convergence failed at  98  side 2    Res =  0.8101E-03
 Side 1  free  transition at x/c =  0.0303   14
 Side 2 forced transition at x/c =  1.0000   76

 140   rms: 0.1790E+03   max: 0.4332E+04   T at   98  2   RLX: 0.000
       a =  9.000      CL =  1.2628
      Cm = -0.2286     CD =*********   =>   CDf =  0.00270    CDp =*********

 MRCHDU: Convergence failed at  94  side 2    Res =  0.1094E-01
 MRCHDU: Convergence failed at  95  side 2    Res =  0.3197E-01
 MRCHDU: Convergence failed at  96  side 2    Res =  0.2921E-01
 MRCHDU: Convergence failed at  97  side 2    Res =  0.1441E+00
 MRCHDU: Convergence failed at  98  side 2    Res =  0.3416E-02
 Side 1  free  transition at x/c =  0.0302   14
 Side 2 forced transition at x/c =  1.0000   76

 141   rms: 0.4493E+02   max: -.1098E+04   T at   98  2   RLX: 0.000
       a =  9.000      CL =  1.2629
      Cm = -0.2287     CD =*********   =>   CDf =  0.00270    CDp =*********

 MRCHDU: Convergence failed at  94  side 2    Res =  0.1088E-01
 MRCHDU: Convergence failed at  95  side 2    Res =  0.3211E-01
 MRCHDU: Convergence failed at  96  side 2    Res =  0.2981E-01
 MRCHDU: Convergence failed at  97  side 2    Res =  0.2314E-01
 MRCHDU: Convergence failed at  98  side 2    Res =  0.7926E-03
 Side 1  free  transition at x/c =  0.0302   14
 Side 2 forced transition at x/c =  1.0000   76

 142   rms: 0.2493E+03   max: 0.6018E+04   T at   98  2   RLX: 0.000
       a =  9.000      CL =  1.2629
      Cm = -0.2287     CD =*********   =>   CDf =  0.00270    CDp =*********

 MRCHDU: Convergence failed at  94  side 2    Res =  0.1086E-01
 MRCHDU: Convergence failed at  95  side 2    Res =  0.3268E-01
 MRCHDU: Convergence failed at  96  side 2    Res =  0.3624E-01
 MRCHDU: Convergence failed at  97  side 2    Res =  0.8044E+00
 MRCHDU: Convergence failed at  98  side 2    Res =  0.5159E-02
 Side 1  free  transition at x/c =  0.0302   14
 Side 2 forced transition at x/c =  1.0000   76

 143   rms: 0.2770E+02   max: -.6680E+03   T at   98  2   RLX: 0.001
       a =  9.000      CL =  1.2631
      Cm = -0.2288     CD =*********   =>   CDf =  0.00270    CDp =*********

 MRCHDU: Convergence failed at  94  side 2    Res =  0.1075E-01
 MRCHDU: Convergence failed at  95  side 2    Res =  0.3294E-01
 MRCHDU: Convergence failed at  96  side 2    Res =  0.3898E-01
 MRCHDU: Convergence failed at  97  side 2    Res =  0.4220E-01
 MRCHDU: Convergence failed at  98  side 2    Res =  0.1136E-02
 Side 1  free  transition at x/c =  0.0302   14
 Side 2 forced transition at x/c =  1.0000   76

 144   rms: 0.8895E+03   max: -.2171E+05   T at   98  2   RLX: 0.000
       a =  9.000      CL =  1.2631
      Cm = -0.2288     CD =+Infinity   =>   CDf =  0.00270    CDp =+Infinity

 MRCHDU: Convergence failed at  94  side 2    Res =  0.1075E-01
 MRCHDU: Convergence failed at  95  side 2    Res =  0.3295E-01
 MRCHDU: Convergence failed at  96  side 2    Res =  0.3930E-01
 MRCHDU: Convergence failed at  97  side 2    Res =  0.2569E-01
 MRCHDU: Convergence failed at  98  side 2    Res =  0.3603E-03
 Side 1  free  transition at x/c =  0.0302   14
 Side 2 forced transition at x/c =  1.0000   76

 145   rms: 0.1223E+03   max: 0.2907E+04   T at   98  2   RLX: 0.001
       a =  9.000      CL =  1.2632
      Cm = -0.2289     CD =*********   =>   CDf =  0.00270    CDp =*********

 MRCHDU: Convergence failed at  94  side 2    Res =  0.1068E-01
 MRCHDU: Convergence failed at  95  side 2    Res =  0.3320E-01
 MRCHDU: Convergence failed at  96  side 2    Res =  0.4576E-01
 MRCHDU: Convergence failed at  97  side 2    Res =  0.4885E+00
 MRCHDU: Convergence failed at  98  side 2    Res =  0.2332E-02
 Side 1  free  transition at x/c =  0.0302   14
 Side 2 forced transition at x/c =  1.0000   76

 146   rms: 0.9217E+02   max: -.2260E+04   T at   98  2   RLX: 0.000
       a =  9.000      CL =  1.2633
      Cm = -0.2289     CD =+Infinity   =>   CDf =  0.00270    CDp =+Infinity

 MRCHDU: Convergence failed at  94  side 2    Res =  0.1064E-01
 MRCHDU: Convergence failed at  95  side 2    Res =  0.3327E-01
 MRCHDU: Convergence failed at  96  side 2    Res =  0.5293E-01
 MRCHDU: Convergence failed at  97  side 2    Res =  0.1204E+00
 MRCHDU: Convergence failed at  98  side 2    Res =  0.7816E-03
 Side 1  free  transition at x/c =  0.0302   14
 Side 2 forced transition at x/c =  1.0000   76

 147   rms: 0.1609E+03   max: 0.3891E+04   T at   98  2   RLX: 0.000
       a =  9.000      CL =  1.2634
      Cm = -0.2290     CD =*********   =>   CDf =  0.00270    CDp =*********

 MRCHDU: Convergence failed at  94  side 2    Res =  0.1060E-01
 MRCHDU: Convergence failed at  95  side 2    Res =  0.3371E-01
 MRCHDU: Convergence failed at  96  side 2    Res =  0.3083E-01
 MRCHDU: Convergence failed at  97  side 2    Res =  0.1443E+00
 MRCHDU: Convergence failed at  98  side 2    Res =  0.3299E-02
 Side 1  free  transition at x/c =  0.0302   14
 Side 2 forced transition at x/c =  1.0000   76

 148   rms: 0.4967E+02   max: -.1215E+04   T at   98  2   RLX: 0.000
       a =  9.000      CL =  1.2635
      Cm = -0.2290     CD =*********   =>   CDf =  0.00270    CDp =*********

 MRCHDU: Convergence failed at  94  side 2    Res =  0.1054E-01
 MRCHDU: Convergence failed at  95  side 2    Res =  0.3385E-01
 MRCHDU: Convergence failed at  96  side 2    Res =  0.3151E-01
 MRCHDU: Convergence failed at  97  side 2    Res =  0.2339E-01
 MRCHDU: Convergence failed at  98  side 2    Res =  0.7668E-03
 Side 1  free  transition at x/c =  0.0302   14
 Side 2 forced transition at x/c =  1.0000   76

 149   rms: 0.2362E+03   max: 0.5702E+04   T at   98  2   RLX: 0.000
       a =  9.000      CL =  1.2636
      Cm = -0.2291     CD =*********   =>   CDf =  0.00271    CDp =*********

 MRCHDU: Convergence failed at  94  side 2    Res =  0.1051E-01
 MRCHDU: Convergence failed at  95  side 2    Res =  0.3435E-01
 MRCHDU: Convergence failed at  96  side 2    Res =  0.3828E-01
 MRCHDU: Convergence failed at  97  side 2    Res =  0.7256E+00
 MRCHDU: Convergence failed at  98  side 2    Res =  0.4961E-02
 Side 1  free  transition at x/c =  0.0302   14
 Side 2 forced transition at x/c =  1.0000   76

 150   rms: 0.3021E+02   max: -.7297E+03   T at   98  2   RLX: 0.001
       a =  9.000      CL =  1.2638
      Cm = -0.2292     CD =*********   =>   CDf =  0.00271    CDp =*********

 MRCHDU: Convergence failed at  94  side 2    Res =  0.1041E-01
 MRCHDU: Convergence failed at  95  side 2    Res =  0.3458E-01
 MRCHDU: Convergence failed at  96  side 2    Res =  0.4122E-01
 MRCHDU: Convergence failed at  97  side 2    Res =  0.4198E-01
 MRCHDU: Convergence failed at  98  side 2    Res =  0.1097E-02
 Side 1  free  transition at x/c =  0.0302   14
 Side 2 forced transition at x/c =  1.0000   76

 151   rms: 0.1852E+04   max: -.4520E+05   T at   98  2   RLX: 0.000
       a =  9.000      CL =  1.2638
      Cm = -0.2292     CD =+Infinity   =>   CDf =  0.00271    CDp =+Infinity

 MRCHDU: Convergence failed at  94  side 2    Res =  0.1041E-01
 MRCHDU: Convergence failed at  95  side 2    Res =  0.3459E-01
 MRCHDU: Convergence failed at  96  side 2    Res =  0.4154E-01
 MRCHDU: Convergence failed at  97  side 2    Res =  0.2552E-01
 MRCHDU: Convergence failed at  98  side 2    Res =  0.3477E-03
 Side 1  free  transition at x/c =  0.0302   14
 Side 2 forced transition at x/c =  1.0000   76

 152   rms: 0.1285E+03   max: 0.3051E+04   T at   98  2   RLX: 0.000
       a =  9.000      CL =  1.2640
      Cm = -0.2292     CD =*********   =>   CDf =  0.00271    CDp =*********

 MRCHDU: Convergence failed at  94  side 2    Res =  0.1033E-01
 MRCHDU: Convergence failed at  95  side 2    Res =  0.3479E-01
 MRCHDU: Convergence failed at  96  side 2    Res =  0.4866E-01
 MRCHDU: Convergence failed at  97  side 2    Res =  0.2262E+00
 MRCHDU: Convergence failed at  98  side 2    Res =  0.2246E-02
 Side 1  free  transition at x/c =  0.0302   14
 Side 2 forced transition at x/c =  1.0000   76

 153   rms: 0.1019E+03   max: -.2499E+04   T at   98  2   RLX: 0.000
       a =  9.000      CL =  1.2640
      Cm = -0.2293     CD =+Infinity   =>   CDf =  0.00271    CDp =+Infinity

 MRCHDU: Convergence failed at  94  side 2    Res =  0.1030E-01
 MRCHDU: Convergence failed at  95  side 2    Res =  0.3480E-01
 MRCHDU: Convergence failed at  96  side 2    Res =  0.5640E-01
 MRCHDU: Convergence failed at  97  side 2    Res =  0.1190E+00
 MRCHDU: Convergence failed at  98  side 2    Res =  0.7536E-03
 Side 1  free  transition at x/c =  0.0302   14
 Side 2 forced transition at x/c =  1.0000   76

 154   rms: 0.1643E+03   max: 0.3971E+04   T at   98  2   RLX: 0.000
       a =  9.000      CL =  1.2642
      Cm = -0.2293     CD =*********   =>   CDf =  0.00271    CDp =*********

 MRCHDU: Convergence failed at  94  side 2    Res =  0.1026E-01
 MRCHDU: Convergence failed at  95  side 2    Res =  0.3553E-01
 MRCHDU: Convergence failed at  96  side 2    Res =  0.3250E-01
 MRCHDU: Convergence failed at  97  side 2    Res =  0.1446E+00

[TIMEOUT]
