  
       XFOIL         Version 6.99
  
 Calculated polar for: MA409 (original)                                
  
 1 1 Reynolds number fixed          Mach number fixed         
  
 xtrf =   1.000 (top)        1.000 (bottom)  
 Mach =   0.000     Re =     0.150 e 6     Ncrit =   9.000
  
   alpha    CL        CD       CDp       CM     Top_Xtr  Bot_Xtr
  ------ -------- --------- --------- -------- -------- --------
  -4.000  -0.0240   0.01746   0.00942  -0.0877   0.9775   0.1344
  -3.500   0.0421   0.01636   0.00813  -0.0899   0.9705   0.1444
  -3.000   0.1137   0.01534   0.00714  -0.0934   0.9645   0.1658
  -2.500   0.1796   0.01428   0.00655  -0.0959   0.9578   0.2526
  -2.000   0.2501   0.01316   0.00646  -0.0994   0.9531   0.5372
  -1.500   0.3042   0.01219   0.00630  -0.0982   0.9433   1.0000
  -1.000   0.3691   0.01235   0.00623  -0.1002   0.9347   1.0000
  -0.500   0.4434   0.01226   0.00603  -0.1038   0.9262   1.0000
   0.000   0.5049   0.01226   0.00600  -0.1048   0.9139   1.0000
   0.500   0.5685   0.01208   0.00588  -0.1058   0.8998   1.0000
   1.000   0.6287   0.01165   0.00556  -0.1055   0.8769   1.0000
   1.500   0.6880   0.01125   0.00531  -0.1050   0.8511   1.0000
   2.000   0.7476   0.01081   0.00501  -0.1040   0.8112   1.0000
   2.500   0.8039   0.01105   0.00491  -0.1017   0.7272   1.0000
   3.000   0.8376   0.01192   0.00506  -0.0960   0.5551   1.0000
   3.500   0.8692   0.01385   0.00598  -0.0913   0.3120   1.0000
   4.000   0.8971   0.01780   0.00823  -0.0868   0.0367   1.0000
   4.500   0.9377   0.02017   0.01090  -0.0837   0.0307   1.0000
   5.000   0.9766   0.02308   0.01398  -0.0802   0.0278   1.0000
   5.500   1.0242   0.02725   0.01831  -0.0778   0.0285   1.0000
   6.000   1.0794   0.03247   0.02420  -0.0755   0.0327   1.0000
