
 ===================================================
  XFOIL Version 6.99
  Copyright (C) 2000   Mark Drela, Harold Youngren

  This software comes with ABSOLUTELY NO WARRANTY,
    subject to the GNU General Public License.

  Caveat computor
 ===================================================

 File  xfoil.def  not found

   QUIT    Exit program

  .OPER    Direct operating point(s)
  .MDES    Complex mapping design routine
  .QDES    Surface speed design routine
  .GDES    Geometry design routine

   SAVE f  Write airfoil to labeled coordinate file
   PSAV f  Write airfoil to plain coordinate file
   ISAV f  Write airfoil to ISES coordinate file
   MSAV f  Write airfoil to MSES coordinate file
   REVE    Reverse written-airfoil node ordering

   LOAD f  Read buffer airfoil from coordinate file
   NACA i  Set NACA 4,5-digit airfoil and buffer airfoil
   INTE    Set buffer airfoil by interpolating two airfoils
   NORM    Buffer airfoil normalization toggle
   XYCM rr Change CM reference location, currently  0.25000 0.00000

   BEND    Display structural properties of current airfoil

   PCOP    Set current-airfoil panel nodes directly from buffer airfoil points
   PANE    Set current-airfoil panel nodes ( 160 ) based on curvature
  .PPAR    Show/change paneling

  .PLOP    Plotting options

   WDEF f  Write  current-settings file
   RDEF f  Reread current-settings file
   NAME s  Specify new airfoil name
   NINC    Increment name version number

   Z       Zoom    | (available in all menus)
   U       Unzoom  | 

 XFOIL   c>  
 Labeled airfoil file.  Name:  MA409 (smoothed)                                

 Number of input coordinate points:  79
 Counterclockwise ordering
 Max thickness =     0.066940  at x =   0.238
 Max camber    =     0.033271  at x =   0.493

  LE  x,y  =  -0.00000   0.00001  |   Chord =   1.00000
  TE  x,y  =   1.00000  -0.00001  |

 Current airfoil nodes set from buffer airfoil nodes (  79 )

 XFOIL   c>  
 XFOIL   c>  
 Blunt trailing edge.  Gap =  0.00070

 Paneling parameters used...
   Number of panel nodes       160
   Panel bunching parameter    1.000
   TE/LE panel density ratio   0.150
   Refined-area/LE panel density ratio    0.200
   Top    side refined area x/c limits  1.000 1.000
   Bottom side refined area x/c limits  1.000 1.000

 XFOIL   c>  
.OPERi   c>  
 Xtr/c     =  1.0000    top    side
 Xtr/c     =  1.0000    bottom side
 Ncrit     =    9.00   ( 0.070 % turb. level )
 Vacc      =  0.0100

 Klag  =  5.6000     Uxwt  =    1.00
 A     =  6.7000     B     =  0.7500       KCt = 0.01485
 CtiniK=  1.8000     CtiniX=  3.3000

..VPAR   c>  
..VPAR   c>  
.OPERi   c>  
 M  =    0.0000
 Re =    500000

.OPERv   c>  
.OPERv   c>  
.OPERv   c>  
 Polar  1 newly created for accumulation
 Airfoil archived with polar: MA409 (smoothed)                                

Enter  polar save filename  OR  <return> for no file   s>  
 New polar save file available

Enter  polar dump filename  OR  <return> for no file   s>  
 Polar dump file will NOT be written

 Polar accumulation enabled

.OPERva   c>   Calculating unit vorticity distributions ...
 Calculating wake trajectory ...
 Calculating source influence matrix ...

 Solving BL system ...

 Initializing BL ...
    side            1  ...
 MRCHUE: Inverse mode at  69     Hk =   3.885
 MRCHUE: Inverse mode at  70     Hk =   4.344
 MRCHUE: Inverse mode at  71     Hk =   4.796
 MRCHUE: Inverse mode at  72     Hk =   5.243
 MRCHUE: Inverse mode at  73     Hk =   5.684
 MRCHUE: Inverse mode at  74     Hk =   6.121
 MRCHUE: Inverse mode at  75     Hk =   6.550
 MRCHUE: Inverse mode at  76     Hk =   6.968
 MRCHUE: Inverse mode at  77     Hk =   7.337
 MRCHUE: Inverse mode at  78     Hk =   7.525
    side            2  ...
 MRCHUE: Inverse mode at   9     Hk =   4.484
 MRCHUE: Inverse mode at  10     Hk =   6.152
 MRCHUE: Inverse mode at  11     Hk =   7.888
 MRCHUE: Inverse mode at  12     Hk =   9.983
 MRCHUE: Inverse mode at  13     Hk =   2.500

 Side 1 forced transition at x/c =  1.0000   78
 Side 2  free  transition at x/c =  0.0216   13

   1   rms: 0.3100E+00   max: 0.1466E+01   D at   13  2   RLX: 0.591
       a = -4.000      CL = -0.1159
      Cm = -0.0889     CD =  0.00926   =>   CDf =  0.00599    CDp =  0.00327

 MRCHDU: Convergence failed at  13  side 2    Res =  0.3011E+02
 MRCHDU: Convergence failed at  14  side 2    Res =  0.4613E+01
 MRCHDU: Convergence failed at  15  side 2    Res =  0.1055E+03
 MRCHDU: Convergence failed at  16  side 2    Res =  0.3470E+02
 MRCHDU: Convergence failed at  17  side 2    Res =  0.1809E+03
 MRCHDU: Convergence failed at  18  side 2    Res =  0.6739E+02
 MRCHDU: Convergence failed at  19  side 2    Res =  0.8497E+03
 MRCHDU: Convergence failed at  20  side 2    Res =  0.3129E+02
 MRCHDU: Convergence failed at  21  side 2    Res =  0.4235E+02
 MRCHDU: Convergence failed at  22  side 2    Res =  0.1947E+03
 MRCHDU: Convergence failed at  23  side 2    Res =  0.4397E+02
 MRCHDU: Convergence failed at  24  side 2    Res =  0.4531E+02
 MRCHDU: Convergence failed at  25  side 2    Res =  0.1119E+04
 MRCHDU: Convergence failed at  26  side 2    Res =  0.6241E+02
 MRCHDU: Convergence failed at  27  side 2    Res =  0.6242E+02
 MRCHDU: Convergence failed at  28  side 2    Res =  0.4048E+02
 MRCHDU: Convergence failed at  29  side 2    Res =  0.4803E+02
 MRCHDU: Convergence failed at  30  side 2    Res =  0.3516E+02
 MRCHDU: Convergence failed at  31  side 2    Res =  0.3760E+02
 MRCHDU: Convergence failed at  32  side 2    Res =  0.4011E+02
 MRCHDU: Convergence failed at  33  side 2    Res =  0.4285E+02
 MRCHDU: Convergence failed at  34  side 2    Res =  0.4571E+02
 MRCHDU: Convergence failed at  35  side 2    Res =  0.4893E+02
 MRCHDU: Convergence failed at  36  side 2    Res =  0.4767E+02
 MRCHDU: Convergence failed at  37  side 2    Res =  0.3883E+02
 MRCHDU: Convergence failed at  38  side 2    Res =  0.4066E+02
 MRCHDU: Convergence failed at  39  side 2    Res =  0.4232E+02
 MRCHDU: Convergence failed at  40  side 2    Res =  0.4416E+02
 MRCHDU: Convergence failed at  41  side 2    Res =  0.4715E+02
 MRCHDU: Convergence failed at  42  side 2    Res =  0.4855E+02
 MRCHDU: Convergence failed at  43  side 2    Res =  0.4973E+02
 MRCHDU: Convergence failed at  44  side 2    Res =  0.5061E+02
 MRCHDU: Convergence failed at  45  side 2    Res =  0.4608E+02
 MRCHDU: Convergence failed at  46  side 2    Res =  0.4653E+02
 MRCHDU: Convergence failed at  47  side 2    Res =  0.4683E+02
 MRCHDU: Convergence failed at  48  side 2    Res =  0.4698E+02
 MRCHDU: Convergence failed at  49  side 2    Res =  0.4688E+02
 MRCHDU: Convergence failed at  50  side 2    Res =  0.4686E+02
 MRCHDU: Convergence failed at  51  side 2    Res =  0.4681E+02
 MRCHDU: Convergence failed at  52  side 2    Res =  0.5137E+02
 MRCHDU: Convergence failed at  53  side 2    Res =  0.5146E+02
 MRCHDU: Convergence failed at  54  side 2    Res =  0.5152E+02
 MRCHDU: Convergence failed at  55  side 2    Res =  0.5151E+02
 MRCHDU: Convergence failed at  56  side 2    Res =  0.5137E+02
 MRCHDU: Convergence failed at  57  side 2    Res =  0.5107E+02
 MRCHDU: Convergence failed at  58  side 2    Res =  0.5076E+02
 MRCHDU: Convergence failed at  59  side 2    Res =  0.5037E+02
 MRCHDU: Convergence failed at  60  side 2    Res =  0.5002E+02
 MRCHDU: Convergence failed at  61  side 2    Res =  0.4965E+02
 MRCHDU: Convergence failed at  62  side 2    Res =  0.4944E+02
 MRCHDU: Convergence failed at  63  side 2    Res =  0.4913E+02
 MRCHDU: Convergence failed at  64  side 2    Res =  0.4886E+02
 MRCHDU: Convergence failed at  65  side 2    Res =  0.4845E+02
 MRCHDU: Convergence failed at  66  side 2    Res =  0.4816E+02
 MRCHDU: Convergence failed at  67  side 2    Res =  0.4799E+02
 MRCHDU: Convergence failed at  68  side 2    Res =  0.3085E+02
 MRCHDU: Convergence failed at  69  side 2    Res =  0.3102E+02
 MRCHDU: Convergence failed at  70  side 2    Res =  0.3126E+02
 MRCHDU: Convergence failed at  71  side 2    Res =  0.3144E+02
 MRCHDU: Convergence failed at  72  side 2    Res =  0.3162E+02
 MRCHDU: Convergence failed at  73  side 2    Res =  0.3172E+02
 MRCHDU: Convergence failed at  74  side 2    Res =  0.3182E+02
 MRCHDU: Convergence failed at  75  side 2    Res =  0.3185E+02
 MRCHDU: Convergence failed at  76  side 2    Res =  0.3177E+02
 MRCHDU: Convergence failed at  77  side 2    Res =  0.3167E+02
 MRCHDU: Convergence failed at  78  side 2    Res =  0.3147E+02
 MRCHDU: Convergence failed at  79  side 2    Res =  0.4815E+02
 MRCHDU: Convergence failed at  80  side 2    Res =  0.3661E+02
 MRCHDU: Convergence failed at  81  side 2    Res =  0.3499E+02
 MRCHDU: Convergence failed at  82  side 2    Res =  0.7364E+02
 MRCHDU: Convergence failed at  83  side 2    Res =  0.7978E+02
 MRCHDU: Convergence failed at  84  side 2    Res =  0.1906E+03
 Side 1 forced transition at x/c =  1.0000   78
 Side 2  free  transition at x/c =  0.0184   12

   2   rms: 0.1615E+01   max: 0.4664E+01   D at   87  2   RLX: 0.286
       a = -4.000      CL = -1.5119
      Cm =  0.3398     CD =  0.00534   =>   CDf =  0.00171    CDp =  0.00363

 MRCHDU: Convergence failed at  87  side 2    Res =  0.1882E+02
 MRCHDU: Convergence failed at  88  side 2    Res =  0.2616E+01
 Side 1 forced transition at x/c =  1.0000   78
 Side 2  free  transition at x/c =  0.0196   13

   3   rms: 0.6018E+00   max: -.3508E+01   C at   78  1   RLX: 0.143
       a = -4.000      CL = -0.5944
      Cm =  0.0810     CD =  0.05981   =>   CDf =  0.00228    CDp =  0.05753

 Side 1 forced transition at x/c =  1.0000   78
 Side 2  free  transition at x/c =  0.0201   13

   4   rms: 0.4431E+00   max: -.1149E+01   C at  104  2   RLX: 0.435
       a = -4.000      CL = -0.3923
      Cm =  0.0256     CD =  0.03956   =>   CDf =  0.00240    CDp =  0.03716

 Side 1 forced transition at x/c =  1.0000   78
 Side 2  free  transition at x/c =  0.0208   13

   5   rms: 0.4285E+00   max: -.1249E+01   D at  102  2   RLX: 0.400
       a = -4.000      CL = -0.2651
      Cm = -0.0178     CD =  0.04509   =>   CDf =  0.00247    CDp =  0.04262

 Side 1 forced transition at x/c =  1.0000   78
 Side 2  free  transition at x/c =  0.0207   13
 idif Ue xi dudx           1  0.31262133      3.35037708E-03   93.309296    
 Uenew xinew           2  1.59842316E-02  1.71303749E-04

   6   rms: 0.6439E+00   max: -.1779E+01   D at   15  2   RLX: 0.281
       a = -4.000      CL = -0.2202
      Cm = -0.0495     CD =  0.05086   =>   CDf =  0.00233    CDp =  0.04853

 Side 1 forced transition at x/c =  1.0000   77
 Side 2  free  transition at x/c =  0.0190   14

   7   rms: 0.4047E+00   max: 0.2229E+01   C at   77  1   RLX: 0.391
       a = -4.000      CL = -0.1827
      Cm = -0.0648     CD =  0.04987   =>   CDf =  0.00235    CDp =  0.04752

 Side 1 forced transition at x/c =  1.0000   77
 Side 2  free  transition at x/c =  0.0184   13

   8   rms: 0.8345E+00   max: 0.4653E+01   C at   77  1   RLX: 0.220
       a = -4.000      CL = -0.1759
      Cm = -0.0968     CD =  0.03582   =>   CDf =  0.00304    CDp =  0.03278

 Side 1 forced transition at x/c =  1.0000   77
 Side 2  free  transition at x/c =  0.0180   13

   9   rms: 0.9894E+00   max: 0.3358E+01   D at   72  1   RLX: 0.240
       a = -4.000      CL = -0.2633
      Cm = -0.0935     CD =  0.02729   =>   CDf =  0.00283    CDp =  0.02446

 Side 1  free  transition at x/c =  0.9854   76
 Side 2  free  transition at x/c =  0.0179   13

  10   rms: 0.1297E+01   max: -.4728E+01   D at   90  2   RLX: 0.106
       a = -4.000      CL = -0.2522
      Cm = -0.1109     CD =  0.02778   =>   CDf =  0.00273    CDp =  0.02505

 Side 1  free  transition at x/c =  0.9769   75
 Side 2  free  transition at x/c =  0.0173   13

  11   rms: 0.9782E+00   max: 0.7700E+01   T at   75  1   RLX: 0.135
       a = -4.000      CL = -0.2635
      Cm = -0.1142     CD =  0.02491   =>   CDf =  0.00300    CDp =  0.02191

 Side 1  free  transition at x/c =  0.9566   74
 Side 2  free  transition at x/c =  0.0171   13

  12   rms: 0.8099E+00   max: 0.3665E+01   T at   74  1   RLX: 0.164
       a = -4.000      CL = -0.2524
      Cm = -0.1148     CD =  0.02136   =>   CDf =  0.00323    CDp =  0.01813

 MRCHDU: Convergence failed at  87  side 2    Res =  0.4395E-01
 Side 1  free  transition at x/c =  0.9480   73
 Side 2  free  transition at x/c =  0.0174   13

  13   rms: 0.4406E+00   max: 0.2896E+01   T at   73  1   RLX: 0.279
       a = -4.000      CL = -0.2657
      Cm = -0.1027     CD =  0.01940   =>   CDf =  0.00364    CDp =  0.01577

 MRCHDU: Convergence failed at  87  side 2    Res =  0.7222E-01
 Side 1  free  transition at x/c =  0.9311   72
 Side 2  free  transition at x/c =  0.0176   13

  14   rms: 0.3532E+00   max: -.1451E+01   D at   77  2   RLX: 0.345
       a = -4.000      CL = -0.2443
      Cm = -0.0949     CD =  0.01781   =>   CDf =  0.00396    CDp =  0.01385

 Side 1  free  transition at x/c =  0.9301   72
 Side 2  free  transition at x/c =  0.0178   13

  15   rms: 0.3712E+00   max: -.1328E+01   D at   85  2   RLX: 0.376
       a = -4.000      CL = -0.2161
      Cm = -0.0901     CD =  0.01528   =>   CDf =  0.00435    CDp =  0.01093

 Side 1  free  transition at x/c =  0.9352   72
 Side 2  free  transition at x/c =  0.0176   13

  16   rms: 0.3805E+00   max: -.2000E+01   T at   72  1   RLX: 0.250
       a = -4.000      CL = -0.1755
      Cm = -0.0927     CD =  0.01410   =>   CDf =  0.00487    CDp =  0.00924

 Side 1  free  transition at x/c =  0.9492   73
 Side 2  free  transition at x/c =  0.0178   13

  17   rms: 0.2241E+00   max: -.1103E+01   T at   73  1   RLX: 0.453
       a = -4.000      CL = -0.1331
      Cm = -0.0936     CD =  0.01264   =>   CDf =  0.00520    CDp =  0.00744

 Side 1  free  transition at x/c =  0.9639   74
 Side 2  free  transition at x/c =  0.0184   13

  18   rms: 0.1160E+00   max: -.7898E+00   T at   74  1   RLX: 0.633
       a = -4.000      CL = -0.0963
      Cm = -0.0943     CD =  0.01211   =>   CDf =  0.00563    CDp =  0.00647

 Side 1  free  transition at x/c =  0.9800   76
 Side 2  free  transition at x/c =  0.0194   13

  19   rms: 0.5586E-01   max: -.3729E+00   T at    2  1
       a = -4.000      CL = -0.0834
      Cm = -0.0927     CD =  0.01100   =>   CDf =  0.00583    CDp =  0.00517

 Side 1  free  transition at x/c =  0.9863   77
 Side 2  free  transition at x/c =  0.0220   13

  20   rms: 0.3406E-01   max: 0.2623E+00   D at   13  2
       a = -4.000      CL = -0.0877
      Cm = -0.0918     CD =  0.01132   =>   CDf =  0.00591    CDp =  0.00540

 Side 1  free  transition at x/c =  0.9833   77
 Side 2  free  transition at x/c =  0.0211   13

  21   rms: 0.2378E-02   max: -.2884E-01   D at   77  1
       a = -4.000      CL = -0.0872
      Cm = -0.0919     CD =  0.01137   =>   CDf =  0.00587    CDp =  0.00550

 Side 1  free  transition at x/c =  0.9835   77
 Side 2  free  transition at x/c =  0.0210   13

  22   rms: 0.2257E-04   max: 0.1630E-03   D at   13  2
       a = -4.000      CL = -0.0872
      Cm = -0.0919     CD =  0.01138   =>   CDf =  0.00587    CDp =  0.00550
 plradd ia,ip,cpol            1           0  2.27535190E-03

 Point added to stored polar  1
 Point written to save file  ma409sm_Re500k.base.pol                         
 Dump file unspecified or not available
 Calculating wake trajectory ...
 Calculating source influence matrix ...

 Solving BL system ...

 Side 1  free  transition at x/c =  0.9835   77
 Side 2  free  transition at x/c =  0.0210   13

   1   rms: 0.1775E+00   max: -.8688E+00   T at   13  2   RLX: 0.575
       a = -3.500      CL = -0.0448
      Cm = -0.0943     CD =  0.01034   =>   CDf =  0.00587    CDp =  0.00446

 Side 1  free  transition at x/c =  0.9824   76
 Side 2  free  transition at x/c =  0.0269   13

   2   rms: 0.5230E-01   max: 0.4392E+00   T at   76  1
       a = -3.500      CL = -0.0318
      Cm = -0.0917     CD =  0.01042   =>   CDf =  0.00592    CDp =  0.00450

 Side 1  free  transition at x/c =  0.9722   76
 Side 2  free  transition at x/c =  0.0288   14

   3   rms: 0.4449E-01   max: -.2049E+00   D at   78  1
       a = -3.500      CL = -0.0221
      Cm = -0.0939     CD =  0.01004   =>   CDf =  0.00601    CDp =  0.00402

 MRCHDU: Convergence failed at  14  side 2    Res =  0.4015E+02
 MRCHDU: Convergence failed at  15  side 2    Res =  0.3413E+01
 MRCHDU: Convergence failed at  16  side 2    Res =  0.3066E+01
 MRCHDU: Convergence failed at  17  side 2    Res =  0.4268E+01
 MRCHDU: Convergence failed at  18  side 2    Res =  0.6552E+01
 MRCHDU: Convergence failed at  19  side 2    Res =  0.1016E+02
 MRCHDU: Convergence failed at  20  side 2    Res =  0.1910E+02
 MRCHDU: Convergence failed at  21  side 2    Res =  0.5563E+02
 MRCHDU: Convergence failed at  22  side 2    Res =  0.1177E+03
 MRCHDU: Convergence failed at  23  side 2    Res =  0.3498E+02
 MRCHDU: Convergence failed at  24  side 2    Res =  0.2392E+02
 MRCHDU: Convergence failed at  25  side 2    Res =  0.1199E+02
 MRCHDU: Convergence failed at  26  side 2    Res =  0.1395E+02
 MRCHDU: Convergence failed at  27  side 2    Res =  0.1573E+02
 MRCHDU: Convergence failed at  28  side 2    Res =  0.1701E+02
 MRCHDU: Convergence failed at  29  side 2    Res =  0.1833E+02
 MRCHDU: Convergence failed at  30  side 2    Res =  0.1917E+02
 MRCHDU: Convergence failed at  31  side 2    Res =  0.1992E+02
 MRCHDU: Convergence failed at  32  side 2    Res =  0.2083E+02
 MRCHDU: Convergence failed at  33  side 2    Res =  0.2166E+02
 MRCHDU: Convergence failed at  34  side 2    Res =  0.2272E+02
 MRCHDU: Convergence failed at  35  side 2    Res =  0.2368E+02
 MRCHDU: Convergence failed at  36  side 2    Res =  0.2488E+02
 MRCHDU: Convergence failed at  37  side 2    Res =  0.2557E+02
 MRCHDU: Convergence failed at  38  side 2    Res =  0.2664E+02
 MRCHDU: Convergence failed at  39  side 2    Res =  0.2763E+02
 MRCHDU: Convergence failed at  40  side 2    Res =  0.2801E+02
 MRCHDU: Convergence failed at  41  side 2    Res =  0.2891E+02
 MRCHDU: Convergence failed at  42  side 2    Res =  0.2966E+02
 MRCHDU: Convergence failed at  43  side 2    Res =  0.3023E+02
 MRCHDU: Convergence failed at  44  side 2    Res =  0.3063E+02
 MRCHDU: Convergence failed at  45  side 2    Res =  0.3080E+02
 MRCHDU: Convergence failed at  46  side 2    Res =  0.3087E+02
 MRCHDU: Convergence failed at  47  side 2    Res =  0.3077E+02
 MRCHDU: Convergence failed at  48  side 2    Res =  0.3064E+02
 MRCHDU: Convergence failed at  49  side 2    Res =  0.6054E+02
 MRCHDU: Convergence failed at  50  side 2    Res =  0.6179E+02
 MRCHDU: Convergence failed at  51  side 2    Res =  0.6303E+02
 MRCHDU: Convergence failed at  52  side 2    Res =  0.2962E+02
 MRCHDU: Convergence failed at  53  side 2    Res =  0.2411E+02
 MRCHDU: Convergence failed at  54  side 2    Res =  0.2238E+02
 MRCHDU: Convergence failed at  55  side 2    Res =  0.2239E+02
 MRCHDU: Convergence failed at  56  side 2    Res =  0.2234E+02
 MRCHDU: Convergence failed at  57  side 2    Res =  0.2230E+02
 MRCHDU: Convergence failed at  58  side 2    Res =  0.2226E+02
 MRCHDU: Convergence failed at  59  side 2    Res =  0.2227E+02
 MRCHDU: Convergence failed at  60  side 2    Res =  0.2226E+02
 MRCHDU: Convergence failed at  61  side 2    Res =  0.2228E+02
 MRCHDU: Convergence failed at  62  side 2    Res =  0.2224E+02
 MRCHDU: Convergence failed at  63  side 2    Res =  0.2225E+02
 MRCHDU: Convergence failed at  64  side 2    Res =  0.2225E+02
 MRCHDU: Convergence failed at  65  side 2    Res =  0.2232E+02
 MRCHDU: Convergence failed at  66  side 2    Res =  0.2234E+02
 MRCHDU: Convergence failed at  67  side 2    Res =  0.2230E+02
 MRCHDU: Convergence failed at  68  side 2    Res =  0.2231E+02
 MRCHDU: Convergence failed at  69  side 2    Res =  0.2231E+02
 MRCHDU: Convergence failed at  70  side 2    Res =  0.2240E+02
 MRCHDU: Convergence failed at  71  side 2    Res =  0.2242E+02
 MRCHDU: Convergence failed at  72  side 2    Res =  0.2245E+02
 MRCHDU: Convergence failed at  73  side 2    Res =  0.2242E+02
 MRCHDU: Convergence failed at  74  side 2    Res =  0.2239E+02
 MRCHDU: Convergence failed at  75  side 2    Res =  0.2230E+02
 MRCHDU: Convergence failed at  76  side 2    Res =  0.2314E+02
 MRCHDU: Convergence failed at  77  side 2    Res =  0.2308E+02
 MRCHDU: Convergence failed at  78  side 2    Res =  0.2288E+02
 MRCHDU: Convergence failed at  79  side 2    Res =  0.2270E+02
 MRCHDU: Convergence failed at  80  side 2    Res =  0.2345E+02
 MRCHDU: Convergence failed at  81  side 2    Res =  0.2311E+02
 MRCHDU: Convergence failed at  82  side 2    Res =  0.1719E+02
 MRCHDU: Convergence failed at  83  side 2    Res =  0.1610E+02
 MRCHDU: Convergence failed at  84  side 2    Res =  0.1952E+02
 Side 1  free  transition at x/c =  0.9766   76
 Side 2  free  transition at x/c =  0.0339   14

   4   rms: 0.9950E+00   max: 0.1324E+01   D at   87  2   RLX: 0.661
       a = -3.500      CL = -0.4309
      Cm =  0.0333     CD =  0.00735   =>   CDf =  0.00186    CDp =  0.00550

 MRCHDU: Convergence failed at  88  side 2    Res =  0.1329E+01
 MRCHDU: Convergence failed at  89  side 2    Res =  0.1565E+01
 Side 1  free  transition at x/c =  0.9903   77
 Side 2  free  transition at x/c =  0.0283   14

   5   rms: 0.3903E+00   max: -.1628E+01   D at   14  2   RLX: 0.307
       a = -3.500      CL = -0.2064
      Cm = -0.0327     CD =  0.01420   =>   CDf =  0.00481    CDp =  0.00939

 MRCHDU: Convergence failed at  14  side 2    Res =  0.6175E+00
 MRCHDU: Convergence failed at  15  side 2    Res =  0.2136E+01
 MRCHDU: Convergence failed at  16  side 2    Res =  0.2332E+01
 MRCHDU: Convergence failed at  17  side 2    Res =  0.3723E+01
 MRCHDU: Convergence failed at  18  side 2    Res =  0.6205E+01
 MRCHDU: Convergence failed at  19  side 2    Res =  0.1054E+02
 MRCHDU: Convergence failed at  20  side 2    Res =  0.2259E+02
 MRCHDU: Convergence failed at  21  side 2    Res =  0.6747E+02
 MRCHDU: Convergence failed at  22  side 2    Res =  0.4272E+03
 MRCHDU: Convergence failed at  23  side 2    Res =  0.3728E+03
 MRCHDU: Convergence failed at  24  side 2    Res =  0.9591E+01
 MRCHDU: Convergence failed at  25  side 2    Res =  0.9606E+01
 MRCHDU: Convergence failed at  26  side 2    Res =  0.1116E+02
 MRCHDU: Convergence failed at  27  side 2    Res =  0.1036E+02
 MRCHDU: Convergence failed at  28  side 2    Res =  0.1265E+02
 MRCHDU: Convergence failed at  29  side 2    Res =  0.3155E+02
 MRCHDU: Convergence failed at  30  side 2    Res =  0.1065E+02
 MRCHDU: Convergence failed at  31  side 2    Res =  0.7252E+01
 MRCHDU: Convergence failed at  32  side 2    Res =  0.7542E+01
 MRCHDU: Convergence failed at  33  side 2    Res =  0.8947E+01
 MRCHDU: Convergence failed at  34  side 2    Res =  0.8673E+01
 MRCHDU: Convergence failed at  35  side 2    Res =  0.1660E+02
 MRCHDU: Convergence failed at  36  side 2    Res =  0.2715E+02
 MRCHDU: Convergence failed at  37  side 2    Res =  0.2778E+02
 MRCHDU: Convergence failed at  38  side 2    Res =  0.2576E+02
 MRCHDU: Convergence failed at  39  side 2    Res =  0.2596E+02
 MRCHDU: Convergence failed at  40  side 2    Res =  0.8222E+02
 MRCHDU: Convergence failed at  41  side 2    Res =  0.1460E+02
 MRCHDU: Convergence failed at  42  side 2    Res =  0.1090E+02
 MRCHDU: Convergence failed at  43  side 2    Res =  0.8696E+01
 MRCHDU: Convergence failed at  44  side 2    Res =  0.7571E+01
 MRCHDU: Convergence failed at  45  side 2    Res =  0.7238E+01
 MRCHDU: Convergence failed at  46  side 2    Res =  0.7725E+01
 MRCHDU: Convergence failed at  47  side 2    Res =  0.6603E+01
 MRCHDU: Convergence failed at  48  side 2    Res =  0.7450E+01
 MRCHDU: Convergence failed at  49  side 2    Res =  0.1205E+02
 MRCHDU: Convergence failed at  50  side 2    Res =  0.6266E+02
 MRCHDU: Convergence failed at  51  side 2    Res =  0.1132E+02
 MRCHDU: Convergence failed at  52  side 2    Res =  0.1058E+02
 MRCHDU: Convergence failed at  53  side 2    Res =  0.1065E+02
 MRCHDU: Convergence failed at  54  side 2    Res =  0.1177E+02
 MRCHDU: Convergence failed at  55  side 2    Res =  0.1029E+02
 MRCHDU: Convergence failed at  56  side 2    Res =  0.3697E+02
 MRCHDU: Convergence failed at  57  side 2    Res =  0.1615E+03
 MRCHDU: Convergence failed at  58  side 2    Res =  0.1193E+04
 MRCHDU: Convergence failed at  59  side 2    Res =  0.1298E+02
 MRCHDU: Convergence failed at  60  side 2    Res =  0.1198E+02
 MRCHDU: Convergence failed at  61  side 2    Res =  0.1154E+02
 MRCHDU: Convergence failed at  62  side 2    Res =  0.1159E+02
 MRCHDU: Convergence failed at  63  side 2    Res =  0.1233E+02
 MRCHDU: Convergence failed at  64  side 2    Res =  0.1175E+02
 MRCHDU: Convergence failed at  65  side 2    Res =  0.6125E+01
 MRCHDU: Convergence failed at  66  side 2    Res =  0.3202E+01
 MRCHDU: Convergence failed at  67  side 2    Res =  0.9872E+02
 MRCHDU: Convergence failed at  68  side 2    Res =  0.3123E+02
 MRCHDU: Convergence failed at  69  side 2    Res =  0.2819E+02
 MRCHDU: Convergence failed at  70  side 2    Res =  0.2611E+02
 MRCHDU: Convergence failed at  71  side 2    Res =  0.2402E+02
 MRCHDU: Convergence failed at  72  side 2    Res =  0.2274E+02
 MRCHDU: Convergence failed at  73  side 2    Res =  0.1590E+02
 MRCHDU: Convergence failed at  74  side 2    Res =  0.1699E+02
 MRCHDU: Convergence failed at  75  side 2    Res =  0.2934E+01
 MRCHDU: Convergence failed at  76  side 2    Res =  0.5909E+01
 MRCHDU: Convergence failed at  77  side 2    Res =  0.6422E+01
 MRCHDU: Convergence failed at  78  side 2    Res =  0.6791E+01
 MRCHDU: Convergence failed at  79  side 2    Res =  0.7208E+01
 MRCHDU: Convergence failed at  80  side 2    Res =  0.7702E+01
 MRCHDU: Convergence failed at  81  side 2    Res =  0.8015E+01
 MRCHDU: Convergence failed at  82  side 2    Res =  0.8421E+01
 MRCHDU: Convergence failed at  83  side 2    Res =  0.8688E+01
 MRCHDU: Convergence failed at  84  side 2    Res =  0.8104E+01
 Side 1  free  transition at x/c =  0.9872   77
 Side 2  free  transition at x/c =  0.0370   14

   6   rms: 0.1370E+01   max: 0.4346E+01   C at   22  2   RLX: 0.345
       a = -3.500      CL = -0.8025
      Cm =  0.1446     CD =  0.00629   =>   CDf =  0.00188    CDp =  0.00440

 Side 1  free  transition at x/c =  0.9856   77
 Side 2  free  transition at x/c =  0.0313   14

   7   rms: 0.4451E+00   max: -.3656E+00   U at   84  2   RLX: 0.633
       a = -3.500      CL = -0.2664
      Cm = -0.0189     CD =  0.00910   =>   CDf =  0.00947    CDp = -0.00036

 Side 1  free  transition at x/c =  0.9827   77
 Side 2  free  transition at x/c =  0.0329   14

   8   rms: 0.1736E+00   max: -.1377E+00   U at   84  2
       a = -3.500      CL = -0.0116
      Cm = -0.0963     CD =  0.01006   =>   CDf =  0.00717    CDp =  0.00289

 Side 1  free  transition at x/c =  0.9818   76
 Side 2  free  transition at x/c =  0.0341   14

   9   rms: 0.2553E-01   max: 0.2585E+00   T at   76  1
       a = -3.500      CL = -0.0252
      Cm = -0.0932     CD =  0.01023   =>   CDf =  0.00598    CDp =  0.00426

 Side 1  free  transition at x/c =  0.9756   76
 Side 2  free  transition at x/c =  0.0315   14

  10   rms: 0.1184E-01   max: -.8290E-01   D at   78  1
       a = -3.500      CL = -0.0203
      Cm = -0.0943     CD =  0.01024   =>   CDf =  0.00600    CDp =  0.00424

 Side 1  free  transition at x/c =  0.9778   76
 Side 2  free  transition at x/c =  0.0324   14

  11   rms: 0.1681E-02   max: 0.1542E-01   D at   14  2
       a = -3.500      CL = -0.0196
      Cm = -0.0944     CD =  0.01024   =>   CDf =  0.00599    CDp =  0.00425

 Side 1  free  transition at x/c =  0.9782   76
 Side 2  free  transition at x/c =  0.0325   14

  12   rms: 0.3475E-04   max: -.3442E-03   T at   76  1
       a = -3.500      CL = -0.0196
      Cm = -0.0944     CD =  0.01024   =>   CDf =  0.00599    CDp =  0.00425
 plradd ia,ip,cpol            2           0  2.27535190E-03

 Point added to stored polar  1
 Point written to save file  ma409sm_Re500k.base.pol                         
 Dump file unspecified or not available
 Calculating wake trajectory ...
 Calculating source influence matrix ...

 Solving BL system ...

 Side 1  free  transition at x/c =  0.9782   76
 Side 2  free  transition at x/c =  0.0325   14

   1   rms: 0.1724E+00   max: 0.1525E+01   D at   14  2   RLX: 0.369
       a = -3.000      CL =  0.0057
      Cm = -0.0956     CD =  0.00986   =>   CDf =  0.00599    CDp =  0.00387

 Side 1  free  transition at x/c =  0.9756   76
 Side 2  free  transition at x/c =  0.0422   15

   2   rms: 0.1490E+00   max: -.9940E+00   T at   15  2   RLX: 0.503
       a = -3.000      CL =  0.0298
      Cm = -0.0969     CD =  0.00948   =>   CDf =  0.00598    CDp =  0.00350

 Side 1  free  transition at x/c =  0.9742   76
 Side 2  free  transition at x/c =  0.0595   16

   3   rms: 0.4937E-01   max: 0.4114E+00   D at   16  2
       a = -3.000      CL =  0.0537
      Cm = -0.0983     CD =  0.00937   =>   CDf =  0.00602    CDp =  0.00336

 Side 1  free  transition at x/c =  0.9727   77
 Side 2  free  transition at x/c =  0.0737   16

   4   rms: 0.1183E-01   max: -.1673E+00   T at    2  1
       a = -3.000      CL =  0.0540
      Cm = -0.0983     CD =  0.00935   =>   CDf =  0.00591    CDp =  0.00344

 Side 1  free  transition at x/c =  0.9730   77
 Side 2  free  transition at x/c =  0.0755   16

   5   rms: 0.4819E-03   max: 0.4629E-02   D at    4  1
       a = -3.000      CL =  0.0540
      Cm = -0.0983     CD =  0.00935   =>   CDf =  0.00590    CDp =  0.00345

 Side 1  free  transition at x/c =  0.9730   77
 Side 2  free  transition at x/c =  0.0755   16

   6   rms: 0.2249E-05   max: -.1695E-04   D at    4  1
       a = -3.000      CL =  0.0540
      Cm = -0.0983     CD =  0.00935   =>   CDf =  0.00590    CDp =  0.00345
 plradd ia,ip,cpol            3           0  2.27535190E-03

 Point added to stored polar  1
 Point written to save file  ma409sm_Re500k.base.pol                         
 Dump file unspecified or not available
 Calculating wake trajectory ...
 Calculating source influence matrix ...

 Solving BL system ...

 Side 1  free  transition at x/c =  0.9730   77
 Side 2  free  transition at x/c =  0.0755   16

   1   rms: 0.1548E+00   max: 0.1421E+01   D at   16  2   RLX: 0.419
       a = -2.500      CL =  0.0861
      Cm = -0.1003     CD =  0.00912   =>   CDf =  0.00590    CDp =  0.00321

 MRCHDU: Convergence failed at  17  side 2    Res =  0.8900E+00
 MRCHDU: Convergence failed at  18  side 2    Res =  0.2002E+01
 MRCHDU: Convergence failed at  19  side 2    Res =  0.1582E+01
 MRCHDU: Convergence failed at  20  side 2    Res =  0.2000E+01
 MRCHDU: Convergence failed at  21  side 2    Res =  0.2176E+01
 MRCHDU: Convergence failed at  22  side 2    Res =  0.2169E+01
 MRCHDU: Convergence failed at  23  side 2    Res =  0.2186E+01
 MRCHDU: Convergence failed at  24  side 2    Res =  0.1955E+01
 MRCHDU: Convergence failed at  25  side 2    Res =  0.2171E+01
 MRCHDU: Convergence failed at  26  side 2    Res =  0.2404E+01
 MRCHDU: Convergence failed at  27  side 2    Res =  0.2643E+01
 MRCHDU: Convergence failed at  28  side 2    Res =  0.2901E+01
 MRCHDU: Convergence failed at  29  side 2    Res =  0.3152E+01
 MRCHDU: Convergence failed at  30  side 2    Res =  0.3410E+01
 MRCHDU: Convergence failed at  31  side 2    Res =  0.3672E+01
 MRCHDU: Convergence failed at  32  side 2    Res =  0.3947E+01
 MRCHDU: Convergence failed at  33  side 2    Res =  0.4253E+01
 MRCHDU: Convergence failed at  34  side 2    Res =  0.4585E+01
 MRCHDU: Convergence failed at  35  side 2    Res =  0.4906E+01
 MRCHDU: Convergence failed at  36  side 2    Res =  0.5246E+01
 MRCHDU: Convergence failed at  37  side 2    Res =  0.5545E+01
 MRCHDU: Convergence failed at  38  side 2    Res =  0.5833E+01
 MRCHDU: Convergence failed at  39  side 2    Res =  0.6122E+01
 MRCHDU: Convergence failed at  40  side 2    Res =  0.6407E+01
 MRCHDU: Convergence failed at  41  side 2    Res =  0.6644E+01
 MRCHDU: Convergence failed at  42  side 2    Res =  0.6843E+01
 MRCHDU: Convergence failed at  43  side 2    Res =  0.6996E+01
 MRCHDU: Convergence failed at  44  side 2    Res =  0.7106E+01
 MRCHDU: Convergence failed at  45  side 2    Res =  0.7186E+01
 MRCHDU: Convergence failed at  46  side 2    Res =  0.7227E+01
 MRCHDU: Convergence failed at  47  side 2    Res =  0.7248E+01
 MRCHDU: Convergence failed at  48  side 2    Res =  0.7232E+01
 MRCHDU: Convergence failed at  49  side 2    Res =  0.7232E+01
 MRCHDU: Convergence failed at  50  side 2    Res =  0.7226E+01
 MRCHDU: Convergence failed at  51  side 2    Res =  0.7223E+01
 MRCHDU: Convergence failed at  52  side 2    Res =  0.7219E+01
 MRCHDU: Convergence failed at  53  side 2    Res =  0.7224E+01
 MRCHDU: Convergence failed at  54  side 2    Res =  0.7234E+01
 MRCHDU: Convergence failed at  55  side 2    Res =  0.7227E+01
 MRCHDU: Convergence failed at  56  side 2    Res =  0.7223E+01
 MRCHDU: Convergence failed at  57  side 2    Res =  0.7224E+01
 MRCHDU: Convergence failed at  58  side 2    Res =  0.7241E+01
 MRCHDU: Convergence failed at  59  side 2    Res =  0.7253E+01
 MRCHDU: Convergence failed at  60  side 2    Res =  0.7277E+01
 MRCHDU: Convergence failed at  61  side 2    Res =  0.7276E+01
 MRCHDU: Convergence failed at  62  side 2    Res =  0.7294E+01
 MRCHDU: Convergence failed at  63  side 2    Res =  0.7311E+01
 MRCHDU: Convergence failed at  64  side 2    Res =  0.7359E+01
 MRCHDU: Convergence failed at  65  side 2    Res =  0.7381E+01
 MRCHDU: Convergence failed at  66  side 2    Res =  0.7376E+01
 MRCHDU: Convergence failed at  67  side 2    Res =  0.7408E+01
 MRCHDU: Convergence failed at  68  side 2    Res =  0.7427E+01
 MRCHDU: Convergence failed at  69  side 2    Res =  0.7487E+01
 MRCHDU: Convergence failed at  70  side 2    Res =  0.7516E+01
 MRCHDU: Convergence failed at  71  side 2    Res =  0.7549E+01
 MRCHDU: Convergence failed at  72  side 2    Res =  0.7561E+01
 MRCHDU: Convergence failed at  73  side 2    Res =  0.7573E+01
 MRCHDU: Convergence failed at  74  side 2    Res =  0.7566E+01
 MRCHDU: Convergence failed at  75  side 2    Res =  0.7528E+01
 MRCHDU: Convergence failed at  76  side 2    Res =  0.7499E+01
 MRCHDU: Convergence failed at  77  side 2    Res =  0.7455E+01
 MRCHDU: Convergence failed at  78  side 2    Res =  0.7376E+01
 MRCHDU: Convergence failed at  79  side 2    Res =  0.7189E+01
 MRCHDU: Convergence failed at  80  side 2    Res =  0.6900E+01
 MRCHDU: Convergence failed at  81  side 2    Res =  0.6500E+01
 MRCHDU: Convergence failed at  82  side 2    Res =  0.5901E+01
 MRCHDU: Convergence failed at  83  side 2    Res =  0.7136E+01
 Side 1  free  transition at x/c =  0.9712   77
 Side 2 forced transition at x/c =  1.0000   83

   2   rms: 0.4752E+00   max: -.2133E+01   C at   83  2   RLX: 0.234
       a = -2.500      CL = -0.4387
      Cm =  0.0760     CD =  0.00553   =>   CDf =  0.00584    CDp = -0.00031

 Side 1  free  transition at x/c =  0.9716   77
 Side 2  free  transition at x/c =  0.9814   81

   3   rms: 0.1853E+03   max: -.3258E+04   C at   81  2   RLX: 0.000
       a = -2.500      CL = -0.4584
      Cm =  0.0817     CD =  0.00557   =>   CDf =  0.00419    CDp =  0.00138

 Side 1  free  transition at x/c =  0.9718   77
 Side 2 forced transition at x/c =  1.0000   83

   4   rms: 0.3828E+00   max: 0.3214E+00   D at   86  2   RLX: 0.827
       a = -2.500      CL =  0.0309
      Cm = -0.0736     CD =  0.00586   =>   CDf =  0.00419    CDp =  0.00168

 Side 1  free  transition at x/c =  0.9722   77
 Side 2  free  transition at x/c =  0.2468   29

   5   rms: 0.1318E+00   max: -.1299E+01   D at   30  2   RLX: 0.385
       a = -2.500      CL =  0.0650
      Cm = -0.0866     CD =  0.00832   =>   CDf =  0.00570    CDp =  0.00262

 Side 1  free  transition at x/c =  0.9713   77
 Side 2  free  transition at x/c =  0.2021   26

   6   rms: 0.1239E+00   max: 0.1521E+01   C at   26  2   RLX: 0.507
       a = -2.500      CL =  0.0990
      Cm = -0.0950     CD =  0.00863   =>   CDf =  0.00572    CDp =  0.00291

 Side 1  free  transition at x/c =  0.9704   77
 Side 2  free  transition at x/c =  0.1737   24

   7   rms: 0.6637E-01   max: -.6613E+00   D at   26  2   RLX: 0.756
       a = -2.500      CL =  0.1237
      Cm = -0.1012     CD =  0.00874   =>   CDf =  0.00571    CDp =  0.00304

 Side 1  free  transition at x/c =  0.9698   77
 Side 2  free  transition at x/c =  0.1556   22

   8   rms: 0.2126E-01   max: -.2116E+00   D at   26  2
       a = -2.500      CL =  0.1316
      Cm = -0.1032     CD =  0.00871   =>   CDf =  0.00568    CDp =  0.00303

 Side 1  free  transition at x/c =  0.9697   76
 Side 2  free  transition at x/c =  0.1480   22

   9   rms: 0.7695E-01   max: -.6695E+00   T at   76  1   RLX: 0.747
       a = -2.500      CL =  0.1647
      Cm = -0.1106     CD =  0.00855   =>   CDf =  0.00568    CDp =  0.00286

 MRCHDU: Convergence failed at  78  side 1    Res =  0.5910E+01
 MRCHDU: Convergence failed at  79  side 1    Res =  0.7281E+01
 Side 1  free  transition at x/c =  0.9892   78
 Side 2  free  transition at x/c =  0.1586   22

  10   rms: 0.1382E+00   max: 0.1517E+01   C at   78  1   RLX: 0.888
       a = -2.500      CL =  0.1311
      Cm = -0.1037     CD =  0.00767   =>   CDf =  0.00569    CDp =  0.00198

 Side 1  free  transition at x/c =  0.9652   76
 Side 2  free  transition at x/c =  0.1478   22

  11   rms: 0.2709E-01   max: -.4194E+00   D at   77  1
       a = -2.500      CL =  0.1221
      Cm = -0.1011     CD =  0.00886   =>   CDf =  0.00568    CDp =  0.00318

 Side 1  free  transition at x/c =  0.9652   76
 Side 2  free  transition at x/c =  0.1444   21

  12   rms: 0.6489E-02   max: -.6373E-01   T at   76  1
       a = -2.500      CL =  0.1263
      Cm = -0.1020     CD =  0.00875   =>   CDf =  0.00569    CDp =  0.00305

 Side 1  free  transition at x/c =  0.9674   76
 Side 2  free  transition at x/c =  0.1458   21

  13   rms: 0.2989E-02   max: -.2531E-01   T at   76  1
       a = -2.500      CL =  0.1281
      Cm = -0.1024     CD =  0.00874   =>   CDf =  0.00569    CDp =  0.00305

 Side 1  free  transition at x/c =  0.9682   76
 Side 2  free  transition at x/c =  0.1458   21

  14   rms: 0.5593E-02   max: -.1095E+00   C at   21  2
       a = -2.500      CL =  0.1286
      Cm = -0.1025     CD =  0.00874   =>   CDf =  0.00571    CDp =  0.00303

 Side 1  free  transition at x/c =  0.9684   76
 Side 2  free  transition at x/c =  0.1460   22

  15   rms: 0.5415E-02   max: -.6583E-01   D at   21  2
       a = -2.500      CL =  0.1287
      Cm = -0.1025     CD =  0.00873   =>   CDf =  0.00571    CDp =  0.00302

 Side 1  free  transition at x/c =  0.9685   76
 Side 2  free  transition at x/c =  0.1471   22

  16   rms: 0.8254E-03   max: 0.9814E-02   C at   22  2
       a = -2.500      CL =  0.1286
      Cm = -0.1025     CD =  0.00874   =>   CDf =  0.00569    CDp =  0.00305

 Side 1  free  transition at x/c =  0.9685   76
 Side 2  free  transition at x/c =  0.1468   22

  17   rms: 0.1121E-04   max: -.1408E-03   D at   23  2
       a = -2.500      CL =  0.1286
      Cm = -0.1025     CD =  0.00874   =>   CDf =  0.00569    CDp =  0.00305
 plradd ia,ip,cpol            4           0  2.27535190E-03

 Point added to stored polar  1
 Point written to save file  ma409sm_Re500k.base.pol                         
 Dump file unspecified or not available
 Calculating wake trajectory ...
 Calculating source influence matrix ...

 Solving BL system ...

 Side 1  free  transition at x/c =  0.9685   76
 Side 2  free  transition at x/c =  0.1468   22

   1   rms: 0.1260E+00   max: 0.1031E+01   D at   22  2   RLX: 0.600
       a = -2.000      CL =  0.1466
      Cm = -0.0991     CD =  0.00841   =>   CDf =  0.00569    CDp =  0.00272

 Side 1  free  transition at x/c =  0.9538   75
 Side 2  free  transition at x/c =  0.1669   23

   2   rms: 0.1491E+00   max: -.8261E+00   T at   75  1   RLX: 0.605
       a = -2.000      CL =  0.2030
      Cm = -0.1082     CD =  0.00868   =>   CDf =  0.00571    CDp =  0.00297

 MRCHDU: Convergence failed at  78  side 1    Res =  0.3201E+01
 MRCHDU: Convergence failed at  79  side 1    Res =  0.1719E+02
 MRCHDU: Convergence failed at  80  side 1    Res =  0.1448E+02
 Side 1  free  transition at x/c =  0.9756   78
 Side 2  free  transition at x/c =  0.1884   24

   3   rms: 0.1370E+00   max: 0.1328E+01   C at   78  1
       a = -2.000      CL =  0.1871
      Cm = -0.1035     CD =  0.00745   =>   CDf =  0.00565    CDp =  0.00180

 Side 1  free  transition at x/c =  0.9530   76
 Side 2  free  transition at x/c =  0.2122   25

   4   rms: 0.5914E-01   max: -.4867E+00   D at   77  1
       a = -2.000      CL =  0.2137
      Cm = -0.1089     CD =  0.00842   =>   CDf =  0.00553    CDp =  0.00289

 Side 1  free  transition at x/c =  0.9720   78
 Side 2  free  transition at x/c =  0.2202   26

   5   rms: 0.5850E-01   max: 0.5163E+00   D at   78  1
       a = -2.000      CL =  0.2099
      Cm = -0.1082     CD =  0.00798   =>   CDf =  0.00549    CDp =  0.00249

 Side 1  free  transition at x/c =  0.9684   77
 Side 2  free  transition at x/c =  0.2181   26
 idif Ue xi dudx           1  0.34666660      1.94942951E-03   177.82977    
 Uenew xinew           2  1.56024350E-02  8.77380371E-05

   6   rms: 0.7278E-01   max: 0.5655E+00   C at   26  2
       a = -2.000      CL =  0.1705
      Cm = -0.0993     CD =  0.00842   =>   CDf =  0.00546    CDp =  0.00295

 Side 1  free  transition at x/c =  0.9498   75
 Side 2  free  transition at x/c =  0.1977   25

   7   rms: 0.9544E-01   max: -.1018E+01   D at    2  2   RLX: 0.491
       a = -2.000      CL =  0.1890
      Cm = -0.1030     CD =  0.00884   =>   CDf =  0.00561    CDp =  0.00323

 Side 1  free  transition at x/c =  0.9590   77
 Side 2  free  transition at x/c =  0.2066   25

   8   rms: 0.2174E-01   max: -.2780E+00   T at    2  1
       a = -2.000      CL =  0.1951
      Cm = -0.1049     CD =  0.00823   =>   CDf =  0.00554    CDp =  0.00270

 Side 1  free  transition at x/c =  0.9605   77
 Side 2  free  transition at x/c =  0.2103   25

   9   rms: 0.2211E-02   max: -.2823E-01   C at   25  2
       a = -2.000      CL =  0.1955
      Cm = -0.1049     CD =  0.00823   =>   CDf =  0.00552    CDp =  0.00272

 Side 1  free  transition at x/c =  0.9608   77
 Side 2  free  transition at x/c =  0.2110   25

  10   rms: 0.1857E-04   max: -.1218E-03   D at   80  1
       a = -2.000      CL =  0.1955
      Cm = -0.1049     CD =  0.00823   =>   CDf =  0.00551    CDp =  0.00272
 plradd ia,ip,cpol            5           0  2.27535190E-03

 Point added to stored polar  1
 Point written to save file  ma409sm_Re500k.base.pol                         
 Dump file unspecified or not available
 Calculating wake trajectory ...
 Calculating source influence matrix ...

 Solving BL system ...

 Side 1  free  transition at x/c =  0.9608   77
 Side 2  free  transition at x/c =  0.2110   25

   1   rms: 0.1413E+00   max: -.1679E+01   C at   25  2   RLX: 0.298
       a = -1.500      CL =  0.2174
      Cm = -0.1061     CD =  0.00810   =>   CDf =  0.00552    CDp =  0.00258

 Side 1  free  transition at x/c =  0.9594   77
 Side 2  free  transition at x/c =  0.2286   26

   2   rms: 0.8272E-01   max: -.5482E+00   T at   26  2   RLX: 0.912
       a = -1.500      CL =  0.2651
      Cm = -0.1085     CD =  0.00797   =>   CDf =  0.00550    CDp =  0.00246

 MRCHDU: Convergence failed at  28  side 2    Res =  0.2565E+01
 MRCHDU: Convergence failed at  29  side 2    Res =  0.1215E+01
 MRCHDU: Convergence failed at  30  side 2    Res =  0.1666E+01
 MRCHDU: Convergence failed at  31  side 2    Res =  0.2014E+01
 MRCHDU: Convergence failed at  32  side 2    Res =  0.2105E+01
 MRCHDU: Convergence failed at  33  side 2    Res =  0.2071E+01
 MRCHDU: Convergence failed at  34  side 2    Res =  0.1986E+01
 MRCHDU: Convergence failed at  35  side 2    Res =  0.1928E+01
 MRCHDU: Convergence failed at  36  side 2    Res =  0.1856E+01
 MRCHDU: Convergence failed at  37  side 2    Res =  0.1803E+01
 MRCHDU: Convergence failed at  38  side 2    Res =  0.1766E+01
 MRCHDU: Convergence failed at  39  side 2    Res =  0.1741E+01
 MRCHDU: Convergence failed at  40  side 2    Res =  0.1297E+01
 MRCHDU: Convergence failed at  41  side 2    Res =  0.1368E+01
 MRCHDU: Convergence failed at  42  side 2    Res =  0.1436E+01
 MRCHDU: Convergence failed at  43  side 2    Res =  0.1499E+01
 MRCHDU: Convergence failed at  44  side 2    Res =  0.1560E+01
 MRCHDU: Convergence failed at  45  side 2    Res =  0.1622E+01
 MRCHDU: Convergence failed at  46  side 2    Res =  0.4982E+01
 MRCHDU: Convergence failed at  47  side 2    Res =  0.1160E+01
 MRCHDU: Convergence failed at  48  side 2    Res =  0.1197E+01
 MRCHDU: Convergence failed at  49  side 2    Res =  0.1234E+01
 MRCHDU: Convergence failed at  50  side 2    Res =  0.1271E+01
 MRCHDU: Convergence failed at  51  side 2    Res =  0.1308E+01
 MRCHDU: Convergence failed at  52  side 2    Res =  0.1346E+01
 MRCHDU: Convergence failed at  53  side 2    Res =  0.1409E+01
 MRCHDU: Convergence failed at  54  side 2    Res =  0.1447E+01
 MRCHDU: Convergence failed at  55  side 2    Res =  0.1482E+01
 MRCHDU: Convergence failed at  56  side 2    Res =  0.1520E+01
 MRCHDU: Convergence failed at  57  side 2    Res =  0.1558E+01
 MRCHDU: Convergence failed at  58  side 2    Res =  0.1597E+01
 MRCHDU: Convergence failed at  59  side 2    Res =  0.1636E+01
 MRCHDU: Convergence failed at  60  side 2    Res =  0.1674E+01
 MRCHDU: Convergence failed at  61  side 2    Res =  0.1712E+01
 MRCHDU: Convergence failed at  62  side 2    Res =  0.1752E+01
 MRCHDU: Convergence failed at  63  side 2    Res =  0.1796E+01
 MRCHDU: Convergence failed at  64  side 2    Res =  0.1836E+01
 MRCHDU: Convergence failed at  65  side 2    Res =  0.1871E+01
 MRCHDU: Convergence failed at  66  side 2    Res =  0.1914E+01
 MRCHDU: Convergence failed at  67  side 2    Res =  0.1962E+01
 MRCHDU: Convergence failed at  68  side 2    Res =  0.2012E+01
 MRCHDU: Convergence failed at  69  side 2    Res =  0.2057E+01
 MRCHDU: Convergence failed at  70  side 2    Res =  0.2105E+01
 MRCHDU: Convergence failed at  71  side 2    Res =  0.2149E+01
 MRCHDU: Convergence failed at  72  side 2    Res =  0.2193E+01
 MRCHDU: Convergence failed at  73  side 2    Res =  0.2233E+01
 MRCHDU: Convergence failed at  74  side 2    Res =  0.2292E+01
 MRCHDU: Convergence failed at  75  side 2    Res =  0.2519E+01
 MRCHDU: Convergence failed at  76  side 2    Res =  0.2568E+01
 MRCHDU: Convergence failed at  77  side 2    Res =  0.2614E+01
 MRCHDU: Convergence failed at  78  side 2    Res =  0.2641E+01
 MRCHDU: Convergence failed at  79  side 2    Res =  0.2646E+01
 MRCHDU: Convergence failed at  80  side 2    Res =  0.2647E+01
 MRCHDU: Convergence failed at  81  side 2    Res =  0.2689E+01
 MRCHDU: Convergence failed at  82  side 2    Res =  0.2762E+01
 Side 1  free  transition at x/c =  0.9567   77
 Side 2  free  transition at x/c =  0.4997   46

   3   rms: 0.1876E+00   max: -.7902E+00   D at   47  2   RLX: 0.633
       a = -1.500      CL =  0.2010
      Cm = -0.0830     CD =  0.00619   =>   CDf =  0.00346    CDp =  0.00274

 Side 1  free  transition at x/c =  0.9569   77
 Side 2  free  transition at x/c =  0.3957   38

   4   rms: 0.1224E+00   max: 0.1965E+01   C at   38  2   RLX: 0.763
       a = -1.500      CL =  0.2531
      Cm = -0.1030     CD =  0.00748   =>   CDf =  0.00522    CDp =  0.00226

 Side 1  free  transition at x/c =  0.9568   77
 Side 2  free  transition at x/c =  0.3253   33

   5   rms: 0.2344E-01   max: -.2491E+00   D at   34  2
       a = -1.500      CL =  0.2685
      Cm = -0.1087     CD =  0.00761   =>   CDf =  0.00524    CDp =  0.00237

 Side 1  free  transition at x/c =  0.9567   77
 Side 2  free  transition at x/c =  0.3031   32

   6   rms: 0.4269E-02   max: -.5888E-01   C at   32  2
       a = -1.500      CL =  0.2686
      Cm = -0.1087     CD =  0.00766   =>   CDf =  0.00524    CDp =  0.00242

 Side 1  free  transition at x/c =  0.9567   77
 Side 2  free  transition at x/c =  0.3032   32

   7   rms: 0.2790E-03   max: 0.5019E-02   C at   32  2
       a = -1.500      CL =  0.2686
      Cm = -0.1087     CD =  0.00767   =>   CDf =  0.00523    CDp =  0.00243

 Side 1  free  transition at x/c =  0.9567   77
 Side 2  free  transition at x/c =  0.3031   32

   8   rms: 0.1687E-05   max: -.9656E-05   D at   78  1
       a = -1.500      CL =  0.2686
      Cm = -0.1087     CD =  0.00767   =>   CDf =  0.00524    CDp =  0.00243
 plradd ia,ip,cpol            6           0  4.47499985E-03

 Point added to stored polar  1
 Point written to save file  ma409sm_Re500k.base.pol                         
 Dump file unspecified or not available
 Calculating wake trajectory ...
 Calculating source influence matrix ...

 Solving BL system ...

 Side 1  free  transition at x/c =  0.9567   77
 Side 2  free  transition at x/c =  0.3031   32

   1   rms: 0.1964E+00   max: -.2934E+01   C at   32  2   RLX: 0.170
       a = -1.000      CL =  0.2809
      Cm = -0.1093     CD =  0.00756   =>   CDf =  0.00524    CDp =  0.00232

 Side 1  free  transition at x/c =  0.9561   76
 Side 2  free  transition at x/c =  0.3162   33

   2   rms: 0.1092E+00   max: -.1039E+01   C at   33  2   RLX: 0.481
       a = -1.000      CL =  0.2777
      Cm = -0.1036     CD =  0.00757   =>   CDf =  0.00521    CDp =  0.00236

 Side 1  free  transition at x/c =  0.9370   75
 Side 2  free  transition at x/c =  0.3314   34

   3   rms: 0.1643E+00   max: -.1921E+01   C at   34  2   RLX: 0.260
       a = -1.000      CL =  0.2962
      Cm = -0.1053     CD =  0.00832   =>   CDf =  0.00517    CDp =  0.00314

 Side 1  free  transition at x/c =  0.9423   75
 Side 2  free  transition at x/c =  0.3453   35

   4   rms: 0.7809E-01   max: -.8090E+00   C at   75  1   RLX: 0.618
       a = -1.000      CL =  0.2822
      Cm = -0.1004     CD =  0.00789   =>   CDf =  0.00514    CDp =  0.00275

 Side 1  free  transition at x/c =  0.9264   74
 Side 2  free  transition at x/c =  0.3540   35

   5   rms: 0.2199E+00   max: -.1401E+01   T at   74  1   RLX: 0.357
       a = -1.000      CL =  0.3245
      Cm = -0.1078     CD =  0.00827   =>   CDf =  0.00513    CDp =  0.00315

 MRCHDU: Convergence failed at  78  side 1    Res =  0.3027E+01
 MRCHDU: Convergence failed at  79  side 1    Res =  0.3218E+01
 MRCHDU: Convergence failed at  80  side 1    Res =  0.3399E+01
 MRCHDU: Convergence failed at  81  side 1    Res =  0.6722E+01
 Side 1  free  transition at x/c =  0.9553   77
 Side 2  free  transition at x/c =  0.3811   36
 idif Ue xi dudx           1  0.37076795      1.65152550E-03   224.50029    
 Uenew xinew           2  2.45947558E-02  1.09553337E-04

   6   rms: 0.1454E+00   max: 0.8412E+00   T at   77  1   RLX: 0.878
       a = -1.000      CL =  0.2788
      Cm = -0.0993     CD =  0.00643   =>   CDf =  0.00507    CDp =  0.00136

 Side 1  free  transition at x/c =  0.9232   74
 Side 2  free  transition at x/c =  0.3630   36

   7   rms: 0.1787E+00   max: -.1147E+01   C at   36  2   RLX: 0.436
       a = -1.000      CL =  0.3088
      Cm = -0.1040     CD =  0.00867   =>   CDf =  0.00510    CDp =  0.00357

 Side 1  free  transition at x/c =  0.9406   76
 Side 2  free  transition at x/c =  0.3826   36
 idif Ue xi dudx           1  0.39680278      1.80220604E-03   220.17615    
 Uenew xinew           2  5.72972931E-02  2.60233879E-04

   8   rms: 0.4379E+00   max: 0.3417E+01   T at   76  1   RLX: 0.163
       a = -1.000      CL =  0.2647
      Cm = -0.0948     CD =  0.00867   =>   CDf =  0.00506    CDp =  0.00361

 Side 1  free  transition at x/c =  0.9181   74
 Side 2  free  transition at x/c =  0.3499   35

   9   rms: 0.1626E+00   max: -.7345E+00   D at   79  1   RLX: 0.681
       a = -1.000      CL =  0.3119
      Cm = -0.1048     CD =  0.00796   =>   CDf =  0.00515    CDp =  0.00281

 Side 1  free  transition at x/c =  0.9394   76
 Side 2  free  transition at x/c =  0.3798   36

  10   rms: 0.1371E+00   max: -.7866E+00   T at    2  1   RLX: 0.636
       a = -1.000      CL =  0.3603
      Cm = -0.1160     CD =  0.00724   =>   CDf =  0.00506    CDp =  0.00218

 MRCHDU: Convergence failed at  79  side 1    Res =  0.1020E+02
 MRCHDU: Convergence failed at  80  side 1    Res =  0.5619E+01
 MRCHDU: Convergence failed at  81  side 1    Res =  0.1178E+02
 Side 1  free  transition at x/c =  0.9695   78
 Side 2  free  transition at x/c =  0.4203   39

  11   rms: 0.1439E+00   max: 0.1022E+01   C at   39  2
       a = -1.000      CL =  0.3161
      Cm = -0.1068     CD =  0.00647   =>   CDf =  0.00490    CDp =  0.00157

 Side 1  free  transition at x/c =  0.9381   76
 Side 2  free  transition at x/c =  0.3962   37

  12   rms: 0.9041E-01   max: -.5722E+00   D at   81  1   RLX: 0.874
       a = -1.000      CL =  0.3540
      Cm = -0.1150     CD =  0.00718   =>   CDf =  0.00498    CDp =  0.00220

 MRCHDU: Convergence failed at  78  side 1    Res =  0.2209E+01
 MRCHDU: Convergence failed at  79  side 1    Res =  0.8398E+02
 MRCHDU: Convergence failed at  80  side 1    Res =  0.1043E+02
 MRCHDU: Convergence failed at  81  side 1    Res =  0.2203E+02
 Side 1  free  transition at x/c =  0.9621   78
 Side 2  free  transition at x/c =  0.4216   39

  13   rms: 0.1609E+00   max: 0.1150E+01   C at   78  1
       a = -1.000      CL =  0.3195
      Cm = -0.1078     CD =  0.00647   =>   CDf =  0.00488    CDp =  0.00158

 Side 1  free  transition at x/c =  0.9358   76
 Side 2  free  transition at x/c =  0.3961   37

  14   rms: 0.7977E-01   max: -.5190E+00   D at   81  1   RLX: 0.963
       a = -1.000      CL =  0.3485
      Cm = -0.1138     CD =  0.00719   =>   CDf =  0.00498    CDp =  0.00221

 Side 1  free  transition at x/c =  0.9575   78
 Side 2  free  transition at x/c =  0.4172   39

  15   rms: 0.4074E-01   max: 0.2537E+00   D at   78  1
       a = -1.000      CL =  0.3426
      Cm = -0.1126     CD =  0.00699   =>   CDf =  0.00492    CDp =  0.00207

 Side 1  free  transition at x/c =  0.9529   77
 Side 2  free  transition at x/c =  0.4137   39

  16   rms: 0.4461E-01   max: 0.4287E+00   C at   39  2
       a = -1.000      CL =  0.3197
      Cm = -0.1075     CD =  0.00726   =>   CDf =  0.00492    CDp =  0.00233

 Side 1  free  transition at x/c =  0.9404   76
 Side 2  free  transition at x/c =  0.3970   37

  17   rms: 0.3864E-01   max: -.2930E+00   D at   79  1
       a = -1.000      CL =  0.3388
      Cm = -0.1115     CD =  0.00707   =>   CDf =  0.00498    CDp =  0.00209

 Side 1  free  transition at x/c =  0.9556   77
 Side 2  free  transition at x/c =  0.4101   38

  18   rms: 0.6506E-01   max: 0.4531E+00   D at   78  1
       a = -1.000      CL =  0.3055
      Cm = -0.1044     CD =  0.00733   =>   CDf =  0.00496    CDp =  0.00237

 Side 1  free  transition at x/c =  0.9342   76
 Side 2  free  transition at x/c =  0.3828   36

  19   rms: 0.5166E-01   max: -.4273E+00   D at   79  1
       a = -1.000      CL =  0.3348
      Cm = -0.1107     CD =  0.00718   =>   CDf =  0.00504    CDp =  0.00214

 Side 1  free  transition at x/c =  0.9521   77
 Side 2  free  transition at x/c =  0.4075   38

  20   rms: 0.3354E-01   max: 0.2489E+00   D at   78  1
       a = -1.000      CL =  0.3295
      Cm = -0.1097     CD =  0.00711   =>   CDf =  0.00497    CDp =  0.00214

 Side 1  free  transition at x/c =  0.9459   77
 Side 2  free  transition at x/c =  0.4042   38

  21   rms: 0.1919E-02   max: -.2615E-01   D at   77  1
       a = -1.000      CL =  0.3288
      Cm = -0.1095     CD =  0.00716   =>   CDf =  0.00495    CDp =  0.00221

 Side 1  free  transition at x/c =  0.9458   77
 Side 2  free  transition at x/c =  0.4041   38

  22   rms: 0.2263E-04   max: -.2712E-03   D at   77  1
       a = -1.000      CL =  0.3288
      Cm = -0.1095     CD =  0.00716   =>   CDf =  0.00495    CDp =  0.00221
 plradd ia,ip,cpol            7           0  1.20886760E-02

 Point added to stored polar  1
 Point written to save file  ma409sm_Re500k.base.pol                         
 Dump file unspecified or not available
 Calculating wake trajectory ...
 Calculating source influence matrix ...

 Solving BL system ...

 Side 1  free  transition at x/c =  0.9458   77
 Side 2  free  transition at x/c =  0.4041   38

   1   rms: 0.1757E+00   max: -.2679E+01   C at   38  2   RLX: 0.187
       a = -0.500      CL =  0.3414
      Cm = -0.1099     CD =  0.00705   =>   CDf =  0.00495    CDp =  0.00210

 Side 1  free  transition at x/c =  0.9444   77
 Side 2  free  transition at x/c =  0.4211   39

   2   rms: 0.1297E+00   max: -.1857E+01   C at   39  2   RLX: 0.269
       a = -0.500      CL =  0.3565
      Cm = -0.1104     CD =  0.00696   =>   CDf =  0.00492    CDp =  0.00205

 Side 1  free  transition at x/c =  0.9429   76
 Side 2  free  transition at x/c =  0.4432   41

   3   rms: 0.1051E+00   max: -.1676E+01   C at   41  2   RLX: 0.298
       a = -0.500      CL =  0.3609
      Cm = -0.1093     CD =  0.00691   =>   CDf =  0.00486    CDp =  0.00205

 Side 1  free  transition at x/c =  0.9366   76
 Side 2  free  transition at x/c =  0.4554   42

   4   rms: 0.1011E+00   max: -.1640E+01   C at   42  2   RLX: 0.305
       a = -0.500      CL =  0.3691
      Cm = -0.1093     CD =  0.00690   =>   CDf =  0.00483    CDp =  0.00207

 Side 1  free  transition at x/c =  0.9355   76
 Side 2  free  transition at x/c =  0.4684   43

   5   rms: 0.8888E-01   max: -.1488E+01   C at   43  2   RLX: 0.336
       a = -0.500      CL =  0.3757
      Cm = -0.1096     CD =  0.00681   =>   CDf =  0.00479    CDp =  0.00201

 Side 1  free  transition at x/c =  0.9348   76
 Side 2  free  transition at x/c =  0.4819   44

   6   rms: 0.7978E-01   max: -.1405E+01   C at   44  2   RLX: 0.356
       a = -0.500      CL =  0.3803
      Cm = -0.1098     CD =  0.00673   =>   CDf =  0.00474    CDp =  0.00199

 Side 1  free  transition at x/c =  0.9343   76
 Side 2  free  transition at x/c =  0.4962   45

   7   rms: 0.6936E-01   max: -.1261E+01   C at   45  2   RLX: 0.396
       a = -0.500      CL =  0.3836
      Cm = -0.1100     CD =  0.00666   =>   CDf =  0.00469    CDp =  0.00197

 Side 1  free  transition at x/c =  0.9339   76
 Side 2  free  transition at x/c =  0.5103   46

   8   rms: 0.5607E-01   max: -.1033E+01   C at   46  2   RLX: 0.484
       a = -0.500      CL =  0.3860
      Cm = -0.1100     CD =  0.00660   =>   CDf =  0.00464    CDp =  0.00196

 Side 1  free  transition at x/c =  0.9337   76
 Side 2  free  transition at x/c =  0.5247   47

   9   rms: 0.4134E-01   max: -.7684E+00   C at   47  2   RLX: 0.651
       a = -0.500      CL =  0.3874
      Cm = -0.1101     CD =  0.00654   =>   CDf =  0.00459    CDp =  0.00195

 Side 1  free  transition at x/c =  0.9335   76
 Side 2  free  transition at x/c =  0.5399   48

  10   rms: 0.2262E-01   max: -.4220E+00   C at   48  2
       a = -0.500      CL =  0.3881
      Cm = -0.1100     CD =  0.00650   =>   CDf =  0.00454    CDp =  0.00196

 Side 1  free  transition at x/c =  0.9334   76
 Side 2  free  transition at x/c =  0.5531   49

  11   rms: 0.4325E-02   max: -.8076E-01   C at   49  2
       a = -0.500      CL =  0.3881
      Cm = -0.1100     CD =  0.00650   =>   CDf =  0.00450    CDp =  0.00201

 Side 1  free  transition at x/c =  0.9334   76
 Side 2  free  transition at x/c =  0.5555   49

  12   rms: 0.1013E-03   max: -.1880E-02   C at   49  2
       a = -0.500      CL =  0.3881
      Cm = -0.1100     CD =  0.00650   =>   CDf =  0.00449    CDp =  0.00201

 Side 1  free  transition at x/c =  0.9334   76
 Side 2  free  transition at x/c =  0.5556   49

  13   rms: 0.1525E-05   max: 0.2567E-04   C at   49  2
       a = -0.500      CL =  0.3881
      Cm = -0.1100     CD =  0.00650   =>   CDf =  0.00449    CDp =  0.00202
 plradd ia,ip,cpol            8           0  0.22588040    

 Point added to stored polar  1
 Point written to save file  ma409sm_Re500k.base.pol                         
 Dump file unspecified or not available
 Calculating wake trajectory ...
 Calculating source influence matrix ...

 Solving BL system ...

 Side 1  free  transition at x/c =  0.9334   76
 Side 2  free  transition at x/c =  0.5556   49

   1   rms: 0.4416E+00   max: -.7944E+01   C at   49  2   RLX: 0.063
       a =  0.000      CL =  0.3918
      Cm = -0.1101     CD =  0.00643   =>   CDf =  0.00449    CDp =  0.00194

 Side 1  free  transition at x/c =  0.9327   76
 Side 2  free  transition at x/c =  0.5731   50

   2   rms: 0.4734E+00   max: -.8400E+01   C at   50  2   RLX: 0.060
       a =  0.000      CL =  0.3953
      Cm = -0.1102     CD =  0.00637   =>   CDf =  0.00443    CDp =  0.00194

 Side 1  free  transition at x/c =  0.9320   76
 Side 2  free  transition at x/c =  0.5924   52

   3   rms: 0.5201E+00   max: -.9415E+01   C at   52  2   RLX: 0.053
       a =  0.000      CL =  0.3981
      Cm = -0.1102     CD =  0.00630   =>   CDf =  0.00437    CDp =  0.00192

 Side 1  free  transition at x/c =  0.9315   76
 Side 2  free  transition at x/c =  0.6083   53

   4   rms: 0.5426E+00   max: -.9756E+01   C at   53  2   RLX: 0.051
       a =  0.000      CL =  0.4008
      Cm = -0.1103     CD =  0.00624   =>   CDf =  0.00432    CDp =  0.00192

 Side 1  free  transition at x/c =  0.9311   76
 Side 2  free  transition at x/c =  0.6260   54

   5   rms: 0.5751E+00   max: -.1015E+02   C at   54  2   RLX: 0.049
       a =  0.000      CL =  0.4031
      Cm = -0.1104     CD =  0.00619   =>   CDf =  0.00427    CDp =  0.00192

 Side 1  free  transition at x/c =  0.9307   76
 Side 2  free  transition at x/c =  0.6456   55

   6   rms: 0.6057E+00   max: -.1039E+02   C at   55  2   RLX: 0.048
       a =  0.000      CL =  0.4052
      Cm = -0.1104     CD =  0.00613   =>   CDf =  0.00421    CDp =  0.00192

 Side 1  free  transition at x/c =  0.9304   76
 Side 2  free  transition at x/c =  0.6682   57

   7   rms: 0.6530E+00   max: -.1134E+02   C at   57  2   RLX: 0.044
       a =  0.000      CL =  0.4068
      Cm = -0.1103     CD =  0.00605   =>   CDf =  0.00413    CDp =  0.00192

 Side 1  free  transition at x/c =  0.9300   76
 Side 2  free  transition at x/c =  0.6887   58

   8   rms: 0.6344E+00   max: -.1069E+02   C at   58  2   RLX: 0.047
       a =  0.000      CL =  0.4086
      Cm = -0.1103     CD =  0.00599   =>   CDf =  0.00407    CDp =  0.00192

 Side 1  free  transition at x/c =  0.9297   76
 Side 2  free  transition at x/c =  0.7138   60

   9   rms: 0.6766E+00   max: -.1144E+02   C at   60  2   RLX: 0.044
       a =  0.000      CL =  0.4099
      Cm = -0.1102     CD =  0.00591   =>   CDf =  0.00399    CDp =  0.00192

 Side 1  free  transition at x/c =  0.9295   75
 Side 2  free  transition at x/c =  0.7378   62

  10   rms: 0.5514E+00   max: -.9419E+01   C at   62  2   RLX: 0.053
       a =  0.000      CL =  0.4105
      Cm = -0.1098     CD =  0.00584   =>   CDf =  0.00392    CDp =  0.00192

 Side 1  free  transition at x/c =  0.9285   75
 Side 2  free  transition at x/c =  0.7608   64

  11   rms: 0.5561E+00   max: -.9708E+01   C at   64  2   RLX: 0.052
       a =  0.000      CL =  0.4110
      Cm = -0.1096     CD =  0.00577   =>   CDf =  0.00385    CDp =  0.00193

 Side 1  free  transition at x/c =  0.9277   75
 Side 2  free  transition at x/c =  0.7875   65

  12   rms: 0.5764E+00   max: -.9374E+01   C at   65  2   RLX: 0.053
       a =  0.000      CL =  0.4115
      Cm = -0.1092     CD =  0.00571   =>   CDf =  0.00376    CDp =  0.00194

 Side 1  free  transition at x/c =  0.9269   75
 Side 2  free  transition at x/c =  0.8360   69

  13   rms: 0.5984E+00   max: -.1000E+02   C at   69  2   RLX: 0.050
       a =  0.000      CL =  0.4110
      Cm = -0.1085     CD =  0.00557   =>   CDf =  0.00362    CDp =  0.00195

 Side 1  free  transition at x/c =  0.9262   75
 Side 2  free  transition at x/c =  0.8446   70

  14   rms: 0.5502E+00   max: -.9472E+01   C at   70  2   RLX: 0.053
       a =  0.000      CL =  0.4112
      Cm = -0.1083     CD =  0.00555   =>   CDf =  0.00360    CDp =  0.00195

 Side 1  free  transition at x/c =  0.9256   75
 Side 2  free  transition at x/c =  0.8517   70

  15   rms: 0.5082E+00   max: -.8438E+01   C at   70  2   RLX: 0.059
       a =  0.000      CL =  0.4117
      Cm = -0.1080     CD =  0.00554   =>   CDf =  0.00357    CDp =  0.00196

 Side 1  free  transition at x/c =  0.9249   76
 Side 2  free  transition at x/c =  0.8834   71

  16   rms: 0.7072E+00   max: -.1126E+02   C at   71  2   RLX: 0.044
       a =  0.000      CL =  0.4117
      Cm = -0.1076     CD =  0.00547   =>   CDf =  0.00351    CDp =  0.00197

 Side 1  free  transition at x/c =  0.9245   76
 Side 2  free  transition at x/c =  0.8978   72

  17   rms: 0.9940E+00   max: -.1570E+02   C at   72  2   RLX: 0.032
       a =  0.000      CL =  0.4122
      Cm = -0.1076     CD =  0.00545   =>   CDf =  0.00348    CDp =  0.00197

 Side 1  free  transition at x/c =  0.9243   76
 Side 2  free  transition at x/c =  0.9286   75

  18   rms: 0.5099E+02   max: -.8400E+03   C at   75  2   RLX: 0.001
       a =  0.000      CL =  0.4136
      Cm = -0.1078     CD =  0.00541   =>   CDf =  0.00344    CDp =  0.00196

 Side 1  free  transition at x/c =  0.9246   76
 Side 2  free  transition at x/c =  0.9460   76
 idif Ue xi dudx           1  0.34709194      1.50716305E-03   230.29489    
 Uenew xinew           2  3.01986205E-04  1.31130219E-06

  19   rms: 0.4147E+01   max: 0.6672E+02   C at   76  2   RLX: 0.022
       a =  0.000      CL =  0.4077
      Cm = -0.1065     CD =  0.00549   =>   CDf =  0.00345    CDp =  0.00204

 Side 1  free  transition at x/c =  0.9233   75
 Side 2  free  transition at x/c =  0.8832   72

  20   rms: 0.1264E+01   max: -.2008E+02   T at    2  2   RLX: 0.025
       a =  0.000      CL =  0.4084
      Cm = -0.1066     CD =  0.00550   =>   CDf =  0.00351    CDp =  0.00198

 Side 1  free  transition at x/c =  0.9231   76
 Side 2  free  transition at x/c =  0.9014   73

  21   rms: 0.1180E+01   max: -.1963E+02   C at   73  2   RLX: 0.025
       a =  0.000      CL =  0.4089
      Cm = -0.1064     CD =  0.00544   =>   CDf =  0.00348    CDp =  0.00196

 Side 1  free  transition at x/c =  0.9231   76
 Side 2  free  transition at x/c =  0.9158   74

  22   rms: 0.2093E+01   max: -.3432E+02   C at   74  2   RLX: 0.015
       a =  0.000      CL =  0.4104
      Cm = -0.1067     CD =  0.00542   =>   CDf =  0.00346    CDp =  0.00196

 Side 1  free  transition at x/c =  0.9233   76
 Side 2  free  transition at x/c =  0.9279   75

  23   rms: 0.9041E+01   max: -.1476E+03   C at   75  2   RLX: 0.003
       a =  0.000      CL =  0.4125
      Cm = -0.1072     CD =  0.00541   =>   CDf =  0.00345    CDp =  0.00197

 Side 1  free  transition at x/c =  0.9236   76
 Side 2  free  transition at x/c =  0.9500   76

  24   rms: 0.3803E+01   max: 0.5854E+02   C at   76  2   RLX: 0.026
       a =  0.000      CL =  0.4067
      Cm = -0.1058     CD =  0.00547   =>   CDf =  0.00343    CDp =  0.00204

 Side 1  free  transition at x/c =  0.9224   76
 Side 2  free  transition at x/c =  0.9070   73

  25   rms: 0.1195E+01   max: -.1943E+02   C at   73  2   RLX: 0.026
       a =  0.000      CL =  0.4081
      Cm = -0.1060     CD =  0.00544   =>   CDf =  0.00347    CDp =  0.00196

 Side 1  free  transition at x/c =  0.9225   76
 Side 2  free  transition at x/c =  0.9174   74

  26   rms: 0.2530E+01   max: -.4137E+02   C at   74  2   RLX: 0.012
       a =  0.000      CL =  0.4098
      Cm = -0.1063     CD =  0.00543   =>   CDf =  0.00346    CDp =  0.00197

 Side 1  free  transition at x/c =  0.9227   76
 Side 2  free  transition at x/c =  0.9499   76

  27   rms: 0.2395E+01   max: 0.3630E+02   C at   76  2   RLX: 0.041
       a =  0.000      CL =  0.4044
      Cm = -0.1049     CD =  0.00545   =>   CDf =  0.00344    CDp =  0.00202

 Side 1  free  transition at x/c =  0.9215   76
 Side 2  free  transition at x/c =  0.9179   74

  28   rms: 0.2258E+01   max: -.3496E+02   C at   74  2   RLX: 0.014
       a =  0.000      CL =  0.4064
      Cm = -0.1053     CD =  0.00541   =>   CDf =  0.00346    CDp =  0.00195

 Side 1  free  transition at x/c =  0.9218   76
 Side 2  free  transition at x/c =  0.9489   76
 idif Ue xi dudx           1  0.35381609      1.52063370E-03   232.67674    
 Uenew xinew           2  3.43941641E-03  1.47819519E-05

  29   rms: 0.2208E+01   max: 0.3333E+02   C at   76  2   RLX: 0.045
       a =  0.000      CL =  0.4010
      Cm = -0.1039     CD =  0.00544   =>   CDf =  0.00345    CDp =  0.00198

 Side 1  free  transition at x/c =  0.9206   75
 Side 2  free  transition at x/c =  0.9412   77

  30   rms: 0.3295E+01   max: 0.5118E+02   C at   77  2   RLX: 0.029
       a =  0.000      CL =  0.3937
      Cm = -0.1020     CD =  0.00543   =>   CDf =  0.00345    CDp =  0.00198

 Side 1  free  transition at x/c =  0.9194   75
 Side 2  free  transition at x/c =  0.8918   73

  31   rms: 0.8829E+00   max: -.1462E+02   C at   73  2   RLX: 0.034
       a =  0.000      CL =  0.3955
      Cm = -0.1023     CD =  0.00541   =>   CDf =  0.00352    CDp =  0.00189

 Side 1  free  transition at x/c =  0.9195   75
 Side 2  free  transition at x/c =  0.8983   73

  32   rms: 0.7090E+00   max: -.1134E+02   C at   73  2   RLX: 0.044
       a =  0.000      CL =  0.3980
      Cm = -0.1027     CD =  0.00540   =>   CDf =  0.00351    CDp =  0.00190

 Side 1  free  transition at x/c =  0.9196   75
 Side 2  free  transition at x/c =  0.9642   78

  33   rms: 0.8459E+01   max: 0.1280E+03   C at   78  2   RLX: 0.012
       a =  0.000      CL =  0.3949
      Cm = -0.1018     CD =  0.00534   =>   CDf =  0.00345    CDp =  0.00189

 Side 1  free  transition at x/c =  0.9193   75
 Side 2  free  transition at x/c =  0.9185   75

  34   rms: 0.1557E+03   max: 0.2488E+04   C at   75  2   RLX: 0.001
       a =  0.000      CL =  0.3890
      Cm = -0.1007     CD =  0.00545   =>   CDf =  0.00348    CDp =  0.00197

 Side 1  free  transition at x/c =  0.9183   75
 Side 2  free  transition at x/c =  0.9148   75

  35   rms: 0.1614E+02   max: -.2609E+03   C at   75  2   RLX: 0.002
       a =  0.000      CL =  0.3906
      Cm = -0.1008     CD =  0.00532   =>   CDf =  0.00348    CDp =  0.00184

 Side 1  free  transition at x/c =  0.9186   75
 Side 2  free  transition at x/c =  0.9219   75

  36   rms: 0.2117E+02   max: -.3254E+03   C at   75  2   RLX: 0.002
       a =  0.000      CL =  0.3931
      Cm = -0.1014     CD =  0.00532   =>   CDf =  0.00347    CDp =  0.00185

 Side 1  free  transition at x/c =  0.9190   75
 Side 2  free  transition at x/c =  0.9357   76

  37   rms: 0.4355E+01   max: 0.6491E+02   C at   76  2   RLX: 0.023
       a =  0.000      CL =  0.3859
      Cm = -0.0997     CD =  0.00538   =>   CDf =  0.00346    CDp =  0.00192

 Side 1  free  transition at x/c =  0.9179   75
 Side 2  free  transition at x/c =  0.8795   72

  38   rms: 0.7634E+00   max: -.1262E+02   C at   72  2   RLX: 0.040
       a =  0.000      CL =  0.3880
      Cm = -0.1001     CD =  0.00538   =>   CDf =  0.00355    CDp =  0.00183

 Side 1  free  transition at x/c =  0.9180   75
 Side 2  free  transition at x/c =  0.8880   73

  39   rms: 0.7827E+00   max: -.1326E+02   C at   73  2   RLX: 0.038
       a =  0.000      CL =  0.3902
      Cm = -0.1005     CD =  0.00537   =>   CDf =  0.00354    CDp =  0.00183

 Side 1  free  transition at x/c =  0.9181   75
 Side 2  free  transition at x/c =  0.8991   73

  40   rms: 0.9916E+00   max: -.1560E+02   C at   73  2   RLX: 0.032
       a =  0.000      CL =  0.3925
      Cm = -0.1009     CD =  0.00536   =>   CDf =  0.00351    CDp =  0.00185

 Side 1  free  transition at x/c =  0.9182   75
 Side 2  free  transition at x/c =  0.9640   78

  41   rms: 0.8732E+01   max: 0.1314E+03   C at   78  2   RLX: 0.011
       a =  0.000      CL =  0.3897
      Cm = -0.1001     CD =  0.00530   =>   CDf =  0.00346    CDp =  0.00184

 Side 1  free  transition at x/c =  0.9180   75
 Side 2  free  transition at x/c =  0.9172   75

  42   rms: 0.4475E+01   max: 0.7096E+02   C at   75  2   RLX: 0.021
       a =  0.000      CL =  0.3844
      Cm = -0.0990     CD =  0.00540   =>   CDf =  0.00349    CDp =  0.00192

 Side 1  free  transition at x/c =  0.9171   75
 Side 2  free  transition at x/c =  0.9323   76

  43   rms: 0.3855E+01   max: 0.5789E+02   C at   76  2   RLX: 0.026
       a =  0.000      CL =  0.3767
      Cm = -0.0969     CD =  0.00531   =>   CDf =  0.00347    CDp =  0.00184

 Side 1  free  transition at x/c =  0.9163   75
 Side 2  free  transition at x/c =  0.8723   72

  44   rms: 0.7385E+00   max: -.1273E+02   C at   72  2   RLX: 0.039
       a =  0.000      CL =  0.3790
      Cm = -0.0974     CD =  0.00532   =>   CDf =  0.00359    CDp =  0.00173

 Side 1  free  transition at x/c =  0.9164   75
 Side 2  free  transition at x/c =  0.8739   72

  45   rms: 0.5370E+00   max: -.9183E+01   C at   72  2   RLX: 0.054
       a =  0.000      CL =  0.3821
      Cm = -0.0980     CD =  0.00533   =>   CDf =  0.00358    CDp =  0.00174

 Side 1  free  transition at x/c =  0.9165   75
 Side 2  free  transition at x/c =  0.9107   74

  46   rms: 0.5383E+01   max: 0.8055E+02   C at   74  2   RLX: 0.019
       a =  0.000      CL =  0.3767
      Cm = -0.0967     CD =  0.00536   =>   CDf =  0.00350    CDp =  0.00186

 Side 1  free  transition at x/c =  0.9158   74
 Side 2  free  transition at x/c =  0.8998   74

  47   rms: 0.3371E+01   max: -.5507E+02   C at   74  2   RLX: 0.009
       a =  0.000      CL =  0.3788
      Cm = -0.0970     CD =  0.00526   =>   CDf =  0.00352    CDp =  0.00174

 Side 1  free  transition at x/c =  0.9163   75
 Side 2  free  transition at x/c =  0.9192   75

  48   rms: 0.2955E+01   max: 0.4420E+02   C at   75  2   RLX: 0.034
       a =  0.000      CL =  0.3719
      Cm = -0.0954     CD =  0.00532   =>   CDf =  0.00349    CDp =  0.00183

 Side 1  free  transition at x/c =  0.9155   74
 Side 2  free  transition at x/c =  0.8860   73

  49   rms: 0.1405E+01   max: -.2366E+02   C at   73  2   RLX: 0.021
       a =  0.000      CL =  0.3743
      Cm = -0.0959     CD =  0.00526   =>   CDf =  0.00356    CDp =  0.00171

 Side 1  free  transition at x/c =  0.9159   74
 Side 2  free  transition at x/c =  0.8954   73

  50   rms: 0.2914E+01   max: -.4571E+02   C at   73  2   RLX: 0.011
       a =  0.000      CL =  0.3768
      Cm = -0.0964     CD =  0.00525   =>   CDf =  0.00353    CDp =  0.00172

 Side 1  free  transition at x/c =  0.9166   75
 Side 2  free  transition at x/c =  0.9138   75

  51   rms: 0.3164E+01   max: 0.4928E+02   C at   75  2   RLX: 0.030
       a =  0.000      CL =  0.3694
      Cm = -0.0948     CD =  0.00530   =>   CDf =  0.00349    CDp =  0.00180

 Side 1  free  transition at x/c =  0.9157   74
 Side 2  free  transition at x/c =  0.8746   72

  52   rms: 0.1049E+01   max: -.1779E+02   C at   72  2   RLX: 0.028
       a =  0.000      CL =  0.3719
      Cm = -0.0954     CD =  0.00526   =>   CDf =  0.00358    CDp =  0.00167

 Side 1  free  transition at x/c =  0.9161   75
 Side 2  free  transition at x/c =  0.8809   72

  53   rms: 0.7943E+00   max: -.1293E+02   C at   72  2   RLX: 0.039
       a =  0.000      CL =  0.3750
      Cm = -0.0960     CD =  0.00525   =>   CDf =  0.00357    CDp =  0.00169

 Side 1  free  transition at x/c =  0.9163   75
 Side 2  free  transition at x/c =  0.9119   74

  54   rms: 0.2778E+01   max: 0.3987E+02   C at   74  2   RLX: 0.038
       a =  0.000      CL =  0.3676
      Cm = -0.0942     CD =  0.00527   =>   CDf =  0.00349    CDp =  0.00178

 Side 1  free  transition at x/c =  0.9154   74
 Side 2  free  transition at x/c =  0.8776   72

  55   rms: 0.1121E+01   max: -.1863E+02   C at   72  2   RLX: 0.027
       a =  0.000      CL =  0.3705
      Cm = -0.0949     CD =  0.00523   =>   CDf =  0.00358    CDp =  0.00166

 Side 1  free  transition at x/c =  0.9159   74
 Side 2  free  transition at x/c =  0.8941   73

  56   rms: 0.8339E+01   max: -.1313E+03   C at   73  2   RLX: 0.004
       a =  0.000      CL =  0.3732
      Cm = -0.0954     CD =  0.00520   =>   CDf =  0.00353    CDp =  0.00167

 Side 1  free  transition at x/c =  0.9168   75
 Side 2  free  transition at x/c =  0.9067   74

  57   rms: 0.4586E+01   max: 0.6940E+02   C at   74  2   RLX: 0.022
       a =  0.000      CL =  0.3656
      Cm = -0.0939     CD =  0.00524   =>   CDf =  0.00350    CDp =  0.00175

 Side 1  free  transition at x/c =  0.9158   74
 Side 2  free  transition at x/c =  0.8670   71

  58   rms: 0.7909E+00   max: -.1311E+02   C at   71  2   RLX: 0.038
       a =  0.000      CL =  0.3691
      Cm = -0.0946     CD =  0.00521   =>   CDf =  0.00360    CDp =  0.00161

 Side 1  free  transition at x/c =  0.9164   75
 Side 2  free  transition at x/c =  0.8937   73

  59   rms: 0.2679E+01   max: -.4220E+02   C at   73  2   RLX: 0.012
       a =  0.000      CL =  0.3718
      Cm = -0.0952     CD =  0.00516   =>   CDf =  0.00353    CDp =  0.00164

 Side 1  free  transition at x/c =  0.9166   75
 Side 2  free  transition at x/c =  0.9087   74

  60   rms: 0.2071E+01   max: 0.3028E+02   C at   74  2   RLX: 0.050
       a =  0.000      CL =  0.3635
      Cm = -0.0932     CD =  0.00521   =>   CDf =  0.00349    CDp =  0.00172

 Side 1  free  transition at x/c =  0.9155   74
 Side 2  free  transition at x/c =  0.8658   71

  61   rms: 0.1484E+01   max: -.2456E+02   C at   71  2   RLX: 0.020
       a =  0.000      CL =  0.3660
      Cm = -0.0938     CD =  0.00518   =>   CDf =  0.00360    CDp =  0.00159

 Side 1  free  transition at x/c =  0.9160   75
 Side 2  free  transition at x/c =  0.8680   71

  62   rms: 0.7077E+00   max: -.1158E+02   C at   71  2   RLX: 0.043
       a =  0.000      CL =  0.3695
      Cm = -0.0946     CD =  0.00519   =>   CDf =  0.00359    CDp =  0.00160

 Side 1  free  transition at x/c =  0.9162   75
 Side 2  free  transition at x/c =  0.9087   74

  63   rms: 0.1377E+01   max: 0.1973E+02   C at   74  2   RLX: 0.076
       a =  0.000      CL =  0.3613
      Cm = -0.0924     CD =  0.00518   =>   CDf =  0.00349    CDp =  0.00169

 Side 1  free  transition at x/c =  0.9150   74
 Side 2  free  transition at x/c =  0.8627   71

  64   rms: 0.1130E+01   max: -.1900E+02   C at   71  2   RLX: 0.026
       a =  0.000      CL =  0.3646
      Cm = -0.0933     CD =  0.00515   =>   CDf =  0.00361    CDp =  0.00154

 Side 1  free  transition at x/c =  0.9156   74
 Side 2  free  transition at x/c =  0.8790   72

  65   rms: 0.7881E+01   max: -.1278E+03   C at   72  2   RLX: 0.004
       a =  0.000      CL =  0.3670
      Cm = -0.0938     CD =  0.00512   =>   CDf =  0.00356    CDp =  0.00155

 Side 1  free  transition at x/c =  0.9165   75
 Side 2  free  transition at x/c =  0.8896   73

  66   rms: 0.7962E+01   max: -.1285E+03   C at   73  2   RLX: 0.004
       a =  0.000      CL =  0.3698
      Cm = -0.0945     CD =  0.00508   =>   CDf =  0.00353    CDp =  0.00155

 Side 1  free  transition at x/c =  0.9168   75
 Side 2  free  transition at x/c =  0.8998   74

  67   rms: 0.2567E+01   max: 0.4078E+02   C at   74  2   RLX: 0.037
       a =  0.000      CL =  0.3617
      Cm = -0.0928     CD =  0.00516   =>   CDf =  0.00350    CDp =  0.00166

 Side 1  free  transition at x/c =  0.9156   74
 Side 2  free  transition at x/c =  0.8597   71

  68   rms: 0.1006E+01   max: -.1727E+02   C at   71  2   RLX: 0.029
       a =  0.000      CL =  0.3652
      Cm = -0.0935     CD =  0.00511   =>   CDf =  0.00361    CDp =  0.00149

 Side 1  free  transition at x/c =  0.9164   75
 Side 2  free  transition at x/c =  0.8776   72

  69   rms: 0.2813E+01   max: -.4611E+02   C at   72  2   RLX: 0.011
       a =  0.000      CL =  0.3674
      Cm = -0.0941     CD =  0.00506   =>   CDf =  0.00356    CDp =  0.00150

 Side 1  free  transition at x/c =  0.9166   75
 Side 2  free  transition at x/c =  0.8836   72

  70   rms: 0.1811E+01   max: -.2843E+02   C at   72  2   RLX: 0.018
       a =  0.000      CL =  0.3704
      Cm = -0.0947     CD =  0.00507   =>   CDf =  0.00354    CDp =  0.00153

[...]
 MRCHDU: Convergence failed at  83  side 1    Res =  0.1989E+00
 MRCHDU: Convergence failed at  81  side 2    Res =  0.6780E-02
 Side 1  free  transition at x/c =  0.8323   73
 Side 2 forced transition at x/c =  1.0000   76

  40   rms: 0.1257E+09   max: 0.2579E+10   T at   90  2   RLX: 0.000
       a = 10.500      CL =  1.1567
      Cm = -0.2762     CD = 42.39759   =>   CDf =  0.00290    CDp = 42.39470

 MRCHDU: Convergence failed at  76  side 1    Res =  0.8877E-02
 MRCHDU: Convergence failed at  77  side 1    Res =  0.3977E+00
 MRCHDU: Convergence failed at  78  side 1    Res =  0.8261E+00
 MRCHDU: Convergence failed at  79  side 1    Res =  0.8266E+00
 MRCHDU: Convergence failed at  80  side 1    Res =  0.8271E+00
 MRCHDU: Convergence failed at  81  side 1    Res =  0.8276E+00
 MRCHDU: Convergence failed at  82  side 1    Res =  0.8282E+00
 MRCHDU: Convergence failed at  83  side 1    Res =  0.1989E+00
 MRCHDU: Convergence failed at  81  side 2    Res =  0.6791E-02
 Side 1  free  transition at x/c =  0.8323   73
 Side 2 forced transition at x/c =  1.0000   76

  41   rms: 0.4249E+08   max: 0.8700E+09   T at   90  2   RLX: 0.000
       a = 10.500      CL =  1.1567
      Cm = -0.2762     CD = 42.53942   =>   CDf =  0.00290    CDp = 42.53653

 MRCHDU: Convergence failed at  76  side 1    Res =  0.8875E-02
 MRCHDU: Convergence failed at  77  side 1    Res =  0.3977E+00
 MRCHDU: Convergence failed at  78  side 1    Res =  0.8261E+00
 MRCHDU: Convergence failed at  79  side 1    Res =  0.8266E+00
 MRCHDU: Convergence failed at  80  side 1    Res =  0.8271E+00
 MRCHDU: Convergence failed at  81  side 1    Res =  0.8276E+00
 MRCHDU: Convergence failed at  82  side 1    Res =  0.8282E+00
 MRCHDU: Convergence failed at  83  side 1    Res =  0.1989E+00
 MRCHDU: Convergence failed at  81  side 2    Res =  0.6823E-02
 Side 1  free  transition at x/c =  0.8323   73
 Side 2 forced transition at x/c =  1.0000   76

  42   rms: 0.1487E+08   max: 0.3023E+09   T at   90  2   RLX: 0.000
       a = 10.500      CL =  1.1567
      Cm = -0.2762     CD = 42.94892   =>   CDf =  0.00290    CDp = 42.94602

 MRCHDU: Convergence failed at  76  side 1    Res =  0.8872E-02
 MRCHDU: Convergence failed at  77  side 1    Res =  0.3977E+00
 MRCHDU: Convergence failed at  78  side 1    Res =  0.8261E+00
 MRCHDU: Convergence failed at  79  side 1    Res =  0.8266E+00
 MRCHDU: Convergence failed at  80  side 1    Res =  0.8271E+00
 MRCHDU: Convergence failed at  81  side 1    Res =  0.8276E+00
 MRCHDU: Convergence failed at  82  side 1    Res =  0.8282E+00
 MRCHDU: Convergence failed at  83  side 1    Res =  0.1989E+00
 MRCHDU: Convergence failed at  81  side 2    Res =  0.6914E-02
 Side 1  free  transition at x/c =  0.8323   73
 Side 2 forced transition at x/c =  1.0000   76

  43   rms: 0.1805E+08   max: -.3600E+09   T at   90  2   RLX: 0.000
       a = 10.500      CL =  1.1567
      Cm = -0.2762     CD = 42.61576   =>   CDf =  0.00290    CDp = 42.61286

 MRCHDU: Convergence failed at  76  side 1    Res =  0.8874E-02
 MRCHDU: Convergence failed at  77  side 1    Res =  0.3977E+00
 MRCHDU: Convergence failed at  78  side 1    Res =  0.8261E+00
 MRCHDU: Convergence failed at  79  side 1    Res =  0.8266E+00
 MRCHDU: Convergence failed at  80  side 1    Res =  0.8271E+00
 MRCHDU: Convergence failed at  81  side 1    Res =  0.8276E+00
 MRCHDU: Convergence failed at  82  side 1    Res =  0.8282E+00
 MRCHDU: Convergence failed at  83  side 1    Res =  0.1988E+00
 MRCHDU: Convergence failed at  81  side 2    Res =  0.6841E-02
 Side 1  free  transition at x/c =  0.8323   73
 Side 2 forced transition at x/c =  1.0000   76

  44   rms: 0.8677E+07   max: 0.1756E+09   T at   90  2   RLX: 0.000
       a = 10.500      CL =  1.1567
      Cm = -0.2762     CD = 43.31974   =>   CDf =  0.00290    CDp = 43.31684

 MRCHDU: Convergence failed at  76  side 1    Res =  0.8868E-02
 MRCHDU: Convergence failed at  77  side 1    Res =  0.3977E+00
 MRCHDU: Convergence failed at  78  side 1    Res =  0.8261E+00
 MRCHDU: Convergence failed at  79  side 1    Res =  0.8266E+00
 MRCHDU: Convergence failed at  80  side 1    Res =  0.8271E+00
 MRCHDU: Convergence failed at  81  side 1    Res =  0.8276E+00
 MRCHDU: Convergence failed at  82  side 1    Res =  0.8282E+00
 MRCHDU: Convergence failed at  83  side 1    Res =  0.1989E+00
 MRCHDU: Convergence failed at  81  side 2    Res =  0.6997E-02
 Side 1  free  transition at x/c =  0.8323   73
 Side 2 forced transition at x/c =  1.0000   76

  45   rms: 0.1155E+08   max: 0.2262E+09   T at   90  2   RLX: 0.000
       a = 10.500      CL =  1.1568
      Cm = -0.2762     CD = 43.86469   =>   CDf =  0.00290    CDp = 43.86179

 MRCHDU: Convergence failed at  76  side 1    Res =  0.8866E-02
 MRCHDU: Convergence failed at  77  side 1    Res =  0.3977E+00
 MRCHDU: Convergence failed at  78  side 1    Res =  0.8261E+00
 MRCHDU: Convergence failed at  79  side 1    Res =  0.8266E+00
 MRCHDU: Convergence failed at  80  side 1    Res =  0.8271E+00
 MRCHDU: Convergence failed at  81  side 1    Res =  0.8276E+00
 MRCHDU: Convergence failed at  82  side 1    Res =  0.8282E+00
 MRCHDU: Convergence failed at  83  side 1    Res =  0.1989E+00
 MRCHDU: Convergence failed at  81  side 2    Res =  0.7109E-02
 Side 1  free  transition at x/c =  0.8323   73
 Side 2 forced transition at x/c =  1.0000   76

  46   rms: 0.1311E+07   max: 0.2496E+08   T at   90  2   RLX: 0.000
       a = 10.500      CL =  1.1570
      Cm = -0.2763     CD = 49.06000   =>   CDf =  0.00290    CDp = 49.05710

 MRCHDU: Convergence failed at  76  side 1    Res =  0.8833E-02
 MRCHDU: Convergence failed at  77  side 1    Res =  0.3977E+00
 MRCHDU: Convergence failed at  78  side 1    Res =  0.8262E+00
 MRCHDU: Convergence failed at  79  side 1    Res =  0.8265E+00
 MRCHDU: Convergence failed at  80  side 1    Res =  0.8272E+00
 MRCHDU: Convergence failed at  81  side 1    Res =  0.8275E+00
 MRCHDU: Convergence failed at  82  side 1    Res =  0.8283E+00
 MRCHDU: Convergence failed at  83  side 1    Res =  0.1994E+00
 MRCHDU: Convergence failed at  81  side 2    Res =  0.8067E-02
 Side 1  free  transition at x/c =  0.8323   73
 Side 2 forced transition at x/c =  1.0000   76

  47   rms: 0.1449E+07   max: -.2296E+08   T at   90  2   RLX: 0.000
       a = 10.500      CL =  1.1568
      Cm = -0.2763     CD = 42.91206   =>   CDf =  0.00290    CDp = 42.90916

 MRCHDU: Convergence failed at  76  side 1    Res =  0.8859E-02
 MRCHDU: Convergence failed at  77  side 1    Res =  0.3978E+00
 MRCHDU: Convergence failed at  78  side 1    Res =  0.8261E+00
 MRCHDU: Convergence failed at  79  side 1    Res =  0.8267E+00
 MRCHDU: Convergence failed at  80  side 1    Res =  0.8271E+00
 MRCHDU: Convergence failed at  81  side 1    Res =  0.8277E+00
 MRCHDU: Convergence failed at  82  side 1    Res =  0.8281E+00
 MRCHDU: Convergence failed at  83  side 1    Res =  0.1984E+00
 MRCHDU: Convergence failed at  81  side 2    Res =  0.7349E-02
 Side 1  free  transition at x/c =  0.8323   73
 Side 2 forced transition at x/c =  1.0000   76

  48   rms: 0.9288E+08   max: -.1709E+10   T at   90  2   RLX: 0.000
       a = 10.500      CL =  1.1568
      Cm = -0.2763     CD = 43.01400   =>   CDf =  0.00290    CDp = 43.01110

 MRCHDU: Convergence failed at  76  side 1    Res =  0.8859E-02
 MRCHDU: Convergence failed at  77  side 1    Res =  0.3977E+00
 MRCHDU: Convergence failed at  78  side 1    Res =  0.8261E+00
 MRCHDU: Convergence failed at  79  side 1    Res =  0.8266E+00
 MRCHDU: Convergence failed at  80  side 1    Res =  0.8271E+00
 MRCHDU: Convergence failed at  81  side 1    Res =  0.8276E+00
 MRCHDU: Convergence failed at  82  side 1    Res =  0.8282E+00
 MRCHDU: Convergence failed at  83  side 1    Res =  0.1989E+00
 MRCHDU: Convergence failed at  81  side 2    Res =  0.7332E-02
 Side 1  free  transition at x/c =  0.8323   73
 Side 2 forced transition at x/c =  1.0000   76

  49   rms: 0.1827E+09   max: -.3369E+10   T at   90  2   RLX: 0.000
       a = 10.500      CL =  1.1568
      Cm = -0.2763     CD = 42.97711   =>   CDf =  0.00290    CDp = 42.97421

 MRCHDU: Convergence failed at  76  side 1    Res =  0.8859E-02
 MRCHDU: Convergence failed at  77  side 1    Res =  0.3977E+00
 MRCHDU: Convergence failed at  78  side 1    Res =  0.8261E+00
 MRCHDU: Convergence failed at  79  side 1    Res =  0.8266E+00
 MRCHDU: Convergence failed at  80  side 1    Res =  0.8271E+00
 MRCHDU: Convergence failed at  81  side 1    Res =  0.8276E+00
 MRCHDU: Convergence failed at  82  side 1    Res =  0.8282E+00
 MRCHDU: Convergence failed at  83  side 1    Res =  0.1989E+00
 MRCHDU: Convergence failed at  81  side 2    Res =  0.7324E-02
 Side 1  free  transition at x/c =  0.8323   73
 Side 2 forced transition at x/c =  1.0000   76

  50   rms: 0.9180E+08   max: 0.1695E+10   T at   90  2   RLX: 0.000
       a = 10.500      CL =  1.1568
      Cm = -0.2763     CD = 43.04821   =>   CDf =  0.00290    CDp = 43.04531

 MRCHDU: Convergence failed at  76  side 1    Res =  0.8859E-02
 MRCHDU: Convergence failed at  77  side 1    Res =  0.3977E+00
 MRCHDU: Convergence failed at  78  side 1    Res =  0.8261E+00
 MRCHDU: Convergence failed at  79  side 1    Res =  0.8266E+00
 MRCHDU: Convergence failed at  80  side 1    Res =  0.8271E+00
 MRCHDU: Convergence failed at  81  side 1    Res =  0.8276E+00
 MRCHDU: Convergence failed at  82  side 1    Res =  0.8282E+00
 MRCHDU: Convergence failed at  83  side 1    Res =  0.1989E+00
 MRCHDU: Convergence failed at  81  side 2    Res =  0.7341E-02
 Side 1  free  transition at x/c =  0.8323   73
 Side 2 forced transition at x/c =  1.0000   76

  51   rms: 0.7548E+08   max: 0.1391E+10   T at   90  2   RLX: 0.000
       a = 10.500      CL =  1.1568
      Cm = -0.2763     CD = 43.13544   =>   CDf =  0.00290    CDp = 43.13254

 MRCHDU: Convergence failed at  76  side 1    Res =  0.8857E-02
 MRCHDU: Convergence failed at  77  side 1    Res =  0.3977E+00
 MRCHDU: Convergence failed at  78  side 1    Res =  0.8261E+00
 MRCHDU: Convergence failed at  79  side 1    Res =  0.8266E+00
 MRCHDU: Convergence failed at  80  side 1    Res =  0.8271E+00
 MRCHDU: Convergence failed at  81  side 1    Res =  0.8276E+00
 MRCHDU: Convergence failed at  82  side 1    Res =  0.8282E+00
 MRCHDU: Convergence failed at  83  side 1    Res =  0.1989E+00
 MRCHDU: Convergence failed at  81  side 2    Res =  0.7361E-02
 Side 1  free  transition at x/c =  0.8323   73
 Side 2 forced transition at x/c =  1.0000   76

  52   rms: 0.8779E+07   max: 0.1609E+09   T at   90  2   RLX: 0.000
       a = 10.500      CL =  1.1569
      Cm = -0.2763     CD = 43.89259   =>   CDf =  0.00290    CDp = 43.88969

 MRCHDU: Convergence failed at  76  side 1    Res =  0.8852E-02
 MRCHDU: Convergence failed at  77  side 1    Res =  0.3977E+00
 MRCHDU: Convergence failed at  78  side 1    Res =  0.8261E+00
 MRCHDU: Convergence failed at  79  side 1    Res =  0.8266E+00
 MRCHDU: Convergence failed at  80  side 1    Res =  0.8271E+00
 MRCHDU: Convergence failed at  81  side 1    Res =  0.8276E+00
 MRCHDU: Convergence failed at  82  side 1    Res =  0.8282E+00
 MRCHDU: Convergence failed at  83  side 1    Res =  0.1990E+00
 MRCHDU: Convergence failed at  81  side 2    Res =  0.7530E-02
 Side 1  free  transition at x/c =  0.8323   73
 Side 2 forced transition at x/c =  1.0000   76

  53   rms: 0.3551E+07   max: 0.6255E+08   T at   90  2   RLX: 0.000
       a = 10.500      CL =  1.1570
      Cm = -0.2763     CD = 45.88104   =>   CDf =  0.00290    CDp = 45.87814

 MRCHDU: Convergence failed at  76  side 1    Res =  0.8839E-02
 MRCHDU: Convergence failed at  77  side 1    Res =  0.3977E+00
 MRCHDU: Convergence failed at  78  side 1    Res =  0.8262E+00
 MRCHDU: Convergence failed at  79  side 1    Res =  0.8266E+00
 MRCHDU: Convergence failed at  80  side 1    Res =  0.8271E+00
 MRCHDU: Convergence failed at  81  side 1    Res =  0.8276E+00
 MRCHDU: Convergence failed at  82  side 1    Res =  0.8283E+00
 MRCHDU: Convergence failed at  83  side 1    Res =  0.1991E+00
 MRCHDU: Convergence failed at  81  side 2    Res =  0.7935E-02
 Side 1  free  transition at x/c =  0.8323   73
 Side 2 forced transition at x/c =  1.0000   76

  54   rms: 0.1539E+07   max: 0.2478E+08   T at   90  2   RLX: 0.000
       a = 10.500      CL =  1.1572
      Cm = -0.2764     CD = 51.22410   =>   CDf =  0.00290    CDp = 51.22120

 MRCHDU: Convergence failed at  76  side 1    Res =  0.8809E-02
 MRCHDU: Convergence failed at  77  side 1    Res =  0.3977E+00
 MRCHDU: Convergence failed at  78  side 1    Res =  0.8262E+00
 MRCHDU: Convergence failed at  79  side 1    Res =  0.8266E+00
 MRCHDU: Convergence failed at  80  side 1    Res =  0.8272E+00
 MRCHDU: Convergence failed at  81  side 1    Res =  0.8275E+00
 MRCHDU: Convergence failed at  82  side 1    Res =  0.8284E+00
 MRCHDU: Convergence failed at  83  side 1    Res =  0.1994E+00
 MRCHDU: Convergence failed at  81  side 2    Res =  0.8777E-02
 Side 1  free  transition at x/c =  0.8323   73
 Side 2 forced transition at x/c =  1.0000   76

  55   rms: 0.4224E+07   max: 0.5579E+08   T at   90  2   RLX: 0.000
       a = 10.500      CL =  1.1573
      Cm = -0.2764     CD = 54.34074   =>   CDf =  0.00290    CDp = 54.33784

 MRCHDU: Convergence failed at  76  side 1    Res =  0.8796E-02
 MRCHDU: Convergence failed at  77  side 1    Res =  0.3978E+00
 MRCHDU: Convergence failed at  78  side 1    Res =  0.8262E+00
 MRCHDU: Convergence failed at  79  side 1    Res =  0.8266E+00
 MRCHDU: Convergence failed at  80  side 1    Res =  0.8272E+00
 MRCHDU: Convergence failed at  81  side 1    Res =  0.8276E+00
 MRCHDU: Convergence failed at  82  side 1    Res =  0.8283E+00
 MRCHDU: Convergence failed at  83  side 1    Res =  0.1990E+00
 MRCHDU: Convergence failed at  81  side 2    Res =  0.9047E-02
 Side 1  free  transition at x/c =  0.8323   73
 Side 2 forced transition at x/c =  1.0000   76

  56   rms: 0.8841E+06   max: -.1102E+08   T at   90  2   RLX: 0.000
       a = 10.500      CL =  1.1570
      Cm = -0.2763     CD = 45.61939   =>   CDf =  0.00290    CDp = 45.61649

 MRCHDU: Convergence failed at  76  side 1    Res =  0.8829E-02
 MRCHDU: Convergence failed at  77  side 1    Res =  0.3978E+00
 MRCHDU: Convergence failed at  78  side 1    Res =  0.8261E+00
 MRCHDU: Convergence failed at  79  side 1    Res =  0.8267E+00
 MRCHDU: Convergence failed at  80  side 1    Res =  0.8271E+00
 MRCHDU: Convergence failed at  81  side 1    Res =  0.8278E+00
 MRCHDU: Convergence failed at  82  side 1    Res =  0.8281E+00
 MRCHDU: Convergence failed at  83  side 1    Res =  0.1980E+00
 MRCHDU: Convergence failed at  81  side 2    Res =  0.8184E-02
 Side 1  free  transition at x/c =  0.8323   73
 Side 2 forced transition at x/c =  1.0000   76

  57   rms: 0.1038E+08   max: -.1563E+09   T at   90  2   RLX: 0.000
       a = 10.500      CL =  1.1570
      Cm = -0.2763     CD = 47.14143   =>   CDf =  0.00290    CDp = 47.13853

 MRCHDU: Convergence failed at  73  side 1    Res =  0.1030E-04
 MRCHDU: Convergence failed at  76  side 1    Res =  0.8837E-02
 MRCHDU: Convergence failed at  77  side 1    Res =  0.3977E+00
 MRCHDU: Convergence failed at  78  side 1    Res =  0.8261E+00
 MRCHDU: Convergence failed at  79  side 1    Res =  0.8266E+00
 MRCHDU: Convergence failed at  80  side 1    Res =  0.8271E+00
 MRCHDU: Convergence failed at  81  side 1    Res =  0.8277E+00
 MRCHDU: Convergence failed at  82  side 1    Res =  0.8282E+00
 MRCHDU: Convergence failed at  83  side 1    Res =  0.1988E+00
 MRCHDU: Convergence failed at  81  side 2    Res =  0.8030E-02
 Side 1  free  transition at x/c =  0.8323   73
 Side 2 forced transition at x/c =  1.0000   76

  58   rms: 0.2290E+08   max: 0.3561E+09   T at   90  2   RLX: 0.000
       a = 10.500      CL =  1.1570
      Cm = -0.2763     CD = 47.50866   =>   CDf =  0.00290    CDp = 47.50576

 MRCHDU: Convergence failed at  76  side 1    Res =  0.8833E-02
 MRCHDU: Convergence failed at  77  side 1    Res =  0.3977E+00
 MRCHDU: Convergence failed at  78  side 1    Res =  0.8262E+00
 MRCHDU: Convergence failed at  79  side 1    Res =  0.8266E+00
 MRCHDU: Convergence failed at  80  side 1    Res =  0.8271E+00
 MRCHDU: Convergence failed at  81  side 1    Res =  0.8276E+00
 MRCHDU: Convergence failed at  82  side 1    Res =  0.8282E+00
 MRCHDU: Convergence failed at  83  side 1    Res =  0.1989E+00
 MRCHDU: Convergence failed at  81  side 2    Res =  0.8102E-02
 Side 1  free  transition at x/c =  0.8323   73
 Side 2 forced transition at x/c =  1.0000   76

  59   rms: 0.1500E+08   max: 0.2294E+09   T at   90  2   RLX: 0.000
       a = 10.500      CL =  1.1571
      Cm = -0.2763     CD = 48.08101   =>   CDf =  0.00290    CDp = 48.07811

 MRCHDU: Convergence failed at  76  side 1    Res =  0.8832E-02
 MRCHDU: Convergence failed at  77  side 1    Res =  0.3977E+00
 MRCHDU: Convergence failed at  78  side 1    Res =  0.8262E+00
 MRCHDU: Convergence failed at  79  side 1    Res =  0.8266E+00
 MRCHDU: Convergence failed at  80  side 1    Res =  0.8271E+00
 MRCHDU: Convergence failed at  81  side 1    Res =  0.8276E+00
 MRCHDU: Convergence failed at  82  side 1    Res =  0.8282E+00
 MRCHDU: Convergence failed at  83  side 1    Res =  0.1989E+00
 MRCHDU: Convergence failed at  81  side 2    Res =  0.8210E-02
 Side 1  free  transition at x/c =  0.8323   73
 Side 2 forced transition at x/c =  1.0000   76

  60   rms: 0.4229E+07   max: 0.6312E+08   T at   90  2   RLX: 0.000
       a = 10.500      CL =  1.1571
      Cm = -0.2764     CD = 50.19639   =>   CDf =  0.00290    CDp = 50.19349

 MRCHDU: Convergence failed at  76  side 1    Res =  0.8819E-02
 MRCHDU: Convergence failed at  77  side 1    Res =  0.3977E+00
 MRCHDU: Convergence failed at  78  side 1    Res =  0.8262E+00
 MRCHDU: Convergence failed at  79  side 1    Res =  0.8266E+00
 MRCHDU: Convergence failed at  80  side 1    Res =  0.8272E+00
 MRCHDU: Convergence failed at  81  side 1    Res =  0.8276E+00
 MRCHDU: Convergence failed at  82  side 1    Res =  0.8283E+00
 MRCHDU: Convergence failed at  83  side 1    Res =  0.1991E+00
 MRCHDU: Convergence failed at  81  side 2    Res =  0.8581E-02
 Side 1  free  transition at x/c =  0.8323   73
 Side 2 forced transition at x/c =  1.0000   76

  61   rms: 0.9848E+06   max: 0.1342E+08   T at   90  2   RLX: 0.000
       a = 10.500      CL =  1.1576
      Cm = -0.2765     CD = 61.21470   =>   CDf =  0.00290    CDp = 61.21180

 MRCHDU: Convergence failed at  76  side 1    Res =  0.8762E-02
 MRCHDU: Convergence failed at  77  side 1    Res =  0.3977E+00
 MRCHDU: Convergence failed at  78  side 1    Res =  0.8263E+00
 MRCHDU: Convergence failed at  79  side 1    Res =  0.8265E+00
 MRCHDU: Convergence failed at  80  side 1    Res =  0.8273E+00
 MRCHDU: Convergence failed at  81  side 1    Res =  0.8275E+00
 MRCHDU: Convergence failed at  82  side 1    Res =  0.8285E+00
 MRCHDU: Convergence failed at  83  side 1    Res =  0.2000E+00
 MRCHDU: Convergence failed at  81  side 2    Res =  0.9889E-02
 Side 1  free  transition at x/c =  0.8323   73
 Side 2 forced transition at x/c =  1.0000   76

  62   rms: 0.5968E+06   max: -.5561E+07   C at   86  1   RLX: 0.000
       a = 10.500      CL =  1.1575
      Cm = -0.2765     CD = 56.69239   =>   CDf =  0.00290    CDp = 56.68949

 MRCHDU: Convergence failed at  76  side 1    Res =  0.8751E-02
 MRCHDU: Convergence failed at  77  side 1    Res =  0.3978E+00
 MRCHDU: Convergence failed at  78  side 1    Res =  0.8264E+00
 MRCHDU: Convergence failed at  79  side 1    Res =  0.8267E+00
 MRCHDU: Convergence failed at  80  side 1    Res =  0.8274E+00
 MRCHDU: Convergence failed at  81  side 1    Res =  0.8276E+00
 MRCHDU: Convergence failed at  82  side 1    Res =  0.8286E+00
 MRCHDU: Convergence failed at  83  side 1    Res =  0.1995E+00
 MRCHDU: Convergence failed at  81  side 2    Res =  0.9789E-02
 Side 1  free  transition at x/c =  0.8323   73
 Side 2 forced transition at x/c =  1.0000   76


[TIMEOUT]
