
 ===================================================
  XFOIL Version 6.99
  Copyright (C) 2000   Mark Drela, Harold Youngren

  This software comes with ABSOLUTELY NO WARRANTY,
    subject to the GNU General Public License.

  Caveat computor
 ===================================================

 File  xfoil.def  not found

   QUIT    Exit program

  .OPER    Direct operating point(s)
  .MDES    Complex mapping design routine
  .QDES    Surface speed design routine
  .GDES    Geometry design routine

   SAVE f  Write airfoil to labeled coordinate file
   PSAV f  Write airfoil to plain coordinate file
   ISAV f  Write airfoil to ISES coordinate file
   MSAV f  Write airfoil to MSES coordinate file
   REVE    Reverse written-airfoil node ordering

   LOAD f  Read buffer airfoil from coordinate file
   NACA i  Set NACA 4,5-digit airfoil and buffer airfoil
   INTE    Set buffer airfoil by interpolating two airfoils
   NORM    Buffer airfoil normalization toggle
   XYCM rr Change CM reference location, currently  0.25000 0.00000

   BEND    Display structural properties of current airfoil

   PCOP    Set current-airfoil panel nodes directly from buffer airfoil points
   PANE    Set current-airfoil panel nodes ( 160 ) based on curvature
  .PPAR    Show/change paneling

  .PLOP    Plotting options

   WDEF f  Write  current-settings file
   RDEF f  Reread current-settings file
   NAME s  Specify new airfoil name
   NINC    Increment name version number

   Z       Zoom    | (available in all menus)
   U       Unzoom  | 

 XFOIL   c>  
 Labeled airfoil file.  Name:  MARSKE MONARCH AIRFOIL (NACA 43012A)            

 Number of input coordinate points:  33
 Counterclockwise ordering
 Max thickness =     0.122157  at x =   0.201
 Max camber    =     0.026713  at x =   0.149

  LE  x,y  =  -0.00243   0.00840  |   Chord =   1.00246
  TE  x,y  =   1.00000   0.00000  |

 Current airfoil nodes set from buffer airfoil nodes (  33 )

 WARNING: Poor input coordinate distribution
          Excessive panel angle   74.2  at i =  17
          Repaneling with PANE and/or PPAR suggested
           (doing GDES,CADD before repaneling _may_
            improve excessively coarse LE spacing

 XFOIL   c>  
 XFOIL   c>  
 Sharp trailing edge

 Paneling parameters used...
   Number of panel nodes       160
   Panel bunching parameter    1.000
   TE/LE panel density ratio   0.150
   Refined-area/LE panel density ratio    0.200
   Top    side refined area x/c limits  1.000 1.000
   Bottom side refined area x/c limits  1.000 1.000

 XFOIL   c>  
.OPERi   c>  
 Xtr/c     =  1.0000    top    side
 Xtr/c     =  1.0000    bottom side
 Ncrit     =    9.00   ( 0.070 % turb. level )
 Vacc      =  0.0100

 Klag  =  5.6000     Uxwt  =    1.00
 A     =  6.7000     B     =  0.7500       KCt = 0.01485
 CtiniK=  1.8000     CtiniX=  3.3000

..VPAR   c>  
..VPAR   c>  
.OPERi   c>  
 M  =    0.0000
 Re =    600000

.OPERv   c>  
.OPERv   c>  
.OPERv   c>  
 Polar  1 newly created for accumulation
 Airfoil archived with polar: MARSKE MONARCH AIRFOIL (NACA 43012A)            

Enter  polar save filename  OR  <return> for no file   s>  
 New polar save file available

Enter  polar dump filename  OR  <return> for no file   s>  
 Polar dump file will NOT be written

 Polar accumulation enabled

.OPERva   c>   Calculating unit vorticity distributions ...
 Calculating wake trajectory ...
 Calculating source influence matrix ...

 Solving BL system ...

 Initializing BL ...
    side            1  ...
 MRCHUE: Inverse mode at  29     Hk =   4.940
 MRCHUE: Inverse mode at  30     Hk =   6.266
 MRCHUE: Inverse mode at  31     Hk =   7.571
 MRCHUE: Inverse mode at  32     Hk =   8.650
 MRCHUE: Inverse mode at  33     Hk =   2.619
 MRCHUE: Inverse mode at  74     Hk =   2.500
    side            2  ...
 MRCHUE: Inverse mode at  22     Hk =   4.166
 MRCHUE: Inverse mode at  23     Hk =   5.086
 MRCHUE: Inverse mode at  24     Hk =   5.984
 MRCHUE: Inverse mode at  25     Hk =   6.893
 MRCHUE: Inverse mode at  26     Hk =   7.846
 MRCHUE: Inverse mode at  27     Hk =   8.872
 MRCHUE: Inverse mode at  28     Hk =   9.923
 MRCHUE: Inverse mode at  29     Hk =   3.783
 MRCHUE: Inverse mode at  30     Hk =   2.500
 MRCHUE: Inverse mode at  87     Hk =   2.500
 MRCHUE: Inverse mode at  88     Hk =   2.500

 Side 1  free  transition at x/c =  0.2891   32
 Side 2  free  transition at x/c =  0.0364   29

   1   rms: 0.3055E+00   max: 0.1100E+01   T at   29  2   RLX: 0.551
       a = -4.000      CL = -0.2782
      Cm =  0.0091     CD =  0.01263   =>   CDf =  0.00846    CDp =  0.00417

 MRCHDU: Convergence failed at  34  side 1    Res =  0.2351E+01
 MRCHDU: Convergence failed at  28  side 2    Res =  0.1276E+02
 MRCHDU: Convergence failed at  29  side 2    Res =  0.2519E+02
 MRCHDU: Convergence failed at  30  side 2    Res =  0.1057E+02
 MRCHDU: Convergence failed at  31  side 2    Res =  0.3554E+02
 MRCHDU: Convergence failed at  32  side 2    Res =  0.1733E+02
 MRCHDU: Convergence failed at  33  side 2    Res =  0.2613E+02
 MRCHDU: Convergence failed at  34  side 2    Res =  0.2739E+02
 MRCHDU: Convergence failed at  35  side 2    Res =  0.4409E+02
 MRCHDU: Convergence failed at  36  side 2    Res =  0.6564E+02
 MRCHDU: Convergence failed at  37  side 2    Res =  0.9003E+02
 MRCHDU: Convergence failed at  38  side 2    Res =  0.1424E+03
 MRCHDU: Convergence failed at  39  side 2    Res =  0.3900E+04
 MRCHDU: Convergence failed at  40  side 2    Res =  0.1094E+03
 MRCHDU: Convergence failed at  41  side 2    Res =  0.1932E+03
 MRCHDU: Convergence failed at  42  side 2    Res =  0.5355E+03
 MRCHDU: Convergence failed at  43  side 2    Res =  0.3274E+03
 MRCHDU: Convergence failed at  44  side 2    Res =  0.4301E+02
 MRCHDU: Convergence failed at  45  side 2    Res =  0.8200E+02
 MRCHDU: Convergence failed at  46  side 2    Res =  0.1557E+03
 MRCHDU: Convergence failed at  47  side 2    Res =  0.1720E+03
 MRCHDU: Convergence failed at  48  side 2    Res =  0.4775E+02
 MRCHDU: Convergence failed at  49  side 2    Res =  0.4763E+02
 MRCHDU: Convergence failed at  50  side 2    Res =  0.4580E+02
 MRCHDU: Convergence failed at  51  side 2    Res =  0.4507E+02
 MRCHDU: Convergence failed at  52  side 2    Res =  0.1044E+03
 MRCHDU: Convergence failed at  53  side 2    Res =  0.4673E+02
 MRCHDU: Convergence failed at  54  side 2    Res =  0.5357E+02
 MRCHDU: Convergence failed at  55  side 2    Res =  0.5060E+02
 MRCHDU: Convergence failed at  56  side 2    Res =  0.3397E+02
 MRCHDU: Convergence failed at  57  side 2    Res =  0.5521E+02
 MRCHDU: Convergence failed at  58  side 2    Res =  0.3145E+02
 MRCHDU: Convergence failed at  59  side 2    Res =  0.5950E+02
 MRCHDU: Convergence failed at  60  side 2    Res =  0.6121E+02
 MRCHDU: Convergence failed at  61  side 2    Res =  0.2604E+02
 MRCHDU: Convergence failed at  62  side 2    Res =  0.6748E+02
 MRCHDU: Convergence failed at  63  side 2    Res =  0.2785E+02
 MRCHDU: Convergence failed at  64  side 2    Res =  0.4200E+02
 MRCHDU: Convergence failed at  65  side 2    Res =  0.6235E+02
 MRCHDU: Convergence failed at  66  side 2    Res =  0.4943E+02
 MRCHDU: Convergence failed at  67  side 2    Res =  0.7490E+02
 MRCHDU: Convergence failed at  68  side 2    Res =  0.1013E+03
 MRCHDU: Convergence failed at  69  side 2    Res =  0.8665E+02
 MRCHDU: Convergence failed at  70  side 2    Res =  0.1219E+04
 MRCHDU: Convergence failed at  71  side 2    Res =  0.1290E+03
 MRCHDU: Convergence failed at  72  side 2    Res =  0.4921E+02
 MRCHDU: Convergence failed at  73  side 2    Res =  0.5833E+02
 MRCHDU: Convergence failed at  74  side 2    Res =  0.3567E+02
 MRCHDU: Convergence failed at  75  side 2    Res =  0.3725E+02
 MRCHDU: Convergence failed at  76  side 2    Res =  0.4524E+02
 MRCHDU: Convergence failed at  77  side 2    Res =  0.1008E+03
 MRCHDU: Convergence failed at  78  side 2    Res =  0.1114E+03
 MRCHDU: Convergence failed at  79  side 2    Res =  0.2194E+03
 MRCHDU: Convergence failed at  80  side 2    Res =  0.2125E+03
 MRCHDU: Convergence failed at  81  side 2    Res =  0.3354E+03
 MRCHDU: Convergence failed at  82  side 2    Res =  0.4694E+03
 MRCHDU: Convergence failed at  83  side 2    Res =  0.7660E+02
 MRCHDU: Convergence failed at  84  side 2    Res =  0.5447E+02
 MRCHDU: Convergence failed at  85  side 2    Res =  0.4078E+02
 MRCHDU: Convergence failed at  86  side 2    Res =  0.7407E+02
 MRCHDU: Convergence failed at  87  side 2    Res =  0.6464E+03
 Side 1  free  transition at x/c =  0.3011   34
 Side 2  free  transition at x/c =  0.0353   27

   2   rms: 0.1086E+01   max: 0.4609E+01   D at   89  2   RLX: 0.325
       a = -4.000      CL = -1.0251
      Cm =  0.2645     CD =  0.00583   =>   CDf =  0.00371    CDp =  0.00212

 MRCHDU: Convergence failed at  88  side 2    Res =  0.1998E+02
 MRCHDU: Convergence failed at  89  side 2    Res =  0.6525E+01
 Side 1  free  transition at x/c =  0.2962   35
 Side 2  free  transition at x/c =  0.0363   26

   3   rms: 0.3795E+00   max: -.9961E+00   T at   27  2   RLX: 0.500
       a = -4.000      CL = -0.1913
      Cm =  0.0066     CD =  0.04380   =>   CDf =  0.00427    CDp =  0.03953

 Side 1  free  transition at x/c =  0.3042   35
 Side 2  free  transition at x/c =  0.0360   26

   4   rms: 0.4054E+00   max: -.1181E+01   D at   52  2   RLX: 0.423
       a = -4.000      CL = -0.1201
      Cm = -0.0319     CD =  0.04343   =>   CDf =  0.00448    CDp =  0.03895

 Side 1  free  transition at x/c =  0.3156   36
 Side 2  free  transition at x/c =  0.0347   26

   5   rms: 0.1138E+01   max: -.5338E+01   C at   36  1   RLX: 0.094
       a = -4.000      CL = -0.1013
      Cm = -0.0558     CD =  0.04386   =>   CDf =  0.00430    CDp =  0.03956

 Side 1  free  transition at x/c =  0.3254   36
 Side 2  free  transition at x/c =  0.0334   26
 idif Ue xi dudx           1  0.15967853      4.61590290E-03   34.593132    
 Uenew xinew           2  5.82778640E-02  1.68466568E-03

   6   rms: 0.1579E+02   max: -.4299E+02   D at   52  2   RLX: 0.012
       a = -4.000      CL = -0.1309
      Cm = -0.0757     CD =  0.03302   =>   CDf =  0.00414    CDp =  0.02888

 Side 1  free  transition at x/c =  0.3441   36
 Side 2  free  transition at x/c =  0.0322   27
 idif Ue xi dudx           1  0.11836903      3.49438190E-03   33.874096    
 Uenew xinew           2  1.13753472E-02  3.35812569E-04

   7   rms: 0.8230E+01   max: -.2969E+02   D at   91  2   RLX: 0.017
       a = -4.000      CL = -0.1826
      Cm = -0.0807     CD =  0.03040   =>   CDf =  0.00420    CDp =  0.02620

 Side 1  free  transition at x/c =  0.3596   36
 Side 2  free  transition at x/c =  0.0316   28

   8   rms: 0.2758E+01   max: -.1238E+02   D at   92  2   RLX: 0.040
       a = -4.000      CL = -0.2357
      Cm = -0.0769     CD =  0.02661   =>   CDf =  0.00434    CDp =  0.02227

 Side 1  free  transition at x/c =  0.3728   37
 Side 2  free  transition at x/c =  0.0311   27

   9   rms: 0.2159E+01   max: -.2179E+02   C at   37  1   RLX: 0.023
       a = -4.000      CL = -0.2595
      Cm = -0.0744     CD =  0.02532   =>   CDf =  0.00444    CDp =  0.02088

 MRCHDU: Convergence failed at  92  side 2    Res =  0.1414E-01
 Side 1  free  transition at x/c =  0.3790   37
 Side 2  free  transition at x/c =  0.0309   27

  10   rms: 0.2414E+01   max: -.3590E+02   C at   37  1   RLX: 0.014
       a = -4.000      CL = -0.2696
      Cm = -0.0729     CD =  0.02457   =>   CDf =  0.00446    CDp =  0.02010

 MRCHDU: Convergence failed at  92  side 2    Res =  0.5777E-01
 Side 1  free  transition at x/c =  0.3775   37
 Side 2  free  transition at x/c =  0.0307   27

  11   rms: 0.1613E+01   max: -.8441E+01   D at   92  2   RLX: 0.059
       a = -4.000      CL = -0.3072
      Cm = -0.0679     CD =  0.02108   =>   CDf =  0.00459    CDp =  0.01648

 MRCHDU: Convergence failed at  92  side 2    Res =  0.1648E+00
 Side 1  free  transition at x/c =  0.3887   38
 Side 2  free  transition at x/c =  0.0301   27

  12   rms: 0.1462E+01   max: -.1612E+02   C at   38  1   RLX: 0.031
       a = -4.000      CL = -0.3237
      Cm = -0.0642     CD =  0.02307   =>   CDf =  0.00475    CDp =  0.01832

 Side 1  free  transition at x/c =  0.3962   38
 Side 2  free  transition at x/c =  0.0300   27

  13   rms: 0.1895E+01   max: -.3236E+02   C at   38  1   RLX: 0.015
       a = -4.000      CL = -0.3297
      Cm = -0.0627     CD =  0.02262   =>   CDf =  0.00479    CDp =  0.01783

 Side 1  free  transition at x/c =  0.3951   38
 Side 2  free  transition at x/c =  0.0299   27
 idif Ue xi dudx           1  0.12367218      4.02414799E-03   30.732513    
 Uenew xinew           2  1.89408176E-02  6.16312027E-04

  14   rms: 0.1089E+01   max: -.3909E+01   D at   93  2   RLX: 0.128
       a = -4.000      CL = -0.3797
      Cm = -0.0506     CD =  0.01860   =>   CDf =  0.00485    CDp =  0.01375

 MRCHDU: Convergence failed at  94  side 2    Res =  0.2261E-01
 Side 1  free  transition at x/c =  0.4167   39
 Side 2  free  transition at x/c =  0.0294   28

  15   rms: 0.8169E+00   max: -.5045E+01   C at   39  1   RLX: 0.099
       a = -4.000      CL = -0.3986
      Cm = -0.0409     CD =  0.01764   =>   CDf =  0.00532    CDp =  0.01232

 MRCHDU: Convergence failed at  94  side 2    Res =  0.2357E-01
 Side 1  free  transition at x/c =  0.5195   44
 Side 2  free  transition at x/c =  0.0296   28

  16   rms: 0.8017E+00   max: -.1091E+02   C at   44  1   RLX: 0.046
       a = -4.000      CL = -0.4009
      Cm = -0.0374     CD =  0.01694   =>   CDf =  0.00526    CDp =  0.01168

 MRCHDU: Convergence failed at  94  side 2    Res =  0.1504E-01
 Side 1  free  transition at x/c =  0.5578   46
 Side 2  free  transition at x/c =  0.0297   28

  17   rms: 0.7135E+00   max: -.8711E+01   C at   46  1   RLX: 0.057
       a = -4.000      CL = -0.4000
      Cm = -0.0343     CD =  0.01636   =>   CDf =  0.00526    CDp =  0.01110

 MRCHDU: Convergence failed at  94  side 2    Res =  0.6416E-03
 Side 1  free  transition at x/c =  0.5928   48
 Side 2  free  transition at x/c =  0.0299   28

  18   rms: 0.5630E+00   max: -.2508E+01   C at   48  1   RLX: 0.199
       a = -4.000      CL = -0.3920
      Cm = -0.0240     CD =  0.01487   =>   CDf =  0.00539    CDp =  0.00948

 Side 1  free  transition at x/c =  0.6416   52
 Side 2  free  transition at x/c =  0.0307   27

  19   rms: 0.4814E+00   max: -.1477E+01   D at   33  2   RLX: 0.338
       a = -4.000      CL = -0.3559
      Cm = -0.0127     CD =  0.01341   =>   CDf =  0.00564    CDp =  0.00777

 Side 1  free  transition at x/c =  0.6303   51
 Side 2  free  transition at x/c =  0.0325   28

  20   rms: 0.2565E+00   max: 0.9318E+00   D at   93  2   RLX: 0.537
       a = -4.000      CL = -0.3280
      Cm =  0.0034     CD =  0.01273   =>   CDf =  0.00646    CDp =  0.00627

 Side 1  free  transition at x/c =  0.5908   50
 Side 2  free  transition at x/c =  0.0331   27

  21   rms: 0.1439E+00   max: -.8708E+00   T at    2  1   RLX: 0.574
       a = -4.000      CL = -0.3034
      Cm =  0.0100     CD =  0.01338   =>   CDf =  0.00689    CDp =  0.00649

 Side 1  free  transition at x/c =  0.5587   48
 Side 2  free  transition at x/c =  0.0330   27

  22   rms: 0.6811E-01   max: 0.5074E+00   C at   48  1
       a = -4.000      CL = -0.2698
      Cm =  0.0119     CD =  0.01364   =>   CDf =  0.00721    CDp =  0.00643

 Side 1  free  transition at x/c =  0.5155   46
 Side 2  free  transition at x/c =  0.0332   27

  23   rms: 0.6786E-02   max: -.9342E-01   C at   46  1
       a = -4.000      CL = -0.2678
      Cm =  0.0115     CD =  0.01359   =>   CDf =  0.00751    CDp =  0.00608

 Side 1  free  transition at x/c =  0.5168   46
 Side 2  free  transition at x/c =  0.0333   27

  24   rms: 0.2789E-03   max: 0.5751E-02   C at   46  1
       a = -4.000      CL = -0.2678
      Cm =  0.0115     CD =  0.01359   =>   CDf =  0.00750    CDp =  0.00609

 Side 1  free  transition at x/c =  0.5166   46
 Side 2  free  transition at x/c =  0.0333   27

  25   rms: 0.9816E-06   max: -.5543E-05   C at   46  1
       a = -4.000      CL = -0.2678
      Cm =  0.0115     CD =  0.01359   =>   CDf =  0.00750    CDp =  0.00609
 plradd ia,ip,cpol            1           0  9.52677394E-04

 Point added to stored polar  1
 Point written to save file  marske5_Re600k.base.pol                         
 Dump file unspecified or not available
 Calculating wake trajectory ...
 Calculating source influence matrix ...

 Solving BL system ...

 Side 1  free  transition at x/c =  0.5166   46
 Side 2  free  transition at x/c =  0.0333   27

   1   rms: 0.2111E+00   max: 0.4196E+01   C at   46  1   RLX: 0.357
       a = -3.500      CL = -0.2514
      Cm =  0.0124     CD =  0.01351   =>   CDf =  0.00759    CDp =  0.00592

 Side 1  free  transition at x/c =  0.4498   43
 Side 2  free  transition at x/c =  0.0342   26

   2   rms: 0.1725E+00   max: 0.2725E+01   C at   43  1   RLX: 0.274
       a = -3.500      CL = -0.2437
      Cm =  0.0129     CD =  0.01359   =>   CDf =  0.00775    CDp =  0.00584

 Side 1  free  transition at x/c =  0.4090   41
 Side 2  free  transition at x/c =  0.0347   26

   3   rms: 0.1241E+00   max: 0.2613E+01   C at   41  1   RLX: 0.574
       a = -3.500      CL = -0.2322
      Cm =  0.0136     CD =  0.01366   =>   CDf =  0.00790    CDp =  0.00577

 Side 1  free  transition at x/c =  0.3611   38
 Side 2  free  transition at x/c =  0.0354   26

   4   rms: 0.2792E-01   max: 0.4804E+00   C at   38  1
       a = -3.500      CL = -0.2229
      Cm =  0.0141     CD =  0.01365   =>   CDf =  0.00810    CDp =  0.00555

 Side 1  free  transition at x/c =  0.3424   37
 Side 2  free  transition at x/c =  0.0359   26

   5   rms: 0.4995E-02   max: -.1126E+00   C at   37  1
       a = -3.500      CL = -0.2231
      Cm =  0.0141     CD =  0.01369   =>   CDf =  0.00820    CDp =  0.00549

 Side 1  free  transition at x/c =  0.3429   37
 Side 2  free  transition at x/c =  0.0359   26

   6   rms: 0.8011E-02   max: -.1799E+00   C at   37  1
       a = -3.500      CL = -0.2232
      Cm =  0.0141     CD =  0.01369   =>   CDf =  0.00820    CDp =  0.00548

 Side 1  free  transition at x/c =  0.3431   37
 Side 2  free  transition at x/c =  0.0359   26

   7   rms: 0.7916E-02   max: -.1776E+00   C at   37  1
       a = -3.500      CL = -0.2231
      Cm =  0.0141     CD =  0.01369   =>   CDf =  0.00820    CDp =  0.00548

 Side 1  free  transition at x/c =  0.3431   37
 Side 2  free  transition at x/c =  0.0359   26

   8   rms: 0.7941E-02   max: -.1782E+00   C at   37  1
       a = -3.500      CL = -0.2232
      Cm =  0.0141     CD =  0.01369   =>   CDf =  0.00820    CDp =  0.00548

 Side 1  free  transition at x/c =  0.3431   37
 Side 2  free  transition at x/c =  0.0359   26

   9   rms: 0.7938E-02   max: -.1781E+00   C at   37  1
       a = -3.500      CL = -0.2232
      Cm =  0.0141     CD =  0.01369   =>   CDf =  0.00820    CDp =  0.00548

 Side 1  free  transition at x/c =  0.3431   37
 Side 2  free  transition at x/c =  0.0359   26

  10   rms: 0.7939E-02   max: -.1782E+00   C at   37  1
       a = -3.500      CL = -0.2232
      Cm =  0.0141     CD =  0.01369   =>   CDf =  0.00820    CDp =  0.00548

 Side 1  free  transition at x/c =  0.3431   37
 Side 2  free  transition at x/c =  0.0359   26

  11   rms: 0.7939E-02   max: -.1782E+00   C at   37  1
       a = -3.500      CL = -0.2232
      Cm =  0.0141     CD =  0.01369   =>   CDf =  0.00820    CDp =  0.00548

 Side 1  free  transition at x/c =  0.3431   37
 Side 2  free  transition at x/c =  0.0359   26

  12   rms: 0.7938E-02   max: -.1781E+00   C at   37  1
       a = -3.500      CL = -0.2232
      Cm =  0.0141     CD =  0.01369   =>   CDf =  0.00820    CDp =  0.00548

 Side 1  free  transition at x/c =  0.3431   37
 Side 2  free  transition at x/c =  0.0359   26

  13   rms: 0.7939E-02   max: -.1782E+00   C at   37  1
       a = -3.500      CL = -0.2232
      Cm =  0.0141     CD =  0.01369   =>   CDf =  0.00820    CDp =  0.00548

 Side 1  free  transition at x/c =  0.3431   37
 Side 2  free  transition at x/c =  0.0359   26

  14   rms: 0.7939E-02   max: -.1782E+00   C at   37  1
       a = -3.500      CL = -0.2232
      Cm =  0.0141     CD =  0.01369   =>   CDf =  0.00820    CDp =  0.00548

 Side 1  free  transition at x/c =  0.3431   37
 Side 2  free  transition at x/c =  0.0359   26

  15   rms: 0.7939E-02   max: -.1782E+00   C at   37  1
       a = -3.500      CL = -0.2232
      Cm =  0.0141     CD =  0.01369   =>   CDf =  0.00820    CDp =  0.00548

 Side 1  free  transition at x/c =  0.3431   37
 Side 2  free  transition at x/c =  0.0359   26

  16   rms: 0.7939E-02   max: -.1782E+00   C at   37  1
       a = -3.500      CL = -0.2232
      Cm =  0.0141     CD =  0.01369   =>   CDf =  0.00820    CDp =  0.00548

 Side 1  free  transition at x/c =  0.3431   37
 Side 2  free  transition at x/c =  0.0359   26

  17   rms: 0.7939E-02   max: -.1782E+00   C at   37  1
       a = -3.500      CL = -0.2232
      Cm =  0.0141     CD =  0.01369   =>   CDf =  0.00820    CDp =  0.00548

 Side 1  free  transition at x/c =  0.3431   37
 Side 2  free  transition at x/c =  0.0359   26

  18   rms: 0.7939E-02   max: -.1782E+00   C at   37  1
       a = -3.500      CL = -0.2232
      Cm =  0.0141     CD =  0.01369   =>   CDf =  0.00820    CDp =  0.00548

 Side 1  free  transition at x/c =  0.3431   37
 Side 2  free  transition at x/c =  0.0359   26

  19   rms: 0.7939E-02   max: -.1782E+00   C at   37  1
       a = -3.500      CL = -0.2232
      Cm =  0.0141     CD =  0.01369   =>   CDf =  0.00820    CDp =  0.00548

 Side 1  free  transition at x/c =  0.3431   37
 Side 2  free  transition at x/c =  0.0359   26

  20   rms: 0.7939E-02   max: -.1782E+00   C at   37  1
       a = -3.500      CL = -0.2232
      Cm =  0.0141     CD =  0.01369   =>   CDf =  0.00820    CDp =  0.00548

 Side 1  free  transition at x/c =  0.3431   37
 Side 2  free  transition at x/c =  0.0359   26

  21   rms: 0.7939E-02   max: -.1782E+00   C at   37  1
       a = -3.500      CL = -0.2232
      Cm =  0.0141     CD =  0.01369   =>   CDf =  0.00820    CDp =  0.00548

 Side 1  free  transition at x/c =  0.3431   37
 Side 2  free  transition at x/c =  0.0359   26

  22   rms: 0.7939E-02   max: -.1782E+00   C at   37  1
       a = -3.500      CL = -0.2232
      Cm =  0.0141     CD =  0.01369   =>   CDf =  0.00820    CDp =  0.00548

 Side 1  free  transition at x/c =  0.3431   37
 Side 2  free  transition at x/c =  0.0359   26

  23   rms: 0.7939E-02   max: -.1782E+00   C at   37  1
       a = -3.500      CL = -0.2232
      Cm =  0.0141     CD =  0.01369   =>   CDf =  0.00820    CDp =  0.00548

 Side 1  free  transition at x/c =  0.3431   37
 Side 2  free  transition at x/c =  0.0359   26

  24   rms: 0.7939E-02   max: -.1782E+00   C at   37  1
       a = -3.500      CL = -0.2232
      Cm =  0.0141     CD =  0.01369   =>   CDf =  0.00820    CDp =  0.00548

 Side 1  free  transition at x/c =  0.3431   37
 Side 2  free  transition at x/c =  0.0359   26

  25   rms: 0.7939E-02   max: -.1782E+00   C at   37  1
       a = -3.500      CL = -0.2232
      Cm =  0.0141     CD =  0.01369   =>   CDf =  0.00820    CDp =  0.00548

 Side 1  free  transition at x/c =  0.3431   37
 Side 2  free  transition at x/c =  0.0359   26

  26   rms: 0.7939E-02   max: -.1782E+00   C at   37  1
       a = -3.500      CL = -0.2232
      Cm =  0.0141     CD =  0.01369   =>   CDf =  0.00820    CDp =  0.00548

 Side 1  free  transition at x/c =  0.3431   37
 Side 2  free  transition at x/c =  0.0359   26

  27   rms: 0.7939E-02   max: -.1782E+00   C at   37  1
       a = -3.500      CL = -0.2232
      Cm =  0.0141     CD =  0.01369   =>   CDf =  0.00820    CDp =  0.00548

 Side 1  free  transition at x/c =  0.3431   37
 Side 2  free  transition at x/c =  0.0359   26

  28   rms: 0.7939E-02   max: -.1781E+00   C at   37  1
       a = -3.500      CL = -0.2232
      Cm =  0.0141     CD =  0.01369   =>   CDf =  0.00820    CDp =  0.00548

 Side 1  free  transition at x/c =  0.3431   37
 Side 2  free  transition at x/c =  0.0359   26

  29   rms: 0.7938E-02   max: -.1781E+00   C at   37  1
       a = -3.500      CL = -0.2232
      Cm =  0.0141     CD =  0.01369   =>   CDf =  0.00820    CDp =  0.00548

 Side 1  free  transition at x/c =  0.3431   37
 Side 2  free  transition at x/c =  0.0359   26

  30   rms: 0.7939E-02   max: -.1782E+00   C at   37  1
       a = -3.500      CL = -0.2232
      Cm =  0.0141     CD =  0.01369   =>   CDf =  0.00820    CDp =  0.00548

 Side 1  free  transition at x/c =  0.3431   37
 Side 2  free  transition at x/c =  0.0359   26

  31   rms: 0.7939E-02   max: -.1782E+00   C at   37  1
       a = -3.500      CL = -0.2232
      Cm =  0.0141     CD =  0.01369   =>   CDf =  0.00820    CDp =  0.00548

 Side 1  free  transition at x/c =  0.3431   37
 Side 2  free  transition at x/c =  0.0359   26

  32   rms: 0.7939E-02   max: -.1782E+00   C at   37  1
       a = -3.500      CL = -0.2232
      Cm =  0.0141     CD =  0.01369   =>   CDf =  0.00820    CDp =  0.00548

 Side 1  free  transition at x/c =  0.3431   37
 Side 2  free  transition at x/c =  0.0359   26

  33   rms: 0.7939E-02   max: -.1782E+00   C at   37  1
       a = -3.500      CL = -0.2232
      Cm =  0.0141     CD =  0.01369   =>   CDf =  0.00820    CDp =  0.00548

 Side 1  free  transition at x/c =  0.3431   37
 Side 2  free  transition at x/c =  0.0359   26

  34   rms: 0.7939E-02   max: -.1782E+00   C at   37  1
       a = -3.500      CL = -0.2232
      Cm =  0.0141     CD =  0.01369   =>   CDf =  0.00820    CDp =  0.00548

 Side 1  free  transition at x/c =  0.3431   37
 Side 2  free  transition at x/c =  0.0359   26

  35   rms: 0.7938E-02   max: -.1781E+00   C at   37  1
       a = -3.500      CL = -0.2232
      Cm =  0.0141     CD =  0.01369   =>   CDf =  0.00820    CDp =  0.00548

 Side 1  free  transition at x/c =  0.3431   37
 Side 2  free  transition at x/c =  0.0359   26

  36   rms: 0.7939E-02   max: -.1782E+00   C at   37  1
       a = -3.500      CL = -0.2232
      Cm =  0.0141     CD =  0.01369   =>   CDf =  0.00820    CDp =  0.00548

 Side 1  free  transition at x/c =  0.3431   37
 Side 2  free  transition at x/c =  0.0359   26

  37   rms: 0.7939E-02   max: -.1782E+00   C at   37  1
       a = -3.500      CL = -0.2232
      Cm =  0.0141     CD =  0.01369   =>   CDf =  0.00820    CDp =  0.00548

 Side 1  free  transition at x/c =  0.3431   37
 Side 2  free  transition at x/c =  0.0359   26

  38   rms: 0.7939E-02   max: -.1782E+00   C at   37  1
       a = -3.500      CL = -0.2232
      Cm =  0.0141     CD =  0.01369   =>   CDf =  0.00820    CDp =  0.00548

 Side 1  free  transition at x/c =  0.3431   37
 Side 2  free  transition at x/c =  0.0359   26

  39   rms: 0.7939E-02   max: -.1782E+00   C at   37  1
       a = -3.500      CL = -0.2232
      Cm =  0.0141     CD =  0.01369   =>   CDf =  0.00820    CDp =  0.00548

 Side 1  free  transition at x/c =  0.3431   37
 Side 2  free  transition at x/c =  0.0359   26

  40   rms: 0.7939E-02   max: -.1782E+00   C at   37  1
       a = -3.500      CL = -0.2232
      Cm =  0.0141     CD =  0.01369   =>   CDf =  0.00820    CDp =  0.00548

 Side 1  free  transition at x/c =  0.3431   37
 Side 2  free  transition at x/c =  0.0359   26

  41   rms: 0.7940E-02   max: -.1782E+00   C at   37  1
       a = -3.500      CL = -0.2232
      Cm =  0.0141     CD =  0.01369   =>   CDf =  0.00820    CDp =  0.00548

 Side 1  free  transition at x/c =  0.3431   37
 Side 2  free  transition at x/c =  0.0359   26

  42   rms: 0.7939E-02   max: -.1782E+00   C at   37  1
       a = -3.500      CL = -0.2232
      Cm =  0.0141     CD =  0.01369   =>   CDf =  0.00820    CDp =  0.00548

 Side 1  free  transition at x/c =  0.3431   37
 Side 2  free  transition at x/c =  0.0359   26

  43   rms: 0.7939E-02   max: -.1782E+00   C at   37  1
       a = -3.500      CL = -0.2232
      Cm =  0.0141     CD =  0.01369   =>   CDf =  0.00820    CDp =  0.00548

 Side 1  free  transition at x/c =  0.3431   37
 Side 2  free  transition at x/c =  0.0359   26

  44   rms: 0.7939E-02   max: -.1782E+00   C at   37  1
       a = -3.500      CL = -0.2232
      Cm =  0.0141     CD =  0.01369   =>   CDf =  0.00820    CDp =  0.00548

 Side 1  free  transition at x/c =  0.3431   37
 Side 2  free  transition at x/c =  0.0359   26

  45   rms: 0.7939E-02   max: -.1782E+00   C at   37  1
       a = -3.500      CL = -0.2232
      Cm =  0.0141     CD =  0.01369   =>   CDf =  0.00820    CDp =  0.00548

 Side 1  free  transition at x/c =  0.3431   37
 Side 2  free  transition at x/c =  0.0359   26

  46   rms: 0.7939E-02   max: -.1781E+00   C at   37  1
       a = -3.500      CL = -0.2232
      Cm =  0.0141     CD =  0.01369   =>   CDf =  0.00820    CDp =  0.00548

 Side 1  free  transition at x/c =  0.3431   37
 Side 2  free  transition at x/c =  0.0359   26

  47   rms: 0.7939E-02   max: -.1782E+00   C at   37  1
       a = -3.500      CL = -0.2232
      Cm =  0.0141     CD =  0.01369   =>   CDf =  0.00820    CDp =  0.00548

 Side 1  free  transition at x/c =  0.3431   37
 Side 2  free  transition at x/c =  0.0359   26

  48   rms: 0.7939E-02   max: -.1782E+00   C at   37  1
       a = -3.500      CL = -0.2232
      Cm =  0.0141     CD =  0.01369   =>   CDf =  0.00820    CDp =  0.00548

 Side 1  free  transition at x/c =  0.3431   37
 Side 2  free  transition at x/c =  0.0359   26

  49   rms: 0.7939E-02   max: -.1782E+00   C at   37  1
       a = -3.500      CL = -0.2232
      Cm =  0.0141     CD =  0.01369   =>   CDf =  0.00820    CDp =  0.00548

 Side 1  free  transition at x/c =  0.3431   37
 Side 2  free  transition at x/c =  0.0359   26

  50   rms: 0.7939E-02   max: -.1782E+00   C at   37  1
       a = -3.500      CL = -0.2232
      Cm =  0.0141     CD =  0.01369   =>   CDf =  0.00820    CDp =  0.00548

 Side 1  free  transition at x/c =  0.3431   37
 Side 2  free  transition at x/c =  0.0359   26

  51   rms: 0.7939E-02   max: -.1782E+00   C at   37  1
       a = -3.500      CL = -0.2232
      Cm =  0.0141     CD =  0.01369   =>   CDf =  0.00820    CDp =  0.00548

 Side 1  free  transition at x/c =  0.3431   37
 Side 2  free  transition at x/c =  0.0359   26

  52   rms: 0.7939E-02   max: -.1782E+00   C at   37  1
       a = -3.500      CL = -0.2232
      Cm =  0.0141     CD =  0.01369   =>   CDf =  0.00820    CDp =  0.00548

 Side 1  free  transition at x/c =  0.3431   37
 Side 2  free  transition at x/c =  0.0359   26

  53   rms: 0.7939E-02   max: -.1782E+00   C at   37  1
       a = -3.500      CL = -0.2232
      Cm =  0.0141     CD =  0.01369   =>   CDf =  0.00820    CDp =  0.00548

 Side 1  free  transition at x/c =  0.3431   37
 Side 2  free  transition at x/c =  0.0359   26

  54   rms: 0.7939E-02   max: -.1782E+00   C at   37  1
       a = -3.500      CL = -0.2232
      Cm =  0.0141     CD =  0.01369   =>   CDf =  0.00820    CDp =  0.00548

 Side 1  free  transition at x/c =  0.3431   37
 Side 2  free  transition at x/c =  0.0359   26

  55   rms: 0.7939E-02   max: -.1782E+00   C at   37  1
       a = -3.500      CL = -0.2232
      Cm =  0.0141     CD =  0.01369   =>   CDf =  0.00820    CDp =  0.00548

 Side 1  free  transition at x/c =  0.3431   37
 Side 2  free  transition at x/c =  0.0359   26

  56   rms: 0.7939E-02   max: -.1782E+00   C at   37  1
       a = -3.500      CL = -0.2232
      Cm =  0.0141     CD =  0.01369   =>   CDf =  0.00820    CDp =  0.00548

 Side 1  free  transition at x/c =  0.3431   37
 Side 2  free  transition at x/c =  0.0359   26

  57   rms: 0.7939E-02   max: -.1781E+00   C at   37  1
       a = -3.500      CL = -0.2232
      Cm =  0.0141     CD =  0.01369   =>   CDf =  0.00820    CDp =  0.00548

 Side 1  free  transition at x/c =  0.3431   37
 Side 2  free  transition at x/c =  0.0359   26

  58   rms: 0.7939E-02   max: -.1782E+00   C at   37  1
       a = -3.500      CL = -0.2232
      Cm =  0.0141     CD =  0.01369   =>   CDf =  0.00820    CDp =  0.00548

 Side 1  free  transition at x/c =  0.3431   37
 Side 2  free  transition at x/c =  0.0359   26

  59   rms: 0.7938E-02   max: -.1781E+00   C at   37  1
       a = -3.500      CL = -0.2232
      Cm =  0.0141     CD =  0.01369   =>   CDf =  0.00820    CDp =  0.00548

 Side 1  free  transition at x/c =  0.3431   37
 Side 2  free  transition at x/c =  0.0359   26

  60   rms: 0.7939E-02   max: -.1782E+00   C at   37  1
       a = -3.500      CL = -0.2232
      Cm =  0.0141     CD =  0.01369   =>   CDf =  0.00820    CDp =  0.00548

 Side 1  free  transition at x/c =  0.3431   37
 Side 2  free  transition at x/c =  0.0359   26

  61   rms: 0.7939E-02   max: -.1782E+00   C at   37  1
       a = -3.500      CL = -0.2232
      Cm =  0.0141     CD =  0.01369   =>   CDf =  0.00820    CDp =  0.00548

 Side 1  free  transition at x/c =  0.3431   37
 Side 2  free  transition at x/c =  0.0359   26

  62   rms: 0.7939E-02   max: -.1782E+00   C at   37  1
       a = -3.500      CL = -0.2232
      Cm =  0.0141     CD =  0.01369   =>   CDf =  0.00820    CDp =  0.00548

 Side 1  free  transition at x/c =  0.3431   37
 Side 2  free  transition at x/c =  0.0359   26

  63   rms: 0.7939E-02   max: -.1782E+00   C at   37  1
       a = -3.500      CL = -0.2232
      Cm =  0.0141     CD =  0.01369   =>   CDf =  0.00820    CDp =  0.00548

 Side 1  free  transition at x/c =  0.3431   37
 Side 2  free  transition at x/c =  0.0359   26

  64   rms: 0.7939E-02   max: -.1782E+00   C at   37  1
       a = -3.500      CL = -0.2232
      Cm =  0.0141     CD =  0.01369   =>   CDf =  0.00820    CDp =  0.00548

 Side 1  free  transition at x/c =  0.3431   37
 Side 2  free  transition at x/c =  0.0359   26

  65   rms: 0.7938E-02   max: -.1781E+00   C at   37  1
       a = -3.500      CL = -0.2232
      Cm =  0.0141     CD =  0.01369   =>   CDf =  0.00820    CDp =  0.00548

 Side 1  free  transition at x/c =  0.3431   37
 Side 2  free  transition at x/c =  0.0359   26

  66   rms: 0.7939E-02   max: -.1782E+00   C at   37  1
       a = -3.500      CL = -0.2232
      Cm =  0.0141     CD =  0.01369   =>   CDf =  0.00820    CDp =  0.00548

 Side 1  free  transition at x/c =  0.3431   37
 Side 2  free  transition at x/c =  0.0359   26

  67   rms: 0.7939E-02   max: -.1782E+00   C at   37  1
       a = -3.500      CL = -0.2232
      Cm =  0.0141     CD =  0.01369   =>   CDf =  0.00820    CDp =  0.00548

 Side 1  free  transition at x/c =  0.3431   37
 Side 2  free  transition at x/c =  0.0359   26

  68   rms: 0.7939E-02   max: -.1781E+00   C at   37  1
       a = -3.500      CL = -0.2232
      Cm =  0.0141     CD =  0.01369   =>   CDf =  0.00820    CDp =  0.00548

 Side 1  free  transition at x/c =  0.3431   37
 Side 2  free  transition at x/c =  0.0359   26

  69   rms: 0.7940E-02   max: -.1782E+00   C at   37  1
       a = -3.500      CL = -0.2232
      Cm =  0.0141     CD =  0.01369   =>   CDf =  0.00820    CDp =  0.00548

 Side 1  free  transition at x/c =  0.3431   37
 Side 2  free  transition at x/c =  0.0359   26

  70   rms: 0.7939E-02   max: -.1782E+00   C at   37  1
       a = -3.500      CL = -0.2232
      Cm =  0.0141     CD =  0.01369   =>   CDf =  0.00820    CDp =  0.00548

 Side 1  free  transition at x/c =  0.3431   37
 Side 2  free  transition at x/c =  0.0359   26

  71   rms: 0.7939E-02   max: -.1782E+00   C at   37  1
       a = -3.500      CL = -0.2232
      Cm =  0.0141     CD =  0.01369   =>   CDf =  0.00820    CDp =  0.00548

 Side 1  free  transition at x/c =  0.3431   37
 Side 2  free  transition at x/c =  0.0359   26

  72   rms: 0.7939E-02   max: -.1782E+00   C at   37  1
       a = -3.500      CL = -0.2232
      Cm =  0.0141     CD =  0.01369   =>   CDf =  0.00820    CDp =  0.00548

 Side 1  free  transition at x/c =  0.3431   37
 Side 2  free  transition at x/c =  0.0359   26

  73   rms: 0.7939E-02   max: -.1782E+00   C at   37  1
       a = -3.500      CL = -0.2232
      Cm =  0.0141     CD =  0.01369   =>   CDf =  0.00820    CDp =  0.00548

 Side 1  free  transition at x/c =  0.3431   37
 Side 2  free  transition at x/c =  0.0359   26

  74   rms: 0.7939E-02   max: -.1782E+00   C at   37  1
       a = -3.500      CL = -0.2232
      Cm =  0.0141     CD =  0.01369   =>   CDf =  0.00820    CDp =  0.00548

 Side 1  free  transition at x/c =  0.3431   37
 Side 2  free  transition at x/c =  0.0359   26

  75   rms: 0.7939E-02   max: -.1782E+00   C at   37  1
       a = -3.500      CL = -0.2232
      Cm =  0.0141     CD =  0.01369   =>   CDf =  0.00820    CDp =  0.00548

 Side 1  free  transition at x/c =  0.3431   37
 Side 2  free  transition at x/c =  0.0359   26

  76   rms: 0.7939E-02   max: -.1782E+00   C at   37  1
       a = -3.500      CL = -0.2232
      Cm =  0.0141     CD =  0.01369   =>   CDf =  0.00820    CDp =  0.00548

 Side 1  free  transition at x/c =  0.3431   37
 Side 2  free  transition at x/c =  0.0359   26

  77   rms: 0.7939E-02   max: -.1782E+00   C at   37  1
       a = -3.500      CL = -0.2232
      Cm =  0.0141     CD =  0.01369   =>   CDf =  0.00820    CDp =  0.00548

 Side 1  free  transition at x/c =  0.3431   37
 Side 2  free  transition at x/c =  0.0359   26

  78   rms: 0.7939E-02   max: -.1782E+00   C at   37  1
       a = -3.500      CL = -0.2232
      Cm =  0.0141     CD =  0.01369   =>   CDf =  0.00820    CDp =  0.00548

 Side 1  free  transition at x/c =  0.3431   37
 Side 2  free  transition at x/c =  0.0359   26

  79   rms: 0.7939E-02   max: -.1782E+00   C at   37  1
       a = -3.500      CL = -0.2232
      Cm =  0.0141     CD =  0.01369   =>   CDf =  0.00820    CDp =  0.00548

 Side 1  free  transition at x/c =  0.3431   37
 Side 2  free  transition at x/c =  0.0359   26

  80   rms: 0.7939E-02   max: -.1782E+00   C at   37  1
       a = -3.500      CL = -0.2232
      Cm =  0.0141     CD =  0.01369   =>   CDf =  0.00820    CDp =  0.00548

 Side 1  free  transition at x/c =  0.3431   37
 Side 2  free  transition at x/c =  0.0359   26

  81   rms: 0.7939E-02   max: -.1782E+00   C at   37  1
       a = -3.500      CL = -0.2232
      Cm =  0.0141     CD =  0.01369   =>   CDf =  0.00820    CDp =  0.00548

 Side 1  free  transition at x/c =  0.3431   37
 Side 2  free  transition at x/c =  0.0359   26

  82   rms: 0.7939E-02   max: -.1782E+00   C at   37  1
       a = -3.500      CL = -0.2232
      Cm =  0.0141     CD =  0.01369   =>   CDf =  0.00820    CDp =  0.00548

 Side 1  free  transition at x/c =  0.3431   37
 Side 2  free  transition at x/c =  0.0359   26

  83   rms: 0.7939E-02   max: -.1782E+00   C at   37  1
       a = -3.500      CL = -0.2232
      Cm =  0.0141     CD =  0.01369   =>   CDf =  0.00820    CDp =  0.00548

 Side 1  free  transition at x/c =  0.3431   37
 Side 2  free  transition at x/c =  0.0359   26

  84   rms: 0.7939E-02   max: -.1782E+00   C at   37  1
       a = -3.500      CL = -0.2232
      Cm =  0.0141     CD =  0.01369   =>   CDf =  0.00820    CDp =  0.00548

 Side 1  free  transition at x/c =  0.3431   37
 Side 2  free  transition at x/c =  0.0359   26

  85   rms: 0.7939E-02   max: -.1782E+00   C at   37  1
       a = -3.500      CL = -0.2232
      Cm =  0.0141     CD =  0.01369   =>   CDf =  0.00820    CDp =  0.00548

 Side 1  free  transition at x/c =  0.3431   37
 Side 2  free  transition at x/c =  0.0359   26

  86   rms: 0.7939E-02   max: -.1782E+00   C at   37  1
       a = -3.500      CL = -0.2232
      Cm =  0.0141     CD =  0.01369   =>   CDf =  0.00820    CDp =  0.00548

 Side 1  free  transition at x/c =  0.3431   37
 Side 2  free  transition at x/c =  0.0359   26

  87   rms: 0.7939E-02   max: -.1782E+00   C at   37  1
       a = -3.500      CL = -0.2232
      Cm =  0.0141     CD =  0.01369   =>   CDf =  0.00820    CDp =  0.00548

 Side 1  free  transition at x/c =  0.3431   37
 Side 2  free  transition at x/c =  0.0359   26

  88   rms: 0.7939E-02   max: -.1782E+00   C at   37  1
       a = -3.500      CL = -0.2232
      Cm =  0.0141     CD =  0.01369   =>   CDf =  0.00820    CDp =  0.00548

 Side 1  free  transition at x/c =  0.3431   37
 Side 2  free  transition at x/c =  0.0359   26

  89   rms: 0.7939E-02   max: -.1782E+00   C at   37  1
       a = -3.500      CL = -0.2232
      Cm =  0.0141     CD =  0.01369   =>   CDf =  0.00820    CDp =  0.00548

 Side 1  free  transition at x/c =  0.3431   37
 Side 2  free  transition at x/c =  0.0359   26

  90   rms: 0.7939E-02   max: -.1782E+00   C at   37  1
       a = -3.500      CL = -0.2232
      Cm =  0.0141     CD =  0.01369   =>   CDf =  0.00820    CDp =  0.00548

 Side 1  free  transition at x/c =  0.3431   37
 Side 2  free  transition at x/c =  0.0359   26

  91   rms: 0.7939E-02   max: -.1782E+00   C at   37  1
       a = -3.500      CL = -0.2232
      Cm =  0.0141     CD =  0.01369   =>   CDf =  0.00820    CDp =  0.00548

 Side 1  free  transition at x/c =  0.3431   37
 Side 2  free  transition at x/c =  0.0359   26

  92   rms: 0.7939E-02   max: -.1782E+00   C at   37  1
       a = -3.500      CL = -0.2232
      Cm =  0.0141     CD =  0.01369   =>   CDf =  0.00820    CDp =  0.00548

 Side 1  free  transition at x/c =  0.3431   37
 Side 2  free  transition at x/c =  0.0359   26

  93   rms: 0.7939E-02   max: -.1782E+00   C at   37  1
       a = -3.500      CL = -0.2232
      Cm =  0.0141     CD =  0.01369   =>   CDf =  0.00820    CDp =  0.00548

 Side 1  free  transition at x/c =  0.3431   37
 Side 2  free  transition at x/c =  0.0359   26

  94   rms: 0.7939E-02   max: -.1782E+00   C at   37  1
       a = -3.500      CL = -0.2232
      Cm =  0.0141     CD =  0.01369   =>   CDf =  0.00820    CDp =  0.00548

 Side 1  free  transition at x/c =  0.3431   37
 Side 2  free  transition at x/c =  0.0359   26

  95   rms: 0.7939E-02   max: -.1781E+00   C at   37  1
       a = -3.500      CL = -0.2232
      Cm =  0.0141     CD =  0.01369   =>   CDf =  0.00820    CDp =  0.00548

 Side 1  free  transition at x/c =  0.3431   37
 Side 2  free  transition at x/c =  0.0359   26

  96   rms: 0.7939E-02   max: -.1782E+00   C at   37  1
       a = -3.500      CL = -0.2232
      Cm =  0.0141     CD =  0.01369   =>   CDf =  0.00820    CDp =  0.00548

 Side 1  free  transition at x/c =  0.3431   37
 Side 2  free  transition at x/c =  0.0359   26

  97   rms: 0.7939E-02   max: -.1782E+00   C at   37  1
       a = -3.500      CL = -0.2232
      Cm =  0.0141     CD =  0.01369   =>   CDf =  0.00820    CDp =  0.00548

 Side 1  free  transition at x/c =  0.3431   37
 Side 2  free  transition at x/c =  0.0359   26

  98   rms: 0.7939E-02   max: -.1782E+00   C at   37  1
       a = -3.500      CL = -0.2232
      Cm =  0.0141     CD =  0.01369   =>   CDf =  0.00820    CDp =  0.00548

 Side 1  free  transition at x/c =  0.3431   37
 Side 2  free  transition at x/c =  0.0359   26

  99   rms: 0.7939E-02   max: -.1782E+00   C at   37  1
       a = -3.500      CL = -0.2232
      Cm =  0.0141     CD =  0.01369   =>   CDf =  0.00820    CDp =  0.00548

 Side 1  free  transition at x/c =  0.3431   37
 Side 2  free  transition at x/c =  0.0359   26

 100   rms: 0.7939E-02   max: -.1782E+00   C at   37  1
       a = -3.500      CL = -0.2232
      Cm =  0.0141     CD =  0.01369   =>   CDf =  0.00820    CDp =  0.00548

 Side 1  free  transition at x/c =  0.3431   37
 Side 2  free  transition at x/c =  0.0359   26

 101   rms: 0.7939E-02   max: -.1782E+00   C at   37  1
       a = -3.500      CL = -0.2232
      Cm =  0.0141     CD =  0.01369   =>   CDf =  0.00820    CDp =  0.00548

 Side 1  free  transition at x/c =  0.3431   37
 Side 2  free  transition at x/c =  0.0359   26

 102   rms: 0.7939E-02   max: -.1781E+00   C at   37  1
       a = -3.500      CL = -0.2232
      Cm =  0.0141     CD =  0.01369   =>   CDf =  0.00820    CDp =  0.00548

 Side 1  free  transition at x/c =  0.3431   37
 Side 2  free  transition at x/c =  0.0359   26

 103   rms: 0.7939E-02   max: -.1782E+00   C at   37  1
       a = -3.500      CL = -0.2232
      Cm =  0.0141     CD =  0.01369   =>   CDf =  0.00820    CDp =  0.00548

 Side 1  free  transition at x/c =  0.3431   37
 Side 2  free  transition at x/c =  0.0359   26

 104   rms: 0.7938E-02   max: -.1781E+00   C at   37  1
       a = -3.500      CL = -0.2232
      Cm =  0.0141     CD =  0.01369   =>   CDf =  0.00820    CDp =  0.00548

 Side 1  free  transition at x/c =  0.3431   37
 Side 2  free  transition at x/c =  0.0359   26

 105   rms: 0.7939E-02   max: -.1782E+00   C at   37  1
       a = -3.500      CL = -0.2232
      Cm =  0.0141     CD =  0.01369   =>   CDf =  0.00820    CDp =  0.00548

 Side 1  free  transition at x/c =  0.3431   37
 Side 2  free  transition at x/c =  0.0359   26

 106   rms: 0.7939E-02   max: -.1782E+00   C at   37  1
       a = -3.500      CL = -0.2232
      Cm =  0.0141     CD =  0.01369   =>   CDf =  0.00820    CDp =  0.00548

 Side 1  free  transition at x/c =  0.3431   37
 Side 2  free  transition at x/c =  0.0359   26

 107   rms: 0.7939E-02   max: -.1782E+00   C at   37  1
       a = -3.500      CL = -0.2232
      Cm =  0.0141     CD =  0.01369   =>   CDf =  0.00820    CDp =  0.00548

 Side 1  free  transition at x/c =  0.3431   37
 Side 2  free  transition at x/c =  0.0359   26

 108   rms: 0.7939E-02   max: -.1782E+00   C at   37  1
       a = -3.500      CL = -0.2232
      Cm =  0.0141     CD =  0.01369   =>   CDf =  0.00820    CDp =  0.00548

 Side 1  free  transition at x/c =  0.3431   37
 Side 2  free  transition at x/c =  0.0359   26

 109   rms: 0.7938E-02   max: -.1781E+00   C at   37  1
       a = -3.500      CL = -0.2232
      Cm =  0.0141     CD =  0.01369   =>   CDf =  0.00820    CDp =  0.00548

 Side 1  free  transition at x/c =  0.3431   37
 Side 2  free  transition at x/c =  0.0359   26

 110   rms: 0.7939E-02   max: -.1782E+00   C at   37  1
       a = -3.500      CL = -0.2232
      Cm =  0.0141     CD =  0.01369   =>   CDf =  0.00820    CDp =  0.00548

 Side 1  free  transition at x/c =  0.3431   37
 Side 2  free  transition at x/c =  0.0359   26

 111   rms: 0.7939E-02   max: -.1782E+00   C at   37  1
       a = -3.500      CL = -0.2232
      Cm =  0.0141     CD =  0.01369   =>   CDf =  0.00820    CDp =  0.00548

 Side 1  free  transition at x/c =  0.3431   37
 Side 2  free  transition at x/c =  0.0359   26

 112   rms: 0.7939E-02   max: -.1782E+00   C at   37  1
       a = -3.500      CL = -0.2232
      Cm =  0.0141     CD =  0.01369   =>   CDf =  0.00820    CDp =  0.00548

 Side 1  free  transition at x/c =  0.3431   37
 Side 2  free  transition at x/c =  0.0359   26

 113   rms: 0.7939E-02   max: -.1782E+00   C at   37  1
       a = -3.500      CL = -0.2232
      Cm =  0.0141     CD =  0.01369   =>   CDf =  0.00820    CDp =  0.00548

 Side 1  free  transition at x/c =  0.3431   37
 Side 2  free  transition at x/c =  0.0359   26

 114   rms: 0.7939E-02   max: -.1782E+00   C at   37  1
       a = -3.500      CL = -0.2232
      Cm =  0.0141     CD =  0.01369   =>   CDf =  0.00820    CDp =  0.00548

 Side 1  free  transition at x/c =  0.3431   37
 Side 2  free  transition at x/c =  0.0359   26

 115   rms: 0.7939E-02   max: -.1782E+00   C at   37  1
       a = -3.500      CL = -0.2232
      Cm =  0.0141     CD =  0.01369   =>   CDf =  0.00820    CDp =  0.00548

 Side 1  free  transition at x/c =  0.3431   37
 Side 2  free  transition at x/c =  0.0359   26

 116   rms: 0.7939E-02   max: -.1782E+00   C at   37  1
       a = -3.500      CL = -0.2232
      Cm =  0.0141     CD =  0.01369   =>   CDf =  0.00820    CDp =  0.00548

 Side 1  free  transition at x/c =  0.3431   37
 Side 2  free  transition at x/c =  0.0359   26

 117   rms: 0.7939E-02   max: -.1782E+00   C at   37  1
       a = -3.500      CL = -0.2232
      Cm =  0.0141     CD =  0.01369   =>   CDf =  0.00820    CDp =  0.00548

 Side 1  free  transition at x/c =  0.3431   37
 Side 2  free  transition at x/c =  0.0359   26

 118   rms: 0.7939E-02   max: -.1782E+00   C at   37  1
       a = -3.500      CL = -0.2232
      Cm =  0.0141     CD =  0.01369   =>   CDf =  0.00820    CDp =  0.00548

 Side 1  free  transition at x/c =  0.3431   37
 Side 2  free  transition at x/c =  0.0359   26

 119   rms: 0.7939E-02   max: -.1782E+00   C at   37  1
       a = -3.500      CL = -0.2232
      Cm =  0.0141     CD =  0.01369   =>   CDf =  0.00820    CDp =  0.00548

 Side 1  free  transition at x/c =  0.3431   37
 Side 2  free  transition at x/c =  0.0359   26

 120   rms: 0.7939E-02   max: -.1782E+00   C at   37  1
       a = -3.500      CL = -0.2232
      Cm =  0.0141     CD =  0.01369   =>   CDf =  0.00820    CDp =  0.00548

 Side 1  free  transition at x/c =  0.3431   37
 Side 2  free  transition at x/c =  0.0359   26

 121   rms: 0.7939E-02   max: -.1782E+00   C at   37  1
       a = -3.500      CL = -0.2232
      Cm =  0.0141     CD =  0.01369   =>   CDf =  0.00820    CDp =  0.00548

 Side 1  free  transition at x/c =  0.3431   37
 Side 2  free  transition at x/c =  0.0359   26

 122   rms: 0.7939E-02   max: -.1782E+00   C at   37  1
       a = -3.500      CL = -0.2232
      Cm =  0.0141     CD =  0.01369   =>   CDf =  0.00820    CDp =  0.00548

 Side 1  free  transition at x/c =  0.3431   37
 Side 2  free  transition at x/c =  0.0359   26

 123   rms: 0.7939E-02   max: -.1782E+00   C at   37  1
       a = -3.500      CL = -0.2232
      Cm =  0.0141     CD =  0.01369   =>   CDf =  0.00820    CDp =  0.00548

 Side 1  free  transition at x/c =  0.3431   37
 Side 2  free  transition at x/c =  0.0359   26

 124   rms: 0.7939E-02   max: -.1782E+00   C at   37  1
       a = -3.500      CL = -0.2232
      Cm =  0.0141     CD =  0.01369   =>   CDf =  0.00820    CDp =  0.00548

 Side 1  free  transition at x/c =  0.3431   37
 Side 2  free  transition at x/c =  0.0359   26

 125   rms: 0.7939E-02   max: -.1782E+00   C at   37  1
       a = -3.500      CL = -0.2232
      Cm =  0.0141     CD =  0.01369   =>   CDf =  0.00820    CDp =  0.00548

 Side 1  free  transition at x/c =  0.3431   37
 Side 2  free  transition at x/c =  0.0359   26

 126   rms: 0.7939E-02   max: -.1782E+00   C at   37  1
       a = -3.500      CL = -0.2232
      Cm =  0.0141     CD =  0.01369   =>   CDf =  0.00820    CDp =  0.00548

 Side 1  free  transition at x/c =  0.3431   37
 Side 2  free  transition at x/c =  0.0359   26

 127   rms: 0.7939E-02   max: -.1782E+00   C at   37  1
       a = -3.500      CL = -0.2232
      Cm =  0.0141     CD =  0.01369   =>   CDf =  0.00820    CDp =  0.00548

 Side 1  free  transition at x/c =  0.3431   37
 Side 2  free  transition at x/c =  0.0359   26

 128   rms: 0.7939E-02   max: -.1782E+00   C at   37  1
       a = -3.500      CL = -0.2232
      Cm =  0.0141     CD =  0.01369   =>   CDf =  0.00820    CDp =  0.00548

 Side 1  free  transition at x/c =  0.3431   37
 Side 2  free  transition at x/c =  0.0359   26

 129   rms: 0.7939E-02   max: -.1782E+00   C at   37  1
       a = -3.500      CL = -0.2232
      Cm =  0.0141     CD =  0.01369   =>   CDf =  0.00820    CDp =  0.00548

 Side 1  free  transition at x/c =  0.3431   37
 Side 2  free  transition at x/c =  0.0359   26

 130   rms: 0.7938E-02   max: -.1781E+00   C at   37  1
       a = -3.500      CL = -0.2232
      Cm =  0.0141     CD =  0.01369   =>   CDf =  0.00820    CDp =  0.00548

 Side 1  free  transition at x/c =  0.3431   37
 Side 2  free  transition at x/c =  0.0359   26

 131   rms: 0.7940E-02   max: -.1782E+00   C at   37  1
       a = -3.500      CL = -0.2232
      Cm =  0.0141     CD =  0.01369   =>   CDf =  0.00820    CDp =  0.00548

 Side 1  free  transition at x/c =  0.3431   37
 Side 2  free  transition at x/c =  0.0359   26

 132   rms: 0.7939E-02   max: -.1782E+00   C at   37  1
       a = -3.500      CL = -0.2232
      Cm =  0.0141     CD =  0.01369   =>   CDf =  0.00820    CDp =  0.00548

 Side 1  free  transition at x/c =  0.3431   37
 Side 2  free  transition at x/c =  0.0359   26

 133   rms: 0.7939E-02   max: -.1781E+00   C at   37  1
       a = -3.500      CL = -0.2232
      Cm =  0.0141     CD =  0.01369   =>   CDf =  0.00820    CDp =  0.00548

 Side 1  free  transition at x/c =  0.3431   37
 Side 2  free  transition at x/c =  0.0359   26

 134   rms: 0.7939E-02   max: -.1782E+00   C at   37  1
       a = -3.500      CL = -0.2232
      Cm =  0.0141     CD =  0.01369   =>   CDf =  0.00820    CDp =  0.00548

 Side 1  free  transition at x/c =  0.3431   37
 Side 2  free  transition at x/c =  0.0359   26

 135   rms: 0.7939E-02   max: -.1782E+00   C at   37  1
       a = -3.500      CL = -0.2232
      Cm =  0.0141     CD =  0.01369   =>   CDf =  0.00820    CDp =  0.00548

 Side 1  free  transition at x/c =  0.3431   37
 Side 2  free  transition at x/c =  0.0359   26

 136   rms: 0.7939E-02   max: -.1782E+00   C at   37  1
       a = -3.500      CL = -0.2232
      Cm =  0.0141     CD =  0.01369   =>   CDf =  0.00820    CDp =  0.00548

 Side 1  free  transition at x/c =  0.3431   37
 Side 2  free  transition at x/c =  0.0359   26

 137   rms: 0.7939E-02   max: -.1782E+00   C at   37  1
       a = -3.500      CL = -0.2232
      Cm =  0.0141     CD =  0.01369   =>   CDf =  0.00820    CDp =  0.00548

 Side 1  free  transition at x/c =  0.3431   37
 Side 2  free  transition at x/c =  0.0359   26

 138   rms: 0.7939E-02   max: -.1782E+00   C at   37  1
       a = -3.500      CL = -0.2232
      Cm =  0.0141     CD =  0.01369   =>   CDf =  0.00820    CDp =  0.00548

 Side 1  free  transition at x/c =  0.3431   37
 Side 2  free  transition at x/c =  0.0359   26

 139   rms: 0.7939E-02   max: -.1782E+00   C at   37  1
       a = -3.500      CL = -0.2232
      Cm =  0.0141     CD =  0.01369   =>   CDf =  0.00820    CDp =  0.00548

 Side 1  free  transition at x/c =  0.3431   37
 Side 2  free  transition at x/c =  0.0359   26

 140   rms: 0.7938E-02   max: -.1781E+00   C at   37  1
       a = -3.500      CL = -0.2231
      Cm =  0.0141     CD =  0.01369   =>   CDf =  0.00820    CDp =  0.00548

 Side 1  free  transition at x/c =  0.3431   37
 Side 2  free  transition at x/c =  0.0359   26

 141   rms: 0.7939E-02   max: -.1782E+00   C at   37  1
       a = -3.500      CL = -0.2232
      Cm =  0.0141     CD =  0.01369   =>   CDf =  0.00820    CDp =  0.00548

 Side 1  free  transition at x/c =  0.3431   37
 Side 2  free  transition at x/c =  0.0359   26

 142   rms: 0.7939E-02   max: -.1782E+00   C at   37  1
       a = -3.500      CL = -0.2232
      Cm =  0.0141     CD =  0.01369   =>   CDf =  0.00820    CDp =  0.00548

 Side 1  free  transition at x/c =  0.3431   37
 Side 2  free  transition at x/c =  0.0359   26

 143   rms: 0.7939E-02   max: -.1782E+00   C at   37  1
       a = -3.500      CL = -0.2232
      Cm =  0.0141     CD =  0.01369   =>   CDf =  0.00820    CDp =  0.00548

 Side 1  free  transition at x/c =  0.3431   37
 Side 2  free  transition at x/c =  0.0359   26

 144   rms: 0.7940E-02   max: -.1782E+00   C at   37  1
       a = -3.500      CL = -0.2232
      Cm =  0.0141     CD =  0.01369   =>   CDf =  0.00820    CDp =  0.00548

 Side 1  free  transition at x/c =  0.3431   37
 Side 2  free  transition at x/c =  0.0359   26

 145   rms: 0.7939E-02   max: -.1781E+00   C at   37  1
       a = -3.500      CL = -0.2232
      Cm =  0.0141     CD =  0.01369   =>   CDf =  0.00820    CDp =  0.00548

 Side 1  free  transition at x/c =  0.3431   37
 Side 2  free  transition at x/c =  0.0359   26

 146   rms: 0.7939E-02   max: -.1782E+00   C at   37  1
       a = -3.500      CL = -0.2232
      Cm =  0.0141     CD =  0.01369   =>   CDf =  0.00820    CDp =  0.00548

 Side 1  free  transition at x/c =  0.3431   37
 Side 2  free  transition at x/c =  0.0359   26

 147   rms: 0.7939E-02   max: -.1782E+00   C at   37  1
       a = -3.500      CL = -0.2232
      Cm =  0.0141     CD =  0.01369   =>   CDf =  0.00820    CDp =  0.00548

 Side 1  free  transition at x/c =  0.3431   37
 Side 2  free  transition at x/c =  0.0359   26

 148   rms: 0.7939E-02   max: -.1782E+00   C at   37  1
       a = -3.500      CL = -0.2232
      Cm =  0.0141     CD =  0.01369   =>   CDf =  0.00820    CDp =  0.00548

 Side 1  free  transition at x/c =  0.3431   37
 Side 2  free  transition at x/c =  0.0359   26

 149   rms: 0.7939E-02   max: -.1782E+00   C at   37  1
       a = -3.500      CL = -0.2232
      Cm =  0.0141     CD =  0.01369   =>   CDf =  0.00820    CDp =  0.00548

 Side 1  free  transition at x/c =  0.3431   37
 Side 2  free  transition at x/c =  0.0359   26

 150   rms: 0.7939E-02   max: -.1782E+00   C at   37  1
       a = -3.500      CL = -0.2231
      Cm =  0.0141     CD =  0.01369   =>   CDf =  0.00820    CDp =  0.00548

 Side 1  free  transition at x/c =  0.3431   37
 Side 2  free  transition at x/c =  0.0359   26

 151   rms: 0.7939E-02   max: -.1782E+00   C at   37  1
       a = -3.500      CL = -0.2232
      Cm =  0.0141     CD =  0.01369   =>   CDf =  0.00820    CDp =  0.00548

 Side 1  free  transition at x/c =  0.3431   37
 Side 2  free  transition at x/c =  0.0359   26

 152   rms: 0.7938E-02   max: -.1781E+00   C at   37  1
       a = -3.500      CL = -0.2232
      Cm =  0.0141     CD =  0.01369   =>   CDf =  0.00820    CDp =  0.00548

 Side 1  free  transition at x/c =  0.3431   37
 Side 2  free  transition at x/c =  0.0359   26

 153   rms: 0.7939E-02   max: -.1782E+00   C at   37  1
       a = -3.500      CL = -0.2232
      Cm =  0.0141     CD =  0.01369   =>   CDf =  0.00820    CDp =  0.00548

 Side 1  free  transition at x/c =  0.3431   37
 Side 2  free  transition at x/c =  0.0359   26

 154   rms: 0.7939E-02   max: -.1782E+00   C at   37  1
       a = -3.500      CL = -0.2232
      Cm =  0.0141     CD =  0.01369   =>   CDf =  0.00820    CDp =  0.00548

 Side 1  free  transition at x/c =  0.3431   37
 Side 2  free  transition at x/c =  0.0359   26

 155   rms: 0.7939E-02   max: -.1782E+00   C at   37  1
       a = -3.500      CL = -0.2232
      Cm =  0.0141     CD =  0.01369   =>   CDf =  0.00820    CDp =  0.00548
 VISCAL:  Convergence failed
 Calculating wake trajectory ...
 Calculating source influence matrix ...

 Solving BL system ...

 Side 1  free  transition at x/c =  0.3431   37
 Side 2  free  transition at x/c =  0.0359   26

   1   rms: 0.1054E+00   max: 0.1437E+01   C at   37  1   RLX: 0.747
       a = -3.000      CL = -0.1849
      Cm =  0.0153     CD =  0.01366   =>   CDf =  0.00820    CDp =  0.00546

 Side 1  free  transition at x/c =  0.3038   35
 Side 2  free  transition at x/c =  0.0381   27

   2   rms: 0.3675E-01   max: 0.4793E+00   D at   27  2
       a = -3.000      CL = -0.1773
      Cm =  0.0165     CD =  0.01298   =>   CDf =  0.00847    CDp =  0.00450

 Side 1  free  transition at x/c =  0.3010   36
 Side 2  free  transition at x/c =  0.0388   26

   3   rms: 0.1012E-01   max: 0.9935E-01   D at   26  2
       a = -3.000      CL = -0.1767
      Cm =  0.0164     CD =  0.01305   =>   CDf =  0.00836    CDp =  0.00469

 Side 1  free  transition at x/c =  0.3005   36
 Side 2  free  transition at x/c =  0.0386   26

   4   rms: 0.1982E-03   max: 0.2098E-02   D at    4  1
       a = -3.000      CL = -0.1768
      Cm =  0.0164     CD =  0.01304   =>   CDf =  0.00836    CDp =  0.00468

 Side 1  free  transition at x/c =  0.3005   36
 Side 2  free  transition at x/c =  0.0386   26

   5   rms: 0.8000E-06   max: -.3088E-05   T at   26  2
       a = -3.000      CL = -0.1768
      Cm =  0.0164     CD =  0.01304   =>   CDf =  0.00836    CDp =  0.00468
 plradd ia,ip,cpol            2           0  2.36950815E-03

 Point added to stored polar  1
 Point written to save file  marske5_Re600k.base.pol                         
 Dump file unspecified or not available
 Calculating wake trajectory ...
 Calculating source influence matrix ...

 Solving BL system ...

 Side 1  free  transition at x/c =  0.3005   36
 Side 2  free  transition at x/c =  0.0386   26

   1   rms: 0.9368E-01   max: 0.7780E+00   C at   36  1
       a = -2.500      CL = -0.1282
      Cm =  0.0183     CD =  0.01264   =>   CDf =  0.00836    CDp =  0.00428

 Side 1  free  transition at x/c =  0.2802   35
 Side 2  free  transition at x/c =  0.0419   26

   2   rms: 0.3191E-01   max: -.1941E+00   D at   27  2
       a = -2.500      CL = -0.1272
      Cm =  0.0182     CD =  0.01272   =>   CDf =  0.00847    CDp =  0.00425

 Side 1  free  transition at x/c =  0.2801   35
 Side 2  free  transition at x/c =  0.0418   26

   3   rms: 0.1350E-02   max: 0.1082E-01   C at   35  1
       a = -2.500      CL = -0.1275
      Cm =  0.0183     CD =  0.01275   =>   CDf =  0.00848    CDp =  0.00427

 Side 1  free  transition at x/c =  0.2798   35
 Side 2  free  transition at x/c =  0.0418   26

   4   rms: 0.2410E-05   max: -.2520E-04   D at   36  1
       a = -2.500      CL = -0.1275
      Cm =  0.0183     CD =  0.01275   =>   CDf =  0.00848    CDp =  0.00427
 plradd ia,ip,cpol            3           0  4.06285655E-03

 Point added to stored polar  1
 Point written to save file  marske5_Re600k.base.pol                         
 Dump file unspecified or not available
 Calculating wake trajectory ...
 Calculating source influence matrix ...

 Solving BL system ...

 Side 1  free  transition at x/c =  0.2798   35
 Side 2  free  transition at x/c =  0.0418   26

   1   rms: 0.8655E-01   max: -.5095E+00   T at   26  2   RLX: 0.981
       a = -2.000      CL = -0.0780
      Cm =  0.0199     CD =  0.01258   =>   CDf =  0.00854    CDp =  0.00404

 Side 1  free  transition at x/c =  0.2660   35
 Side 2  free  transition at x/c =  0.0450   26

   2   rms: 0.2500E-01   max: 0.3767E+00   D at   26  2
       a = -2.000      CL = -0.0807
      Cm =  0.0206     CD =  0.01221   =>   CDf =  0.00857    CDp =  0.00364

 Side 1  free  transition at x/c =  0.2658   35
 Side 2  free  transition at x/c =  0.0450   26

   3   rms: 0.4681E-02   max: 0.5434E-01   D at   26  2
       a = -2.000      CL = -0.0805
      Cm =  0.0206     CD =  0.01223   =>   CDf =  0.00855    CDp =  0.00368

 Side 1  free  transition at x/c =  0.2655   35
 Side 2  free  transition at x/c =  0.0449   26

   4   rms: 0.3273E-04   max: 0.3888E-03   D at   26  2
       a = -2.000      CL = -0.0805
      Cm =  0.0206     CD =  0.01223   =>   CDf =  0.00854    CDp =  0.00368
 plradd ia,ip,cpol            4           0  4.06285655E-03

 Point added to stored polar  1
 Point written to save file  marske5_Re600k.base.pol                         
 Dump file unspecified or not available
 Calculating wake trajectory ...
 Calculating source influence matrix ...

 Solving BL system ...

 Side 1  free  transition at x/c =  0.2655   35
 Side 2  free  transition at x/c =  0.0449   26

   1   rms: 0.8686E-01   max: -.4851E+00   T at   26  2
       a = -1.500      CL = -0.0310
      Cm =  0.0224     CD =  0.01190   =>   CDf =  0.00860    CDp =  0.00330

 Side 1  free  transition at x/c =  0.2529   36
 Side 2  free  transition at x/c =  0.0488   25

   2   rms: 0.2830E-01   max: -.2389E+00   D at   25  2
       a = -1.500      CL = -0.0313
      Cm =  0.0225     CD =  0.01208   =>   CDf =  0.00863    CDp =  0.00345

 Side 1  free  transition at x/c =  0.2519   35
 Side 2  free  transition at x/c =  0.0489   25

   3   rms: 0.2925E-02   max: -.3497E-01   D at   35  1
       a = -1.500      CL = -0.0309
      Cm =  0.0224     CD =  0.01207   =>   CDf =  0.00865    CDp =  0.00342

 Side 1  free  transition at x/c =  0.2522   35
 Side 2  free  transition at x/c =  0.0489   25

   4   rms: 0.1976E-04   max: -.2815E-03   D at   36  1
       a = -1.500      CL = -0.0309
      Cm =  0.0224     CD =  0.01207   =>   CDf =  0.00865    CDp =  0.00342
 plradd ia,ip,cpol            5           0  4.06285655E-03

 Point added to stored polar  1
 Point written to save file  marske5_Re600k.base.pol                         
 Dump file unspecified or not available
 Calculating wake trajectory ...
 Calculating source influence matrix ...

 Solving BL system ...

 Side 1  free  transition at x/c =  0.2522   35
 Side 2  free  transition at x/c =  0.0489   25

   1   rms: 0.8451E-01   max: -.4285E+00   T at   25  2
       a = -1.000      CL =  0.0210
      Cm =  0.0238     CD =  0.01180   =>   CDf =  0.00865    CDp =  0.00316

 Side 1  free  transition at x/c =  0.2433   35
 Side 2  free  transition at x/c =  0.0548   26

   2   rms: 0.1929E-01   max: 0.4165E+00   D at   26  2
       a = -1.000      CL =  0.0188
      Cm =  0.0242     CD =  0.01174   =>   CDf =  0.00867    CDp =  0.00308

 Side 1  free  transition at x/c =  0.2431   35
 Side 2  free  transition at x/c =  0.0548   26

   3   rms: 0.3508E-02   max: 0.5356E-01   D at   26  2
       a = -1.000      CL =  0.0189
      Cm =  0.0242     CD =  0.01175   =>   CDf =  0.00865    CDp =  0.00310

 Side 1  free  transition at x/c =  0.2430   35
 Side 2  free  transition at x/c =  0.0547   26

   4   rms: 0.3842E-04   max: 0.5640E-03   D at   26  2
       a = -1.000      CL =  0.0189
      Cm =  0.0242     CD =  0.01175   =>   CDf =  0.00865    CDp =  0.00310
 plradd ia,ip,cpol            6           0  0.10927804    

 Point added to stored polar  1
 Point written to save file  marske5_Re600k.base.pol                         
 Dump file unspecified or not available
 Calculating wake trajectory ...
 Calculating source influence matrix ...

 Solving BL system ...

 Side 1  free  transition at x/c =  0.2430   35
 Side 2  free  transition at x/c =  0.0547   26

   1   rms: 0.8795E-01   max: -.5048E+00   T at   26  2   RLX: 0.991
       a = -0.500      CL =  0.0691
      Cm =  0.0257     CD =  0.01164   =>   CDf =  0.00868    CDp =  0.00296

 Side 1  free  transition at x/c =  0.2339   35
 Side 2  free  transition at x/c =  0.0631   26

   2   rms: 0.2358E-01   max: -.3027E+00   C at   26  2
       a = -0.500      CL =  0.0687
      Cm =  0.0260     CD =  0.01161   =>   CDf =  0.00871    CDp =  0.00289

 Side 1  free  transition at x/c =  0.2332   35
 Side 2  free  transition at x/c =  0.0671   27

   3   rms: 0.1779E-01   max: -.2511E+00   D at   26  2
       a = -0.500      CL =  0.0684
      Cm =  0.0260     CD =  0.01159   =>   CDf =  0.00870    CDp =  0.00289

 Side 1  free  transition at x/c =  0.2331   35
 Side 2  free  transition at x/c =  0.0751   27

   4   rms: 0.1394E-01   max: -.2582E+00   D at   27  2
       a = -0.500      CL =  0.0683
      Cm =  0.0260     CD =  0.01158   =>   CDf =  0.00865    CDp =  0.00293

 Side 1  free  transition at x/c =  0.2331   35
 Side 2  free  transition at x/c =  0.0715   27

   5   rms: 0.9755E-03   max: 0.1362E-01   C at   27  2
       a = -0.500      CL =  0.0685
      Cm =  0.0260     CD =  0.01160   =>   CDf =  0.00867    CDp =  0.00294

 Side 1  free  transition at x/c =  0.2331   35
 Side 2  free  transition at x/c =  0.0712   27

   6   rms: 0.5915E-05   max: 0.1103E-03   C at   27  2
       a = -0.500      CL =  0.0685
      Cm =  0.0260     CD =  0.01160   =>   CDf =  0.00867    CDp =  0.00293
 plradd ia,ip,cpol            7           0  0.10927804    

 Point added to stored polar  1
 Point written to save file  marske5_Re600k.base.pol                         
 Dump file unspecified or not available
 Calculating wake trajectory ...
 Calculating source influence matrix ...

 Solving BL system ...

 Side 1  free  transition at x/c =  0.2331   35
 Side 2  free  transition at x/c =  0.0712   27

   1   rms: 0.2006E+00   max: -.3636E+01   C at   27  2   RLX: 0.138
       a =  0.000      CL =  0.0751
      Cm =  0.0263     CD =  0.01153   =>   CDf =  0.00867    CDp =  0.00286

 Side 1  free  transition at x/c =  0.2322   35
 Side 2  free  transition at x/c =  0.0787   28

   2   rms: 0.2418E+00   max: -.3794E+01   C at   28  2   RLX: 0.132
       a =  0.000      CL =  0.0806
      Cm =  0.0267     CD =  0.01146   =>   CDf =  0.00864    CDp =  0.00281

 Side 1  free  transition at x/c =  0.2314   35
 Side 2  free  transition at x/c =  0.1170   30

   3   rms: 0.1130E+01   max: -.2776E+02   C at   30  2   RLX: 0.018
       a =  0.000      CL =  0.0810
      Cm =  0.0268     CD =  0.01134   =>   CDf =  0.00849    CDp =  0.00285

 Side 1  free  transition at x/c =  0.2313   35
 Side 2  free  transition at x/c =  0.1291   31

   4   rms: 0.2018E+01   max: -.4958E+02   C at   31  2   RLX: 0.010
       a =  0.000      CL =  0.0811
      Cm =  0.0269     CD =  0.01128   =>   CDf =  0.00845    CDp =  0.00283

 Side 1  free  transition at x/c =  0.2313   35
 Side 2  free  transition at x/c =  0.1397   32

   5   rms: 0.1733E+01   max: -.4124E+02   C at   32  2   RLX: 0.012
       a =  0.000      CL =  0.0810
      Cm =  0.0270     CD =  0.01123   =>   CDf =  0.00841    CDp =  0.00281

 Side 1  free  transition at x/c =  0.2312   35
 Side 2  free  transition at x/c =  0.1492   32

   6   rms: 0.2664E+01   max: -.6439E+02   C at   32  2   RLX: 0.008
       a =  0.000      CL =  0.0810
      Cm =  0.0271     CD =  0.01121   =>   CDf =  0.00839    CDp =  0.00283

 Side 1  free  transition at x/c =  0.2312   35
 Side 2  free  transition at x/c =  0.1589   33

   7   rms: 0.1953E+01   max: -.4687E+02   C at   33  2   RLX: 0.011
       a =  0.000      CL =  0.0808
      Cm =  0.0272     CD =  0.01116   =>   CDf =  0.00835    CDp =  0.00281

 Side 1  free  transition at x/c =  0.2312   35
 Side 2  free  transition at x/c =  0.1717   33

   8   rms: 0.3343E+01   max: -.7841E+02   C at   33  2   RLX: 0.006
       a =  0.000      CL =  0.0807
      Cm =  0.0273     CD =  0.01113   =>   CDf =  0.00832    CDp =  0.00282

 Side 1  free  transition at x/c =  0.2312   35
 Side 2  free  transition at x/c =  0.1812   34

   9   rms: 0.2403E+01   max: -.5802E+02   C at   34  2   RLX: 0.009
       a =  0.000      CL =  0.0805
      Cm =  0.0273     CD =  0.01109   =>   CDf =  0.00829    CDp =  0.00280

 Side 1  free  transition at x/c =  0.2312   35
 Side 2  free  transition at x/c =  0.1944   35

  10   rms: 0.2062E+01   max: -.4872E+02   C at   35  2   RLX: 0.010
       a =  0.000      CL =  0.0802
      Cm =  0.0275     CD =  0.01103   =>   CDf =  0.00825    CDp =  0.00278

 Side 1  free  transition at x/c =  0.2312   35
 Side 2  free  transition at x/c =  0.2073   35

  11   rms: 0.3343E+01   max: -.7755E+02   C at   35  2   RLX: 0.006
       a =  0.000      CL =  0.0800
      Cm =  0.0275     CD =  0.01100   =>   CDf =  0.00820    CDp =  0.00280

 Side 1  free  transition at x/c =  0.2312   35
 Side 2  free  transition at x/c =  0.2168   36

  12   rms: 0.2603E+01   max: -.6189E+02   C at   36  2   RLX: 0.008
       a =  0.000      CL =  0.0798
      Cm =  0.0276     CD =  0.01095   =>   CDf =  0.00817    CDp =  0.00278

 Side 1  free  transition at x/c =  0.2311   35
 Side 2  free  transition at x/c =  0.2285   37

  13   rms: 0.2084E+01   max: -.4855E+02   C at   37  2   RLX: 0.010
       a =  0.000      CL =  0.0794
      Cm =  0.0278     CD =  0.01089   =>   CDf =  0.00813    CDp =  0.00276

 Side 1  free  transition at x/c =  0.2311   35
 Side 2  free  transition at x/c =  0.2409   37

  14   rms: 0.3201E+01   max: -.7294E+02   C at   37  2   RLX: 0.007
       a =  0.000      CL =  0.0793
      Cm =  0.0278     CD =  0.01087   =>   CDf =  0.00809    CDp =  0.00278

 Side 1  free  transition at x/c =  0.2311   35
 Side 2  free  transition at x/c =  0.2504   38

  15   rms: 0.2326E+01   max: -.5434E+02   C at   38  2   RLX: 0.009
       a =  0.000      CL =  0.0790
      Cm =  0.0279     CD =  0.01082   =>   CDf =  0.00805    CDp =  0.00276

 Side 1  free  transition at x/c =  0.2311   35
 Side 2  free  transition at x/c =  0.2632   39

  16   rms: 0.1862E+01   max: -.4279E+02   C at   39  2   RLX: 0.012
       a =  0.000      CL =  0.0786
      Cm =  0.0281     CD =  0.01076   =>   CDf =  0.00801    CDp =  0.00275

 Side 1  free  transition at x/c =  0.2311   35
 Side 2  free  transition at x/c =  0.2767   39

  17   rms: 0.2728E+01   max: -.6222E+02   C at   39  2   RLX: 0.008
       a =  0.000      CL =  0.0785
      Cm =  0.0282     CD =  0.01073   =>   CDf =  0.00797    CDp =  0.00276

 Side 1  free  transition at x/c =  0.2311   35
 Side 2  free  transition at x/c =  0.2814   40

  18   rms: 0.1516E+01   max: -.3439E+02   C at   40  2   RLX: 0.015
       a =  0.000      CL =  0.0782
      Cm =  0.0283     CD =  0.01068   =>   CDf =  0.00795    CDp =  0.00273

 Side 1  free  transition at x/c =  0.2311   35
 Side 2  free  transition at x/c =  0.2809   40

  19   rms: 0.1273E+01   max: -.2852E+02   C at   40  2   RLX: 0.018
       a =  0.000      CL =  0.0782
      Cm =  0.0285     CD =  0.01068   =>   CDf =  0.00796    CDp =  0.00273

 Side 1  free  transition at x/c =  0.2311   35
 Side 2  free  transition at x/c =  0.2910   40

  20   rms: 0.1458E+01   max: -.3363E+02   C at   40  2   RLX: 0.015
       a =  0.000      CL =  0.0782
      Cm =  0.0286     CD =  0.01066   =>   CDf =  0.00792    CDp =  0.00274

 Side 1  free  transition at x/c =  0.2310   35
 Side 2  free  transition at x/c =  0.3027   41

  21   rms: 0.1330E+01   max: -.3066E+02   C at   41  2   RLX: 0.016
       a =  0.000      CL =  0.0779
      Cm =  0.0287     CD =  0.01060   =>   CDf =  0.00788    CDp =  0.00272

 Side 1  free  transition at x/c =  0.2310   35
 Side 2  free  transition at x/c =  0.3043   41

  22   rms: 0.1027E+01   max: -.2359E+02   C at   41  2   RLX: 0.021
       a =  0.000      CL =  0.0780
      Cm =  0.0288     CD =  0.01059   =>   CDf =  0.00787    CDp =  0.00272

 Side 1  free  transition at x/c =  0.2309   35
 Side 2  free  transition at x/c =  0.3225   42

  23   rms: 0.1473E+01   max: -.3363E+02   C at   42  2   RLX: 0.015
       a =  0.000      CL =  0.0776
      Cm =  0.0290     CD =  0.01051   =>   CDf =  0.00781    CDp =  0.00270

 Side 1  free  transition at x/c =  0.2309   35
 Side 2  free  transition at x/c =  0.3377   43

  24   rms: 0.1454E+01   max: -.3309E+02   C at   43  2   RLX: 0.015
       a =  0.000      CL =  0.0772
      Cm =  0.0291     CD =  0.01044   =>   CDf =  0.00775    CDp =  0.00269

 Side 1  free  transition at x/c =  0.2309   35
 Side 2  free  transition at x/c =  0.3525   43

  25   rms: 0.2218E+01   max: -.4741E+02   C at   43  2   RLX: 0.011
       a =  0.000      CL =  0.0769
      Cm =  0.0292     CD =  0.01040   =>   CDf =  0.00770    CDp =  0.00269

 Side 1  free  transition at x/c =  0.2309   35
 Side 2  free  transition at x/c =  0.3639   44

  26   rms: 0.1898E+01   max: -.4163E+02   C at   44  2   RLX: 0.012
       a =  0.000      CL =  0.0765
      Cm =  0.0294     CD =  0.01034   =>   CDf =  0.00766    CDp =  0.00268

 Side 1  free  transition at x/c =  0.2309   35
 Side 2  free  transition at x/c =  0.3763   45

  27   rms: 0.1692E+01   max: -.3755E+02   C at   45  2   RLX: 0.013
       a =  0.000      CL =  0.0761
      Cm =  0.0295     CD =  0.01028   =>   CDf =  0.00762    CDp =  0.00266

 Side 1  free  transition at x/c =  0.2309   35
 Side 2  free  transition at x/c =  0.3892   46

  28   rms: 0.1528E+01   max: -.3417E+02   C at   46  2   RLX: 0.015
       a =  0.000      CL =  0.0756
      Cm =  0.0297     CD =  0.01022   =>   CDf =  0.00757    CDp =  0.00265

 Side 1  free  transition at x/c =  0.2308   35
 Side 2  free  transition at x/c =  0.4029   46

  29   rms: 0.2130E+01   max: -.4445E+02   C at   46  2   RLX: 0.011
       a =  0.000      CL =  0.0753
      Cm =  0.0298     CD =  0.01018   =>   CDf =  0.00752    CDp =  0.00266

 Side 1  free  transition at x/c =  0.2308   35
 Side 2  free  transition at x/c =  0.4146   47

  30   rms: 0.1755E+01   max: -.3786E+02   C at   47  2   RLX: 0.013
       a =  0.000      CL =  0.0748
      Cm =  0.0299     CD =  0.01012   =>   CDf =  0.00748    CDp =  0.00264

 Side 1  free  transition at x/c =  0.2308   35
 Side 2  free  transition at x/c =  0.4287   48

  31   rms: 0.1541E+01   max: -.3389E+02   C at   48  2   RLX: 0.015
       a =  0.000      CL =  0.0743
      Cm =  0.0301     CD =  0.01006   =>   CDf =  0.00743    CDp =  0.00263

 Side 1  free  transition at x/c =  0.2308   35
 Side 2  free  transition at x/c =  0.4444   49

  32   rms: 0.1389E+01   max: -.3075E+02   C at   49  2   RLX: 0.016
       a =  0.000      CL =  0.0737
      Cm =  0.0303     CD =  0.01000   =>   CDf =  0.00738    CDp =  0.00262

 TRCHEK2: N2 convergence failed.
 x:  0.45963  0.47739  0.47739  N:  8.974  9.000  9.001  Nx:   1.530   dN: 0.142E-02
 Side 1  free  transition at x/c =  0.2308   35
 Side 2  free  transition at x/c =  0.4602   50

  33   rms: 0.1156E+01   max: -.2557E+02   C at   50  2   RLX: 0.020
       a =  0.000      CL =  0.0731
      Cm =  0.0305     CD =  0.00993   =>   CDf =  0.00733    CDp =  0.00260

 Side 1  free  transition at x/c =  0.2308   35
 Side 2  free  transition at x/c =  0.4748   50

  34   rms: 0.1532E+01   max: -.3243E+02   C at   50  2   RLX: 0.015
       a =  0.000      CL =  0.0727
      Cm =  0.0306     CD =  0.00989   =>   CDf =  0.00728    CDp =  0.00261

 Side 1  free  transition at x/c =  0.2308   35
 Side 2  free  transition at x/c =  0.4887   51

  35   rms: 0.1323E+01   max: -.2868E+02   C at   51  2   RLX: 0.017
       a =  0.000      CL =  0.0720
      Cm =  0.0309     CD =  0.00982   =>   CDf =  0.00723    CDp =  0.00260

 Side 1  free  transition at x/c =  0.2308   35
 Side 2  free  transition at x/c =  0.4954   52

  36   rms: 0.8475E+00   max: -.1859E+02   C at   52  2   RLX: 0.027
       a =  0.000      CL =  0.0714
      Cm =  0.0311     CD =  0.00977   =>   CDf =  0.00720    CDp =  0.00257

 Side 1  free  transition at x/c =  0.2308   35
 Side 2  free  transition at x/c =  0.4994   52

  37   rms: 0.8643E+00   max: -.1903E+02   C at   52  2   RLX: 0.026
       a =  0.000      CL =  0.0710
      Cm =  0.0312     CD =  0.00976   =>   CDf =  0.00719    CDp =  0.00257

 Side 1  free  transition at x/c =  0.2307   35
 Side 2  free  transition at x/c =  0.5058   52

  38   rms: 0.8521E+00   max: -.1855E+02   C at   52  2   RLX: 0.027
       a =  0.000      CL =  0.0708
      Cm =  0.0314     CD =  0.00974   =>   CDf =  0.00716    CDp =  0.00258

 Side 1  free  transition at x/c =  0.2307   35
 Side 2  free  transition at x/c =  0.5151   53

  39   rms: 0.6616E+00   max: -.1452E+02   C at   53  2   RLX: 0.034
       a =  0.000      CL =  0.0703
      Cm =  0.0316     CD =  0.00968   =>   CDf =  0.00712    CDp =  0.00255

 Side 1  free  transition at x/c =  0.2307   35
 Side 2  free  transition at x/c =  0.5208   53

  40   rms: 0.6785E+00   max: -.1480E+02   C at   53  2   RLX: 0.034
       a =  0.000      CL =  0.0701
      Cm =  0.0318     CD =  0.00966   =>   CDf =  0.00710    CDp =  0.00256

 Side 1  free  transition at x/c =  0.2306   35
 Side 2  free  transition at x/c =  0.5360   54

  41   rms: 0.7118E+00   max: -.1552E+02   C at   54  2   RLX: 0.032
       a =  0.000      CL =  0.0694
      Cm =  0.0321     CD =  0.00958   =>   CDf =  0.00704    CDp =  0.00254

 Side 1  free  transition at x/c =  0.2306   35
 Side 2  free  transition at x/c =  0.5540   55

  42   rms: 0.6633E+00   max: -.1439E+02   C at   55  2   RLX: 0.035
       a =  0.000      CL =  0.0686
      Cm =  0.0324     CD =  0.00950   =>   CDf =  0.00697    CDp =  0.00252

 Side 1  free  transition at x/c =  0.2305   35
 Side 2  free  transition at x/c =  0.5548   55

  43   rms: 0.5463E+00   max: -.1185E+02   C at   55  2   RLX: 0.042
       a =  0.000      CL =  0.0683
      Cm =  0.0326     CD =  0.00949   =>   CDf =  0.00697    CDp =  0.00252

 Side 1  free  transition at x/c =  0.2305   35
 Side 2  free  transition at x/c =  0.5536   55

  44   rms: 0.4634E+00   max: -.1008E+02   C at   55  2   RLX: 0.050
       a =  0.000      CL =  0.0682
      Cm =  0.0327     CD =  0.00949   =>   CDf =  0.00698    CDp =  0.00251

 Side 1  free  transition at x/c =  0.2304   35
 Side 2  free  transition at x/c =  0.5732   56

  45   rms: 0.4767E+00   max: -.1030E+02   C at   56  2   RLX: 0.049
       a =  0.000      CL =  0.0676
      Cm =  0.0330     CD =  0.00940   =>   CDf =  0.00690    CDp =  0.00250

 Side 1  free  transition at x/c =  0.2304   35
 Side 2  free  transition at x/c =  0.5850   56

  46   rms: 0.5891E+00   max: -.1221E+02   C at   56  2   RLX: 0.041
[...]
       a = 12.500      CL =  1.4218
      Cm =  0.0380     CD =  0.02107   =>   CDf =  0.00558    CDp =  0.01549

 Side 1  free  transition at x/c =  0.1432   48
 Side 2 forced transition at x/c =  1.0000   63

   2   rms: 0.9494E-03   max: 0.9824E-02   D at   60  2
       a = 12.500      CL =  1.4216
      Cm =  0.0380     CD =  0.02108   =>   CDf =  0.00548    CDp =  0.01560

 Side 1  free  transition at x/c =  0.1431   48
 Side 2 forced transition at x/c =  1.0000   63

   3   rms: 0.1271E-04   max: 0.1375E-03   D at   60  2
       a = 12.500      CL =  1.4216
      Cm =  0.0380     CD =  0.02108   =>   CDf =  0.00548    CDp =  0.01560
 plradd ia,ip,cpol           39           0  5.00233509E-02

 Point added to stored polar  1
 Point written to save file  marske5_Re600k.base.pol                         
 Dump file unspecified or not available
 Calculating wake trajectory ...
 Calculating source influence matrix ...

 Solving BL system ...

 Side 1  free  transition at x/c =  0.1431   48
 Side 2 forced transition at x/c =  1.0000   63

   1   rms: 0.3189E-01   max: -.9375E-01   D at   61  2
       a = 12.750      CL =  1.4357
      Cm =  0.0401     CD =  0.02137   =>   CDf =  0.00548    CDp =  0.01589

 Side 1  free  transition at x/c =  0.1418   48
 Side 2 forced transition at x/c =  1.0000   63

   2   rms: 0.3252E-02   max: -.2733E-01   D at   48  1
       a = 12.750      CL =  1.4354
      Cm =  0.0401     CD =  0.02132   =>   CDf =  0.00538    CDp =  0.01594

 Side 1  free  transition at x/c =  0.1420   48
 Side 2 forced transition at x/c =  1.0000   63

   3   rms: 0.1536E-03   max: 0.6052E-03   D at   62  2
       a = 12.750      CL =  1.4355
      Cm =  0.0401     CD =  0.02133   =>   CDf =  0.00538    CDp =  0.01594

 Side 1  free  transition at x/c =  0.1420   48
 Side 2 forced transition at x/c =  1.0000   63

   4   rms: 0.1409E-05   max: -.5983E-05   D at   62  2
       a = 12.750      CL =  1.4355
      Cm =  0.0401     CD =  0.02133   =>   CDf =  0.00538    CDp =  0.01594
 plradd ia,ip,cpol           40           0  5.00233509E-02

 Point added to stored polar  1
 Point written to save file  marske5_Re600k.base.pol                         
 Dump file unspecified or not available
 Calculating wake trajectory ...
 Calculating source influence matrix ...

 Solving BL system ...

 Side 1  free  transition at x/c =  0.1420   48
 Side 2 forced transition at x/c =  1.0000   63

   1   rms: 0.3157E-01   max: -.9142E-01   D at   62  2
       a = 13.000      CL =  1.4492
      Cm =  0.0421     CD =  0.02160   =>   CDf =  0.00514    CDp =  0.01646

 Side 1  free  transition at x/c =  0.1405   49
 Side 2 forced transition at x/c =  1.0000   62

   2   rms: 0.2720E-02   max: -.2768E-01   D at    3  1
       a = 13.000      CL =  1.4490
      Cm =  0.0421     CD =  0.02158   =>   CDf =  0.00530    CDp =  0.01628

 Side 1  free  transition at x/c =  0.1405   49
 Side 2 forced transition at x/c =  1.0000   62

   3   rms: 0.8370E-03   max: -.1021E-01   D at    4  1
       a = 13.000      CL =  1.4491
      Cm =  0.0421     CD =  0.02158   =>   CDf =  0.00530    CDp =  0.01628

 Side 1  free  transition at x/c =  0.1405   49
 Side 2 forced transition at x/c =  1.0000   62

   4   rms: 0.8938E-06   max: 0.7156E-05   D at    8  1
       a = 13.000      CL =  1.4491
      Cm =  0.0421     CD =  0.02158   =>   CDf =  0.00530    CDp =  0.01628
 plradd ia,ip,cpol           41           0  5.00233509E-02

 Point added to stored polar  1
 Point written to save file  marske5_Re600k.base.pol                         
 Dump file unspecified or not available
 Calculating wake trajectory ...
 Calculating source influence matrix ...

 Solving BL system ...

 Side 1  free  transition at x/c =  0.1405   49
 Side 2 forced transition at x/c =  1.0000   62

   1   rms: 0.3203E-01   max: -.9076E-01   D at   61  2
       a = 13.250      CL =  1.4625
      Cm =  0.0441     CD =  0.02191   =>   CDf =  0.00530    CDp =  0.01660

 Side 1  free  transition at x/c =  0.1390   49
 Side 2 forced transition at x/c =  1.0000   62

   2   rms: 0.1114E-02   max: -.8693E-02   D at   49  1
       a = 13.250      CL =  1.4622
      Cm =  0.0442     CD =  0.02189   =>   CDf =  0.00524    CDp =  0.01666

 Side 1  free  transition at x/c =  0.1391   49
 Side 2 forced transition at x/c =  1.0000   62

   3   rms: 0.4147E-04   max: 0.1918E-03   D at   61  2
       a = 13.250      CL =  1.4622
      Cm =  0.0442     CD =  0.02189   =>   CDf =  0.00524    CDp =  0.01665
 plradd ia,ip,cpol           42           0  5.00233509E-02

 Point added to stored polar  1
 Point written to save file  marske5_Re600k.base.pol                         
 Dump file unspecified or not available
 Calculating wake trajectory ...
 Calculating source influence matrix ...

 Solving BL system ...

 Side 1  free  transition at x/c =  0.1391   49
 Side 2 forced transition at x/c =  1.0000   62

   1   rms: 0.3067E-01   max: -.9535E-01   D at   61  2
       a = 13.500      CL =  1.4739
      Cm =  0.0465     CD =  0.02225   =>   CDf =  0.00524    CDp =  0.01701

 Side 1  free  transition at x/c =  0.1374   49
 Side 2 forced transition at x/c =  1.0000   62

   2   rms: 0.3601E-02   max: -.3207E-01   D at   49  1
       a = 13.500      CL =  1.4715
      Cm =  0.0469     CD =  0.02218   =>   CDf =  0.00519    CDp =  0.01700

 Side 1  free  transition at x/c =  0.1377   49
 Side 2 forced transition at x/c =  1.0000   62

   3   rms: 0.2419E-03   max: -.1039E-02   D at  100  1
       a = 13.500      CL =  1.4717
      Cm =  0.0469     CD =  0.02218   =>   CDf =  0.00519    CDp =  0.01699

 Side 1  free  transition at x/c =  0.1377   49
 Side 2 forced transition at x/c =  1.0000   62

   4   rms: 0.3786E-05   max: 0.1462E-04   D at   61  2
       a = 13.500      CL =  1.4717
      Cm =  0.0469     CD =  0.02218   =>   CDf =  0.00519    CDp =  0.01699
 plradd ia,ip,cpol           43           0  5.00233509E-02

 Point added to stored polar  1
 Point written to save file  marske5_Re600k.base.pol                         
 Dump file unspecified or not available
 Calculating wake trajectory ...
 Calculating source influence matrix ...

 Solving BL system ...

 Side 1  free  transition at x/c =  0.1377   49
 Side 2 forced transition at x/c =  1.0000   62

   1   rms: 0.2967E-01   max: -.1034E+00   D at   61  2
       a = 13.750      CL =  1.4803
      Cm =  0.0497     CD =  0.02237   =>   CDf =  0.00519    CDp =  0.01718

 Side 1  free  transition at x/c =  0.1364   49
 Side 2 forced transition at x/c =  1.0000   62

   2   rms: 0.1854E-02   max: 0.1557E-01   C at   62  2
       a = 13.750      CL =  1.4809
      Cm =  0.0495     CD =  0.02242   =>   CDf =  0.00516    CDp =  0.01726

 Side 1  free  transition at x/c =  0.1362   49
 Side 2 forced transition at x/c =  1.0000   62

   3   rms: 0.5358E-04   max: 0.3358E-03   D at   98  1
       a = 13.750      CL =  1.4809
      Cm =  0.0495     CD =  0.02241   =>   CDf =  0.00516    CDp =  0.01726
 plradd ia,ip,cpol           44           0  5.00233509E-02

 Point added to stored polar  1
 Point written to save file  marske5_Re600k.base.pol                         
 Dump file unspecified or not available
 Calculating wake trajectory ...
 Calculating source influence matrix ...

 Solving BL system ...

 Side 1  free  transition at x/c =  0.1362   49
 Side 2 forced transition at x/c =  1.0000   62

   1   rms: 0.3028E-01   max: -.8505E-01   D at   61  2
       a = 14.000      CL =  1.4903
      Cm =  0.0520     CD =  0.02276   =>   CDf =  0.00489    CDp =  0.01787

 Side 1  free  transition at x/c =  0.1349   50
 Side 2 forced transition at x/c =  1.0000   61

   2   rms: 0.1881E-02   max: -.2119E-01   T at    2  1
       a = 14.000      CL =  1.4903
      Cm =  0.0518     CD =  0.02282   =>   CDf =  0.00513    CDp =  0.01769

 Side 1  free  transition at x/c =  0.1348   50
 Side 2 forced transition at x/c =  1.0000   61

   3   rms: 0.6351E-03   max: -.7934E-02   D at    4  1
       a = 14.000      CL =  1.4903
      Cm =  0.0518     CD =  0.02281   =>   CDf =  0.00513    CDp =  0.01769

 Side 1  free  transition at x/c =  0.1348   50
 Side 2 forced transition at x/c =  1.0000   61

   4   rms: 0.6512E-06   max: -.4956E-05   D at    4  1
       a = 14.000      CL =  1.4903
      Cm =  0.0518     CD =  0.02281   =>   CDf =  0.00513    CDp =  0.01769
 plradd ia,ip,cpol           45           0 -1.99935329E-03

 Point added to stored polar  1
 Point written to save file  marske5_Re600k.base.pol                         
 Dump file unspecified or not available
 Calculating wake trajectory ...
 Calculating source influence matrix ...

 Solving BL system ...

 Side 1  free  transition at x/c =  0.1348   50
 Side 2 forced transition at x/c =  1.0000   61

   1   rms: 0.3136E-01   max: 0.7583E-01   T at   50  1
       a = 14.250      CL =  1.4997
      Cm =  0.0540     CD =  0.02337   =>   CDf =  0.00513    CDp =  0.01824

 Side 1  free  transition at x/c =  0.1334   50
 Side 2 forced transition at x/c =  1.0000   61

   2   rms: 0.2204E-02   max: 0.1560E-01   D at   96  1
       a = 14.250      CL =  1.4988
      Cm =  0.0539     CD =  0.02350   =>   CDf =  0.00511    CDp =  0.01840

 Side 1  free  transition at x/c =  0.1332   50
 Side 2 forced transition at x/c =  1.0000   61

   3   rms: 0.1313E-03   max: 0.4770E-03   D at   95  1
       a = 14.250      CL =  1.4987
      Cm =  0.0539     CD =  0.02351   =>   CDf =  0.00512    CDp =  0.01839

 Side 1  free  transition at x/c =  0.1332   50
 Side 2 forced transition at x/c =  1.0000   61

   4   rms: 0.4300E-05   max: 0.1202E-04   D at   93  1
       a = 14.250      CL =  1.4987
      Cm =  0.0539     CD =  0.02351   =>   CDf =  0.00512    CDp =  0.01839
 plradd ia,ip,cpol           46           0 -2.29877699E-03

 Point added to stored polar  1
 Point written to save file  marske5_Re600k.base.pol                         
 Dump file unspecified or not available
 Calculating wake trajectory ...
 Calculating source influence matrix ...

 Solving BL system ...

 Side 1  free  transition at x/c =  0.1332   50
 Side 2 forced transition at x/c =  1.0000   61

   1   rms: 0.3406E-01   max: 0.9107E-01   T at   50  1
       a = 14.500      CL =  1.5068
      Cm =  0.0558     CD =  0.02448   =>   CDf =  0.00512    CDp =  0.01936

 Side 1  free  transition at x/c =  0.1311   49
 Side 2 forced transition at x/c =  1.0000   61

   2   rms: 0.1279E-01   max: -.1128E+00   D at   49  1
       a = 14.500      CL =  1.5056
      Cm =  0.0559     CD =  0.02427   =>   CDf =  0.00503    CDp =  0.01924

 Side 1  free  transition at x/c =  0.1315   49
 Side 2 forced transition at x/c =  1.0000   61

   3   rms: 0.1688E-02   max: -.7460E-02   D at   95  1
       a = 14.500      CL =  1.5069
      Cm =  0.0558     CD =  0.02426   =>   CDf =  0.00504    CDp =  0.01922

 Side 1  free  transition at x/c =  0.1315   49
 Side 2 forced transition at x/c =  1.0000   61

   4   rms: 0.1008E-04   max: 0.1113E-03   D at   93  1
       a = 14.500      CL =  1.5069
      Cm =  0.0558     CD =  0.02426   =>   CDf =  0.00504    CDp =  0.01922
 plradd ia,ip,cpol           47           0 -1.99935329E-03

 Point added to stored polar  1
 Point written to save file  marske5_Re600k.base.pol                         
 Dump file unspecified or not available
 Calculating wake trajectory ...
 Calculating source influence matrix ...

 Solving BL system ...

 Side 1  free  transition at x/c =  0.1315   49
 Side 2 forced transition at x/c =  1.0000   61

   1   rms: 0.3172E-01   max: -.7154E-01   C at   49  1
       a = 14.750      CL =  1.5169
      Cm =  0.0573     CD =  0.02499   =>   CDf =  0.00504    CDp =  0.01995

 Side 1  free  transition at x/c =  0.1302   49
 Side 2 forced transition at x/c =  1.0000   61

   2   rms: 0.3703E-02   max: -.3839E-01   D at   49  1
       a = 14.750      CL =  1.5162
      Cm =  0.0573     CD =  0.02496   =>   CDf =  0.00492    CDp =  0.02004

 Side 1  free  transition at x/c =  0.1304   49
 Side 2 forced transition at x/c =  1.0000   61

   3   rms: 0.3147E-03   max: -.1380E-02   D at   94  1
       a = 14.750      CL =  1.5164
      Cm =  0.0573     CD =  0.02495   =>   CDf =  0.00492    CDp =  0.02003

 Side 1  free  transition at x/c =  0.1304   49
 Side 2 forced transition at x/c =  1.0000   61

   4   rms: 0.4220E-05   max: -.1478E-04   D at   69  2
       a = 14.750      CL =  1.5164
      Cm =  0.0573     CD =  0.02495   =>   CDf =  0.00492    CDp =  0.02004
 plradd ia,ip,cpol           48           0 -1.99935329E-03

 Point added to stored polar  1
 Point written to save file  marske5_Re600k.base.pol                         
 Dump file unspecified or not available
 Calculating wake trajectory ...
 Calculating source influence matrix ...

 Solving BL system ...

 Side 1  free  transition at x/c =  0.1304   49
 Side 2 forced transition at x/c =  1.0000   61

   1   rms: 0.3215E-01   max: -.8786E-01   C at   49  1
       a = 15.000      CL =  1.5264
      Cm =  0.0585     CD =  0.02568   =>   CDf =  0.00492    CDp =  0.02076

 Side 1  free  transition at x/c =  0.1283   49
 Side 2 forced transition at x/c =  1.0000   61

   2   rms: 0.3950E-02   max: -.4438E-01   D at   49  1
       a = 15.000      CL =  1.5263
      Cm =  0.0584     CD =  0.02563   =>   CDf =  0.00482    CDp =  0.02081

 Side 1  free  transition at x/c =  0.1287   49
 Side 2 forced transition at x/c =  1.0000   61

   3   rms: 0.4043E-03   max: -.1736E-02   D at   92  1
       a = 15.000      CL =  1.5266
      Cm =  0.0584     CD =  0.02562   =>   CDf =  0.00481    CDp =  0.02081

 Side 1  free  transition at x/c =  0.1286   49
 Side 2 forced transition at x/c =  1.0000   61

   4   rms: 0.7327E-05   max: -.2795E-04   D at   69  2
       a = 15.000      CL =  1.5266
      Cm =  0.0584     CD =  0.02562   =>   CDf =  0.00482    CDp =  0.02081
 plradd ia,ip,cpol           49           0 -2.29877699E-03

 Point added to stored polar  1
 Point written to save file  marske5_Re600k.base.pol                         
 Dump file unspecified or not available
 Calculating wake trajectory ...
 Calculating source influence matrix ...

 Solving BL system ...

 Side 1  free  transition at x/c =  0.1286   49
 Side 2 forced transition at x/c =  1.0000   61

   1   rms: 0.3238E-01   max: 0.8462E-01   T at   49  1
       a = 15.250      CL =  1.5373
      Cm =  0.0593     CD =  0.02640   =>   CDf =  0.00451    CDp =  0.02189

 Side 1  free  transition at x/c =  0.1262   50
 Side 2 forced transition at x/c =  1.0000   60

   2   rms: 0.4287E-02   max: -.4950E-01   D at   50  1
       a = 15.250      CL =  1.5372
      Cm =  0.0592     CD =  0.02635   =>   CDf =  0.00474    CDp =  0.02161

 Side 1  free  transition at x/c =  0.1266   50
 Side 2 forced transition at x/c =  1.0000   60

   3   rms: 0.6857E-03   max: -.6015E-02   D at    4  1
       a = 15.250      CL =  1.5375
      Cm =  0.0592     CD =  0.02634   =>   CDf =  0.00474    CDp =  0.02161

 Side 1  free  transition at x/c =  0.1266   50
 Side 2 forced transition at x/c =  1.0000   60

   4   rms: 0.1311E-04   max: -.5111E-04   D at   68  2
       a = 15.250      CL =  1.5376
      Cm =  0.0592     CD =  0.02634   =>   CDf =  0.00474    CDp =  0.02161
 plradd ia,ip,cpol           50           0 -1.99935329E-03

 Point added to stored polar  1
 Point written to save file  marske5_Re600k.base.pol                         
 Dump file unspecified or not available
 Calculating wake trajectory ...
 Calculating source influence matrix ...

 Solving BL system ...

 Side 1  free  transition at x/c =  0.1266   50
 Side 2 forced transition at x/c =  1.0000   60

   1   rms: 0.3342E-01   max: 0.7980E-01   D at   89  1
       a = 15.500      CL =  1.5478
      Cm =  0.0599     CD =  0.02733   =>   CDf =  0.00474    CDp =  0.02259

 Side 1  free  transition at x/c =  0.1230   50
 Side 2 forced transition at x/c =  1.0000   60

   2   rms: 0.1985E-01   max: -.2306E+00   D at   50  1
       a = 15.500      CL =  1.5456
      Cm =  0.0598     CD =  0.02727   =>   CDf =  0.00472    CDp =  0.02255

 Side 1  free  transition at x/c =  0.1247   50
 Side 2 forced transition at x/c =  1.0000   60

   3   rms: 0.5138E-02   max: -.2235E-01   D at   89  1
       a = 15.500      CL =  1.5486
      Cm =  0.0597     CD =  0.02713   =>   CDf =  0.00468    CDp =  0.02245

 Side 1  free  transition at x/c =  0.1245   50
 Side 2 forced transition at x/c =  1.0000   60

   4   rms: 0.1267E-03   max: 0.1070E-02   D at   87  1
       a = 15.500      CL =  1.5486
      Cm =  0.0597     CD =  0.02715   =>   CDf =  0.00469    CDp =  0.02245

 Side 1  free  transition at x/c =  0.1245   50
 Side 2 forced transition at x/c =  1.0000   60

   5   rms: 0.1839E-05   max: -.8662E-05   D at   74  2
       a = 15.500      CL =  1.5486
      Cm =  0.0597     CD =  0.02715   =>   CDf =  0.00469    CDp =  0.02245
 plradd ia,ip,cpol           51           0 -2.29877699E-03

 Point added to stored polar  1
 Point written to save file  marske5_Re600k.base.pol                         
 Dump file unspecified or not available
 Calculating wake trajectory ...
 Calculating source influence matrix ...

 Solving BL system ...

 Side 1  free  transition at x/c =  0.1245   50
 Side 2 forced transition at x/c =  1.0000   60

   1   rms: 0.3504E-01   max: -.1135E+00   D at   50  1
       a = 15.750      CL =  1.5585
      Cm =  0.0601     CD =  0.02824   =>   CDf =  0.00470    CDp =  0.02354

 Side 1  free  transition at x/c =  0.1219   50
 Side 2 forced transition at x/c =  1.0000   60

   2   rms: 0.4014E-02   max: 0.3457E-01   D at   87  1
       a = 15.750      CL =  1.5560
      Cm =  0.0601     CD =  0.02838   =>   CDf =  0.00471    CDp =  0.02367

 Side 1  free  transition at x/c =  0.1223   50
 Side 2 forced transition at x/c =  1.0000   60

   3   rms: 0.1477E-03   max: 0.1773E-02   D at   86  1
       a = 15.750      CL =  1.5559
      Cm =  0.0601     CD =  0.02838   =>   CDf =  0.00469    CDp =  0.02369

 Side 1  free  transition at x/c =  0.1222   50
 Side 2 forced transition at x/c =  1.0000   60

   4   rms: 0.5600E-05   max: 0.1853E-04   D at   70  2
       a = 15.750      CL =  1.5559
      Cm =  0.0601     CD =  0.02838   =>   CDf =  0.00469    CDp =  0.02369
 plradd ia,ip,cpol           52           0 -1.99935329E-03

 Point added to stored polar  1
 Point written to save file  marske5_Re600k.base.pol                         
 Dump file unspecified or not available
 Calculating wake trajectory ...
 Calculating source influence matrix ...

 Solving BL system ...

 Side 1  free  transition at x/c =  0.1222   50
 Side 2 forced transition at x/c =  1.0000   60

   1   rms: 0.3715E-01   max: -.1194E+00   D at   50  1
       a = 16.000      CL =  1.5611
      Cm =  0.0603     CD =  0.03004   =>   CDf =  0.00469    CDp =  0.02535

 Side 1  free  transition at x/c =  0.1206   49
 Side 2 forced transition at x/c =  1.0000   60

   2   rms: 0.4956E-02   max: -.4538E-01   C at   49  1
       a = 16.000      CL =  1.5613
      Cm =  0.0603     CD =  0.02991   =>   CDf =  0.00462    CDp =  0.02530

 Side 1  free  transition at x/c =  0.1204   49
 Side 2 forced transition at x/c =  1.0000   60

   3   rms: 0.6891E-03   max: -.3376E-02   D at   85  1
       a = 16.000      CL =  1.5617
      Cm =  0.0603     CD =  0.02990   =>   CDf =  0.00461    CDp =  0.02529

 Side 1  free  transition at x/c =  0.1204   49
 Side 2 forced transition at x/c =  1.0000   60

   4   rms: 0.2490E-04   max: -.1195E-03   D at   69  2
       a = 16.000      CL =  1.5617
      Cm =  0.0603     CD =  0.02990   =>   CDf =  0.00461    CDp =  0.02529
 plradd ia,ip,cpol           53           0 -2.29877699E-03

 Point added to stored polar  1
 Point written to save file  marske5_Re600k.base.pol                         
 Dump file unspecified or not available

.OPERva   c>  
 Polar accumulation disabled

.OPERv   c>  
 XFOIL   c>  
 XFOIL   c>  