
 ===================================================
  XFOIL Version 6.99
  Copyright (C) 2000   Mark Drela, Harold Youngren

  This software comes with ABSOLUTELY NO WARRANTY,
    subject to the GNU General Public License.

  Caveat computor
 ===================================================

 File  xfoil.def  not found

   QUIT    Exit program

  .OPER    Direct operating point(s)
  .MDES    Complex mapping design routine
  .QDES    Surface speed design routine
  .GDES    Geometry design routine

   SAVE f  Write airfoil to labeled coordinate file
   PSAV f  Write airfoil to plain coordinate file
   ISAV f  Write airfoil to ISES coordinate file
   MSAV f  Write airfoil to MSES coordinate file
   REVE    Reverse written-airfoil node ordering

   LOAD f  Read buffer airfoil from coordinate file
   NACA i  Set NACA 4,5-digit airfoil and buffer airfoil
   INTE    Set buffer airfoil by interpolating two airfoils
   NORM    Buffer airfoil normalization toggle
   XYCM rr Change CM reference location, currently  0.25000 0.00000

   BEND    Display structural properties of current airfoil

   PCOP    Set current-airfoil panel nodes directly from buffer airfoil points
   PANE    Set current-airfoil panel nodes ( 160 ) based on curvature
  .PPAR    Show/change paneling

  .PLOP    Plotting options

   WDEF f  Write  current-settings file
   RDEF f  Reread current-settings file
   NAME s  Specify new airfoil name
   NINC    Increment name version number

   Z       Zoom    | (available in all menus)
   U       Unzoom  | 

 XFOIL   c>  
 Labeled airfoil file.  Name:  MARSKE PIONEER IID ROOT AIRFOIL (NACA 431012A/24

 Number of input coordinate points:  33
 Counterclockwise ordering
 Max thickness =     0.120572  at x =   0.251
 Max camber    =     0.022504  at x =   0.151

  LE  x,y  =  -0.00150   0.00604  |   Chord =   1.00152
  TE  x,y  =   1.00000   0.00000  |

 Current airfoil nodes set from buffer airfoil nodes (  33 )

 WARNING: Poor input coordinate distribution
          Excessive panel angle   75.5  at i =  17
          Repaneling with PANE and/or PPAR suggested
           (doing GDES,CADD before repaneling _may_
            improve excessively coarse LE spacing

 XFOIL   c>  
 XFOIL   c>  
 Sharp trailing edge

 Paneling parameters used...
   Number of panel nodes       160
   Panel bunching parameter    1.000
   TE/LE panel density ratio   0.150
   Refined-area/LE panel density ratio    0.200
   Top    side refined area x/c limits  1.000 1.000
   Bottom side refined area x/c limits  1.000 1.000

 XFOIL   c>  
.OPERi   c>  
 Xtr/c     =  1.0000    top    side
 Xtr/c     =  1.0000    bottom side
 Ncrit     =    9.00   ( 0.070 % turb. level )
 Vacc      =  0.0100

 Klag  =  5.6000     Uxwt  =    1.00
 A     =  6.7000     B     =  0.7500       KCt = 0.01485
 CtiniK=  1.8000     CtiniX=  3.3000

..VPAR   c>  
..VPAR   c>  
.OPERi   c>  
 M  =    0.0000
 Re =    150000

.OPERv   c>  
.OPERv   c>  
.OPERv   c>  
 Polar  1 newly created for accumulation
 Airfoil archived with polar: MARSKE PIONEER IID ROOT AIRFOIL (NACA 431012A/24

Enter  polar save filename  OR  <return> for no file   s>  
 New polar save file available

Enter  polar dump filename  OR  <return> for no file   s>  
 Polar dump file will NOT be written

 Polar accumulation enabled

.OPERva   c>   Calculating unit vorticity distributions ...
 Calculating wake trajectory ...
 Calculating source influence matrix ...

 Solving BL system ...

 Initializing BL ...
    side            1  ...
 MRCHUE: Inverse mode at  48     Hk =   3.800
 MRCHUE: Inverse mode at  49     Hk =   4.142
 MRCHUE: Inverse mode at  50     Hk =   4.475
 MRCHUE: Inverse mode at  51     Hk =   4.800
 MRCHUE: Inverse mode at  52     Hk =   5.118
 MRCHUE: Inverse mode at  53     Hk =   5.431
 MRCHUE: Inverse mode at  54     Hk =   5.737
 MRCHUE: Inverse mode at  55     Hk =   6.040
 MRCHUE: Inverse mode at  56     Hk =   6.339
 MRCHUE: Inverse mode at  57     Hk =   6.636
 MRCHUE: Inverse mode at  58     Hk =   6.932
 MRCHUE: Inverse mode at  59     Hk =   7.228
 MRCHUE: Inverse mode at  60     Hk =   7.525
 MRCHUE: Inverse mode at  61     Hk =   7.825
 MRCHUE: Inverse mode at  62     Hk =   8.120
 MRCHUE: Inverse mode at  63     Hk =   8.410
 MRCHUE: Inverse mode at  64     Hk =   7.716
 MRCHUE: Inverse mode at  65     Hk =   6.493
 MRCHUE: Inverse mode at  66     Hk =   5.592
 MRCHUE: Inverse mode at  67     Hk =   4.907
 MRCHUE: Inverse mode at  68     Hk =   4.369
 MRCHUE: Inverse mode at  69     Hk =   3.936
 MRCHUE: Inverse mode at  70     Hk =   3.581
 MRCHUE: Inverse mode at  71     Hk =   3.283
 MRCHUE: Inverse mode at  74     Hk =   2.500
    side            2  ...
 MRCHUE: Inverse mode at  21     Hk =   3.800
 MRCHUE: Inverse mode at  22     Hk =   4.281
 MRCHUE: Inverse mode at  23     Hk =   4.764
 MRCHUE: Convergence failed at  24  side 2    Res =  0.2691E+02
 MRCHUE: Inverse mode at  25     Hk =   5.339
 MRCHUE: Convergence failed at  26  side 2    Res =  0.5129E+01
 MRCHUE: Inverse mode at  27     Hk =   6.051
 MRCHUE: Inverse mode at  28     Hk =   6.799
 MRCHUE: Inverse mode at  29     Hk =   7.583
 MRCHUE: Inverse mode at  30     Hk =   8.421
 MRCHUE: Inverse mode at  31     Hk =   9.315
 MRCHUE: Inverse mode at  32     Hk =   5.917
 MRCHUE: Inverse mode at  33     Hk =   3.305
 MRCHUE: Inverse mode at  86     Hk =   2.500
 MRCHUE: Inverse mode at  87     Hk =   2.500
 MRCHUE: Inverse mode at  88     Hk =   2.500

 MRCHDU: Convergence failed at  26  side 2    Res =  0.2178E+01
 MRCHDU: Convergence failed at  27  side 2    Res =  0.2569E+01
 MRCHDU: Convergence failed at  28  side 2    Res =  0.5074E+01
 MRCHDU: Convergence failed at  29  side 2    Res =  0.1894E+03
 MRCHDU: Convergence failed at  30  side 2    Res =  0.6066E+01
 MRCHDU: Convergence failed at  31  side 2    Res =  0.3193E+01
 MRCHDU: Convergence failed at  32  side 2    Res =  0.1101E+02
 MRCHDU: Convergence failed at  33  side 2    Res =  0.4212E+01
 MRCHDU: Convergence failed at  34  side 2    Res =  0.2444E+02
 MRCHDU: Convergence failed at  35  side 2    Res =  0.6193E+01
 MRCHDU: Convergence failed at  36  side 2    Res =  0.4558E+01
 MRCHDU: Convergence failed at  37  side 2    Res =  0.4765E+01
 MRCHDU: Convergence failed at  38  side 2    Res =  0.5570E+01
 MRCHDU: Convergence failed at  39  side 2    Res =  0.7407E+01
 MRCHDU: Convergence failed at  40  side 2    Res =  0.1160E+02
 MRCHDU: Convergence failed at  41  side 2    Res =  0.1491E+02
 MRCHDU: Convergence failed at  42  side 2    Res =  0.1624E+02
 MRCHDU: Convergence failed at  43  side 2    Res =  0.1606E+02
 MRCHDU: Convergence failed at  44  side 2    Res =  0.1659E+02
 MRCHDU: Convergence failed at  45  side 2    Res =  0.1878E+02
 MRCHDU: Convergence failed at  46  side 2    Res =  0.2856E+02
 MRCHDU: Convergence failed at  47  side 2    Res =  0.4130E+02
 MRCHDU: Convergence failed at  48  side 2    Res =  0.9492E+02
 MRCHDU: Convergence failed at  49  side 2    Res =  0.3805E+02
 MRCHDU: Convergence failed at  50  side 2    Res =  0.2190E+02
 MRCHDU: Convergence failed at  51  side 2    Res =  0.1835E+03
 MRCHDU: Convergence failed at  52  side 2    Res =  0.9889E+02
 MRCHDU: Convergence failed at  53  side 2    Res =  0.9265E+01
 MRCHDU: Convergence failed at  54  side 2    Res =  0.5186E+02
 MRCHDU: Convergence failed at  55  side 2    Res =  0.4297E+02
 MRCHDU: Convergence failed at  56  side 2    Res =  0.4379E+02
 MRCHDU: Convergence failed at  57  side 2    Res =  0.4063E+02
 MRCHDU: Convergence failed at  58  side 2    Res =  0.6663E+02
 MRCHDU: Convergence failed at  59  side 2    Res =  0.2880E+02
 MRCHDU: Convergence failed at  60  side 2    Res =  0.4176E+02
 MRCHDU: Convergence failed at  61  side 2    Res =  0.4430E+02
 MRCHDU: Convergence failed at  62  side 2    Res =  0.5864E+03
 MRCHDU: Convergence failed at  63  side 2    Res =  0.2791E+02
 MRCHDU: Convergence failed at  64  side 2    Res =  0.3820E+02
 MRCHDU: Convergence failed at  65  side 2    Res =  0.5640E+02
 MRCHDU: Convergence failed at  66  side 2    Res =  0.3030E+02
 MRCHDU: Convergence failed at  67  side 2    Res =  0.2987E+02
 MRCHDU: Convergence failed at  68  side 2    Res =  0.2906E+02
 MRCHDU: Convergence failed at  69  side 2    Res =  0.1334E+02
 MRCHDU: Convergence failed at  70  side 2    Res =  0.4192E+02
 MRCHDU: Convergence failed at  71  side 2    Res =  0.4472E+02
 MRCHDU: Convergence failed at  72  side 2    Res =  0.3675E+02
 MRCHDU: Convergence failed at  73  side 2    Res =  0.4094E+02
 MRCHDU: Convergence failed at  74  side 2    Res =  0.3724E+02
 MRCHDU: Convergence failed at  75  side 2    Res =  0.9743E+02
 MRCHDU: Convergence failed at  76  side 2    Res =  0.1114E+03
 MRCHDU: Convergence failed at  77  side 2    Res =  0.6405E+02
 MRCHDU: Convergence failed at  78  side 2    Res =  0.4301E+02
 MRCHDU: Convergence failed at  79  side 2    Res =  0.5630E+02
 MRCHDU: Convergence failed at  80  side 2    Res =  0.2248E+02
 MRCHDU: Convergence failed at  81  side 2    Res =  0.1967E+02
 MRCHDU: Convergence failed at  82  side 2    Res =  0.1889E+02
 MRCHDU: Convergence failed at  83  side 2    Res =  0.1507E+02
 MRCHDU: Convergence failed at  84  side 2    Res =  0.3164E+02
 MRCHDU: Convergence failed at  85  side 2    Res =  0.1922E+03
 MRCHDU: Convergence failed at  86  side 2    Res =  0.2327E+02
 MRCHDU: Convergence failed at  87  side 2    Res =  0.7089E+04
 MRCHDU: Convergence failed at  88  side 2    Res =  0.1779E+03
 Side 1  free  transition at x/c =  0.8641   64
 Side 2  free  transition at x/c =  0.0978   32

   1   rms: 0.8379E+00   max: -.8363E+00   U at   88  2   RLX: 0.335
       a = -4.000      CL = -1.2473
      Cm =  0.2914     CD =  0.00591   =>   CDf =  0.00256    CDp =  0.00335

 Side 1  free  transition at x/c =  0.8997   67
 Side 2  free  transition at x/c =  0.0969   31

   2   rms: 0.8692E+00   max: 0.9933E+01   C at   31  2   RLX: 0.151
       a = -4.000      CL = -1.0658
      Cm =  0.2353     CD =  0.00819   =>   CDf =  0.01277    CDp = -0.00458

 Side 1  free  transition at x/c =  0.9047   67
 Side 2  free  transition at x/c =  0.0773   30

   3   rms: 0.4759E+00   max: 0.2138E+01   T at   30  2   RLX: 0.702
       a = -4.000      CL = -0.5981
      Cm =  0.0843     CD =  0.01219   =>   CDf =  0.01196    CDp =  0.00023

 MRCHDU: Convergence failed at  30  side 2    Res =  0.1729E+02
 MRCHDU: Convergence failed at  31  side 2    Res =  0.2700E+02
 MRCHDU: Convergence failed at  32  side 2    Res =  0.2150E+03
 MRCHDU: Convergence failed at  33  side 2    Res =  0.4687E+02
 MRCHDU: Convergence failed at  34  side 2    Res =  0.1027E+03
 MRCHDU: Convergence failed at  35  side 2    Res =  0.1584E+03
 MRCHDU: Convergence failed at  36  side 2    Res =  0.4072E+03
 MRCHDU: Convergence failed at  37  side 2    Res =  0.1950E+04
 MRCHDU: Convergence failed at  38  side 2    Res =  0.9071E+03
 MRCHDU: Convergence failed at  39  side 2    Res =  0.3657E+03
 MRCHDU: Convergence failed at  40  side 2    Res =  0.2154E+03
 MRCHDU: Convergence failed at  41  side 2    Res =  0.1956E+03
 MRCHDU: Convergence failed at  42  side 2    Res =  0.2441E+03
 MRCHDU: Convergence failed at  43  side 2    Res =  0.3507E+03
 MRCHDU: Convergence failed at  44  side 2    Res =  0.4881E+03
 MRCHDU: Convergence failed at  45  side 2    Res =  0.2491E+03
 MRCHDU: Convergence failed at  46  side 2    Res =  0.1226E+03
 MRCHDU: Convergence failed at  47  side 2    Res =  0.8470E+02
 MRCHDU: Convergence failed at  48  side 2    Res =  0.6633E+02
 MRCHDU: Convergence failed at  49  side 2    Res =  0.5680E+02
 MRCHDU: Convergence failed at  50  side 2    Res =  0.5809E+02
 MRCHDU: Convergence failed at  51  side 2    Res =  0.5078E+02
 MRCHDU: Convergence failed at  52  side 2    Res =  0.4534E+02
 MRCHDU: Convergence failed at  53  side 2    Res =  0.4163E+02
 MRCHDU: Convergence failed at  54  side 2    Res =  0.3935E+02
 MRCHDU: Convergence failed at  55  side 2    Res =  0.3801E+02
 MRCHDU: Convergence failed at  56  side 2    Res =  0.3761E+02
 MRCHDU: Convergence failed at  57  side 2    Res =  0.3774E+02
 MRCHDU: Convergence failed at  58  side 2    Res =  0.3830E+02
 MRCHDU: Convergence failed at  59  side 2    Res =  0.3889E+02
 MRCHDU: Convergence failed at  60  side 2    Res =  0.3922E+02
 MRCHDU: Convergence failed at  61  side 2    Res =  0.3915E+02
 MRCHDU: Convergence failed at  62  side 2    Res =  0.3871E+02
 MRCHDU: Convergence failed at  63  side 2    Res =  0.3781E+02
 MRCHDU: Convergence failed at  64  side 2    Res =  0.3677E+02
 MRCHDU: Convergence failed at  65  side 2    Res =  0.3521E+02
 MRCHDU: Convergence failed at  66  side 2    Res =  0.3359E+02
 MRCHDU: Convergence failed at  67  side 2    Res =  0.3156E+02
 MRCHDU: Convergence failed at  68  side 2    Res =  0.2986E+02
 MRCHDU: Convergence failed at  69  side 2    Res =  0.2853E+02
 MRCHDU: Convergence failed at  70  side 2    Res =  0.2732E+02
 MRCHDU: Convergence failed at  71  side 2    Res =  0.2621E+02
 MRCHDU: Convergence failed at  72  side 2    Res =  0.2523E+02
 MRCHDU: Convergence failed at  73  side 2    Res =  0.2436E+02
 MRCHDU: Convergence failed at  74  side 2    Res =  0.2363E+02
 MRCHDU: Convergence failed at  75  side 2    Res =  0.2297E+02
 MRCHDU: Convergence failed at  76  side 2    Res =  0.2129E+03
 MRCHDU: Convergence failed at  77  side 2    Res =  0.1398E+03
 MRCHDU: Convergence failed at  78  side 2    Res =  0.1061E+03
 MRCHDU: Convergence failed at  79  side 2    Res =  0.9129E+02
 MRCHDU: Convergence failed at  80  side 2    Res =  0.8735E+02
 MRCHDU: Convergence failed at  81  side 2    Res =  0.9526E+02
 MRCHDU: Convergence failed at  82  side 2    Res =  0.1518E+03
 MRCHDU: Convergence failed at  83  side 2    Res =  0.8838E+02
 MRCHDU: Convergence failed at  84  side 2    Res =  0.2503E+03
 MRCHDU: Convergence failed at  85  side 2    Res =  0.1773E+03
 MRCHDU: Convergence failed at  86  side 2    Res =  0.6943E+02
 MRCHDU: Convergence failed at  87  side 2    Res =  0.5709E+02
 Side 1  free  transition at x/c =  0.9343   69
 Side 2  free  transition at x/c =  0.0672   29

   4   rms: 0.1009E+01   max: 0.8282E+01   D at   89  2   RLX: 0.181
       a = -4.000      CL = -1.1999
      Cm =  0.2972     CD =  0.00752   =>   CDf =  0.00255    CDp =  0.00497

 MRCHDU: Convergence failed at  84  side 2    Res =  0.2418E+00
 MRCHDU: Convergence failed at  85  side 2    Res =  0.2445E+00
 MRCHDU: Convergence failed at  86  side 2    Res =  0.2459E+00
 MRCHDU: Convergence failed at  87  side 2    Res =  0.7683E-01
 Side 1  free  transition at x/c =  0.9542   71
 Side 2  free  transition at x/c =  0.0689   29

   5   rms: 0.4359E+00   max: -.6533E+00   C at  101  2   RLX: 0.420
       a = -4.000      CL = -0.3652
      Cm =  0.0328     CD =  0.03342   =>   CDf =  0.00293    CDp =  0.03049

 MRCHDU: Convergence failed at  87  side 2    Res =  0.2199E+00
 MRCHDU: Convergence failed at  89  side 2    Res =  0.3485E+01
 MRCHDU: Convergence failed at  90  side 2    Res =  0.3498E+01
 MRCHDU: Convergence failed at  91  side 2    Res =  0.2968E+01
 Side 1  free  transition at x/c =  0.9560   71
 Side 2  free  transition at x/c =  0.0737   30

   6   rms: 0.8494E+00   max: -.2407E+01   D at   32  2   RLX: 0.208
       a = -4.000      CL = -0.2538
      Cm = -0.0278     CD =  0.03305   =>   CDf =  0.00303    CDp =  0.03002

 Side 1  free  transition at x/c =  0.9457   70
 Side 2  free  transition at x/c =  0.0738   30

   7   rms: 0.1029E+02   max: 0.3599E+02   D at   31  2   RLX: 0.042
       a = -4.000      CL = -0.1111
      Cm = -0.0164     CD =  0.06778   =>   CDf =  0.00306    CDp =  0.06473

 Side 1 forced transition at x/c =  1.0000   76
 Side 2  free  transition at x/c =  0.0793   29

   8   rms: 0.5423E+00   max: -.3012E+01   D at   48  2   RLX: 0.166
       a = -4.000      CL =  0.0110
      Cm = -0.0425     CD =  0.04519   =>   CDf =  0.00336    CDp =  0.04183

 Side 1 forced transition at x/c =  1.0000   76
 Side 2  free  transition at x/c =  0.0813   29

   9   rms: 0.6214E+00   max: -.4030E+01   D at   47  2   RLX: 0.124
       a = -4.000      CL =  0.0203
      Cm = -0.0425     CD =  0.04382   =>   CDf =  0.00353    CDp =  0.04029

 MRCHDU: Convergence failed at  47  side 2    Res =  0.5240E-01
 Side 1 forced transition at x/c =  1.0000   76
 Side 2  free  transition at x/c =  0.0841   29

  10   rms: 0.7576E+00   max: -.5824E+01   D at   47  2   RLX: 0.086
       a = -4.000      CL =  0.0128
      Cm = -0.0386     CD =  0.04352   =>   CDf =  0.00369    CDp =  0.03983

 MRCHDU: Convergence failed at  47  side 2    Res =  0.1826E+00
 MRCHDU: Convergence failed at  48  side 2    Res =  0.6018E+00
 MRCHDU: Convergence failed at  49  side 2    Res =  0.3189E+00
 MRCHDU: Convergence failed at  50  side 2    Res =  0.2990E+00
 MRCHDU: Convergence failed at  51  side 2    Res =  0.2746E+00
 MRCHDU: Convergence failed at  52  side 2    Res =  0.2499E+00
 MRCHDU: Convergence failed at  53  side 2    Res =  0.2251E+00
 MRCHDU: Convergence failed at  54  side 2    Res =  0.2004E+00
 MRCHDU: Convergence failed at  55  side 2    Res =  0.1758E+00
 MRCHDU: Convergence failed at  56  side 2    Res =  0.1513E+00
 MRCHDU: Convergence failed at  57  side 2    Res =  0.1272E+00
 MRCHDU: Convergence failed at  58  side 2    Res =  0.1034E+00
 MRCHDU: Convergence failed at  59  side 2    Res =  0.7946E-01
 MRCHDU: Convergence failed at  60  side 2    Res =  0.6058E+00
 Side 1 forced transition at x/c =  1.0000   76
 Side 2  free  transition at x/c =  0.0847   29

  11   rms: 0.1807E+01   max: 0.1582E+02   D at   59  2   RLX: 0.095
       a = -4.000      CL =  0.0986
      Cm = -0.0751     CD =  0.04505   =>   CDf =  0.00367    CDp =  0.04139

 Side 1 forced transition at x/c =  1.0000   76
 Side 2  free  transition at x/c =  0.0798   29

  12   rms: 0.2911E+01   max: -.1421E+02   D at   56  2   RLX: 0.035
       a = -4.000      CL =  0.1540
      Cm = -0.0871     CD =  0.03846   =>   CDf =  0.00354    CDp =  0.03492

 Side 1 forced transition at x/c =  1.0000   76
 Side 2  free  transition at x/c =  0.0833   29

  13   rms: 0.1402E+02   max: 0.7993E+02   D at   55  2   RLX: 0.019
       a = -4.000      CL =  0.0984
      Cm = -0.0800     CD =  0.04928   =>   CDf =  0.00395    CDp =  0.04533

 Side 1 forced transition at x/c =  1.0000   76
 Side 2  free  transition at x/c =  0.0790   29

  14   rms: 0.1175E+02   max: -.5510E+02   D at   30  2   RLX: 0.009
       a = -4.000      CL =  0.1651
      Cm = -0.0883     CD =  0.03690   =>   CDf =  0.00339    CDp =  0.03351

 Side 1 forced transition at x/c =  1.0000   76
 Side 2  free  transition at x/c =  0.0828   29

  15   rms: 0.1928E+01   max: -.1142E+02   D at   55  2   RLX: 0.044
       a = -4.000      CL =  0.1807
      Cm = -0.0922     CD =  0.03351   =>   CDf =  0.00387    CDp =  0.02964

 Side 1 forced transition at x/c =  1.0000   76
 Side 2  free  transition at x/c =  0.0847   29

  16   rms: 0.1406E+01   max: -.9648E+01   D at   55  2   RLX: 0.052
       a = -4.000      CL =  0.1722
      Cm = -0.0890     CD =  0.03160   =>   CDf =  0.00421    CDp =  0.02739

 MRCHDU: Convergence failed at  55  side 2    Res =  0.3698E-01
 Side 1 forced transition at x/c =  1.0000   76
 Side 2  free  transition at x/c =  0.0844   29

  17   rms: 0.2513E+01   max: -.1794E+02   D at   55  2   RLX: 0.028
       a = -4.000      CL =  0.1727
      Cm = -0.0849     CD =  0.03138   =>   CDf =  0.00446    CDp =  0.02692

 MRCHDU: Convergence failed at  55  side 2    Res =  0.1889E+00
 MRCHDU: Convergence failed at  56  side 2    Res =  0.5322E-01
 Side 1 forced transition at x/c =  1.0000   76
 Side 2  free  transition at x/c =  0.0852   29

  18   rms: 0.1220E+01   max: -.8448E+01   D at   56  2   RLX: 0.059
       a = -4.000      CL =  0.1653
      Cm = -0.0819     CD =  0.03121   =>   CDf =  0.00456    CDp =  0.02665

 MRCHDU: Convergence failed at  56  side 2    Res =  0.1592E+00
 MRCHDU: Convergence failed at  57  side 2    Res =  0.2488E+00
 MRCHDU: Convergence failed at  58  side 2    Res =  0.2569E+00
 MRCHDU: Convergence failed at  59  side 2    Res =  0.2561E+00
 MRCHDU: Convergence failed at  60  side 2    Res =  0.2854E+00
 MRCHDU: Convergence failed at  61  side 2    Res =  0.1332E+00
 MRCHDU: Convergence failed at  62  side 2    Res =  0.1262E+00
 MRCHDU: Convergence failed at  63  side 2    Res =  0.1196E+00
 MRCHDU: Convergence failed at  64  side 2    Res =  0.1120E+00
 MRCHDU: Convergence failed at  65  side 2    Res =  0.1038E+00
 MRCHDU: Convergence failed at  66  side 2    Res =  0.9462E-01
 Side 1 forced transition at x/c =  1.0000   76
 Side 2  free  transition at x/c =  0.0857   30

  19   rms: 0.1052E+01   max: -.4619E+01   D at   48  2   RLX: 0.108
       a = -4.000      CL =  0.2661
      Cm = -0.1198     CD =  0.02779   =>   CDf =  0.00417    CDp =  0.02362

 Side 1 forced transition at x/c =  1.0000   77
 Side 2  free  transition at x/c =  0.0906   29

  20   rms: 0.8072E+00   max: -.3865E+01   D at   49  2   RLX: 0.129
       a = -4.000      CL =  0.2394
      Cm = -0.1082     CD =  0.02864   =>   CDf =  0.00447    CDp =  0.02417

 Side 1 forced transition at x/c =  1.0000   77
 Side 2  free  transition at x/c =  0.0928   29

  21   rms: 0.5842E+00   max: -.2640E+01   D at   51  2   RLX: 0.189
       a = -4.000      CL =  0.1914
      Cm = -0.0949     CD =  0.02834   =>   CDf =  0.00476    CDp =  0.02358

 Side 1 forced transition at x/c =  1.0000   77
 Side 2  free  transition at x/c =  0.0915   29

  22   rms: 0.4280E+00   max: -.1725E+01   D at   57  2   RLX: 0.290
       a = -4.000      CL =  0.1035
      Cm = -0.0748     CD =  0.02586   =>   CDf =  0.00521    CDp =  0.02064

 Side 1 forced transition at x/c =  1.0000   77
 Side 2  free  transition at x/c =  0.0864   29
 idif Ue xi dudx           1  0.16285010      3.64708900E-03   44.652077    
 Uenew xinew           2  4.94927168E-02  1.10840797E-03

  23   rms: 0.3199E+00   max: -.8753E+00   D at   66  2   RLX: 0.525
       a = -4.000      CL = -0.0402
      Cm = -0.0453     CD =  0.02121   =>   CDf =  0.00584    CDp =  0.01537

 Side 1 forced transition at x/c =  1.0000   76
 Side 2  free  transition at x/c =  0.0786   29
 idif Ue xi dudx           1  0.11611699      2.91931629E-03   39.775406    
 Uenew xinew           2  5.72310854E-03  1.43885612E-04

  24   rms: 0.3167E+00   max: 0.1114E+01   T at   29  2   RLX: 0.453
       a = -4.000      CL = -0.1699
      Cm = -0.0277     CD =  0.02218   =>   CDf =  0.00656    CDp =  0.01562

 Side 1 forced transition at x/c =  1.0000   75
 Side 2  free  transition at x/c =  0.0725   30

  25   rms: 0.3383E+00   max: 0.2507E+01   T at   30  2   RLX: 0.598
       a = -4.000      CL = -0.3196
      Cm =  0.0054     CD =  0.02603   =>   CDf =  0.00795    CDp =  0.01809

 MRCHDU: Convergence failed at  30  side 2    Res =  0.3319E+02
 MRCHDU: Convergence failed at  31  side 2    Res =  0.3802E+02
 MRCHDU: Convergence failed at  32  side 2    Res =  0.1060E+03
 MRCHDU: Convergence failed at  33  side 2    Res =  0.3840E+02
 MRCHDU: Convergence failed at  34  side 2    Res =  0.3331E+02
 MRCHDU: Convergence failed at  35  side 2    Res =  0.3705E+02
 MRCHDU: Convergence failed at  36  side 2    Res =  0.4432E+02
 MRCHDU: Convergence failed at  37  side 2    Res =  0.5341E+02
 MRCHDU: Convergence failed at  38  side 2    Res =  0.6560E+02
 MRCHDU: Convergence failed at  39  side 2    Res =  0.1602E+03
 MRCHDU: Convergence failed at  40  side 2    Res =  0.2896E+03
 MRCHDU: Convergence failed at  41  side 2    Res =  0.1418E+04
 MRCHDU: Convergence failed at  42  side 2    Res =  0.4076E+03
 MRCHDU: Convergence failed at  43  side 2    Res =  0.1401E+03
 MRCHDU: Convergence failed at  44  side 2    Res =  0.1606E+03
 MRCHDU: Convergence failed at  45  side 2    Res =  0.1907E+03
 MRCHDU: Convergence failed at  46  side 2    Res =  0.2250E+03
 MRCHDU: Convergence failed at  47  side 2    Res =  0.2674E+03
 MRCHDU: Convergence failed at  48  side 2    Res =  0.2894E+03
 MRCHDU: Convergence failed at  49  side 2    Res =  0.2999E+03
 MRCHDU: Convergence failed at  50  side 2    Res =  0.2765E+03
 MRCHDU: Convergence failed at  51  side 2    Res =  0.2479E+03
 MRCHDU: Convergence failed at  52  side 2    Res =  0.1314E+03
 MRCHDU: Convergence failed at  53  side 2    Res =  0.4591E+02
 MRCHDU: Convergence failed at  54  side 2    Res =  0.4593E+02
 MRCHDU: Convergence failed at  55  side 2    Res =  0.4489E+02
 MRCHDU: Convergence failed at  56  side 2    Res =  0.4361E+02
 MRCHDU: Convergence failed at  57  side 2    Res =  0.4287E+02
 MRCHDU: Convergence failed at  58  side 2    Res =  0.4194E+02
 MRCHDU: Convergence failed at  59  side 2    Res =  0.4118E+02
 MRCHDU: Convergence failed at  60  side 2    Res =  0.4088E+02
 MRCHDU: Convergence failed at  61  side 2    Res =  0.4141E+02
 MRCHDU: Convergence failed at  62  side 2    Res =  0.1356E+03
 MRCHDU: Convergence failed at  63  side 2    Res =  0.2959E+03
 MRCHDU: Convergence failed at  64  side 2    Res =  0.1593E+05
 MRCHDU: Convergence failed at  65  side 2    Res =  0.3361E+02
 MRCHDU: Convergence failed at  66  side 2    Res =  0.5671E+02
 MRCHDU: Convergence failed at  67  side 2    Res =  0.5411E+03
 MRCHDU: Convergence failed at  68  side 2    Res =  0.5724E+02
 MRCHDU: Convergence failed at  69  side 2    Res =  0.1077E+03
 MRCHDU: Convergence failed at  70  side 2    Res =  0.7391E+02
 MRCHDU: Convergence failed at  71  side 2    Res =  0.6662E+02
 MRCHDU: Convergence failed at  72  side 2    Res =  0.2823E+02
 MRCHDU: Convergence failed at  73  side 2    Res =  0.3357E+02
 MRCHDU: Convergence failed at  74  side 2    Res =  0.3142E+02
 MRCHDU: Convergence failed at  75  side 2    Res =  0.9062E+02
 MRCHDU: Convergence failed at  76  side 2    Res =  0.1038E+03
 MRCHDU: Convergence failed at  77  side 2    Res =  0.2078E+03
 MRCHDU: Convergence failed at  78  side 2    Res =  0.1646E+03
 MRCHDU: Convergence failed at  79  side 2    Res =  0.5727E+03
 MRCHDU: Convergence failed at  80  side 2    Res =  0.3516E+02
 MRCHDU: Convergence failed at  81  side 2    Res =  0.4274E+02
 MRCHDU: Convergence failed at  82  side 2    Res =  0.1818E+03
 MRCHDU: Convergence failed at  83  side 2    Res =  0.1496E+03
 MRCHDU: Convergence failed at  84  side 2    Res =  0.2477E+03
 MRCHDU: Convergence failed at  85  side 2    Res =  0.5277E+02
 MRCHDU: Convergence failed at  86  side 2    Res =  0.5497E+02
 MRCHDU: Convergence failed at  87  side 2    Res =  0.7035E+02
 Side 1  free  transition at x/c =  0.9033   67
 Side 2  free  transition at x/c =  0.0684   29

  26   rms: 0.7064E+00   max: 0.2019E+01   D at   89  2   RLX: 0.382
       a = -4.000      CL = -0.7174
      Cm =  0.1772     CD =  0.01214   =>   CDf =  0.00248    CDp =  0.00965

 MRCHDU: Convergence failed at  91  side 2    Res =  0.1846E+01
 MRCHDU: Convergence failed at  92  side 2    Res =  0.1254E+01
 MRCHDU: Convergence failed at  93  side 2    Res =  0.1407E+01
 Side 1 forced transition at x/c =  1.0000   76
 Side 2  free  transition at x/c =  0.0767   29

  27   rms: 0.3718E+00   max: -.1388E+01   D at   50  2   RLX: 0.360
       a = -4.000      CL = -0.2795
      Cm =  0.0635     CD =  0.04565   =>   CDf =  0.00362    CDp =  0.04203

 MRCHDU: Convergence failed at  50  side 2    Res =  0.1494E+00
 MRCHDU: Convergence failed at  51  side 2    Res =  0.1017E+01
 MRCHDU: Convergence failed at  52  side 2    Res =  0.5646E+00
 MRCHDU: Convergence failed at  53  side 2    Res =  0.5342E+00
 MRCHDU: Convergence failed at  54  side 2    Res =  0.5018E+00
 MRCHDU: Convergence failed at  55  side 2    Res =  0.4696E+00
 MRCHDU: Convergence failed at  56  side 2    Res =  0.4362E+00
 MRCHDU: Convergence failed at  57  side 2    Res =  0.4014E+00
 MRCHDU: Convergence failed at  58  side 2    Res =  0.3650E+00
 MRCHDU: Convergence failed at  59  side 2    Res =  0.3256E+00
 MRCHDU: Convergence failed at  60  side 2    Res =  0.2811E+00
 MRCHDU: Convergence failed at  61  side 2    Res =  0.2270E+00
 MRCHDU: Convergence failed at  62  side 2    Res =  0.1588E+00
 MRCHDU: Convergence failed at  63  side 2    Res =  0.5012E-01
 MRCHDU: Convergence failed at  64  side 2    Res =  0.1277E-03
 Side 1 forced transition at x/c =  1.0000   76
 Side 2  free  transition at x/c =  0.0826   29

  28   rms: 0.1077E+01   max: -.6943E+01   D at   63  2   RLX: 0.072
       a = -4.000      CL = -0.0778
      Cm =  0.0045     CD =  0.04085   =>   CDf =  0.00384    CDp =  0.03701

 MRCHDU: Convergence failed at  63  side 2    Res =  0.6825E+00
 MRCHDU: Convergence failed at  64  side 2    Res =  0.1211E+01
 MRCHDU: Convergence failed at  65  side 2    Res =  0.7357E+00
 MRCHDU: Convergence failed at  66  side 2    Res =  0.7115E+00
 MRCHDU: Convergence failed at  67  side 2    Res =  0.6823E+00
 MRCHDU: Convergence failed at  68  side 2    Res =  0.6519E+00
 MRCHDU: Convergence failed at  69  side 2    Res =  0.6207E+00
 MRCHDU: Convergence failed at  70  side 2    Res =  0.5874E+00
 MRCHDU: Convergence failed at  71  side 2    Res =  0.5528E+00
 MRCHDU: Convergence failed at  72  side 2    Res =  0.5164E+00
 MRCHDU: Convergence failed at  73  side 2    Res =  0.4773E+00
 MRCHDU: Convergence failed at  74  side 2    Res =  0.4338E+00
 MRCHDU: Convergence failed at  75  side 2    Res =  0.3819E+00
 MRCHDU: Convergence failed at  76  side 2    Res =  0.3213E+00
 MRCHDU: Convergence failed at  77  side 2    Res =  0.2327E+00
 MRCHDU: Convergence failed at  78  side 2    Res =  0.5633E-01
 MRCHDU: Convergence failed at  79  side 2    Res =  0.7500E-03
 Side 1 forced transition at x/c =  1.0000   76
 Side 2  free  transition at x/c =  0.0908   30

  29   rms: 0.9406E+00   max: -.4170E+01   T at   30  2   RLX: 0.120
       a = -4.000      CL =  0.1433
      Cm = -0.0924     CD =  0.02876   =>   CDf =  0.00383    CDp =  0.02493

 MRCHDU: Convergence failed at  77  side 2    Res =  0.7628E+00
 MRCHDU: Convergence failed at  78  side 2    Res =  0.1498E+01
 MRCHDU: Convergence failed at  79  side 2    Res =  0.1162E+01
 MRCHDU: Convergence failed at  80  side 2    Res =  0.1160E+01
 MRCHDU: Convergence failed at  81  side 2    Res =  0.1156E+01
 MRCHDU: Convergence failed at  82  side 2    Res =  0.1152E+01
 MRCHDU: Convergence failed at  83  side 2    Res =  0.1149E+01
 MRCHDU: Convergence failed at  84  side 2    Res =  0.1144E+01
 MRCHDU: Convergence failed at  85  side 2    Res =  0.1148E+01
 Side 1 forced transition at x/c =  1.0000   77
 Side 2  free  transition at x/c =  0.1158   31
 idif Ue xi dudx           1  0.18435276      4.12428379E-03   44.699337    
 Uenew xinew           2  7.08753914E-02  1.58560276E-03

  30   rms: 0.2233E+02   max: 0.8115E+02   T at    2  1   RLX: 0.007
       a = -4.000      CL =  0.1799
      Cm = -0.1539     CD =  0.04731   =>   CDf =  0.00372    CDp =  0.04359

 Side 1 forced transition at x/c =  1.0000   76
 Side 2  free  transition at x/c =  0.0908   30
 idif Ue xi dudx           1  0.12246457      2.89642811E-03   42.281239    
 Uenew xinew           2  5.11592114E-03  1.20997429E-04

  31   rms: 0.1712E+01   max: -.6166E+01   D at   49  2   RLX: 0.081
       a = -4.000      CL =  0.1412
      Cm = -0.1586     CD =  0.03928   =>   CDf =  0.00428    CDp =  0.03500

 Side 1 forced transition at x/c =  1.0000   75
 Side 2  free  transition at x/c =  0.0801   30

  32   rms: 0.1701E+01   max: -.6599E+01   D at   58  2   RLX: 0.076
       a = -4.000      CL =  0.0773
      Cm = -0.1534     CD =  0.03407   =>   CDf =  0.00461    CDp =  0.02946

 Side 1 forced transition at x/c =  1.0000   75
 Side 2  free  transition at x/c =  0.0743   30

  33   rms: 0.1442E+01   max: -.5161E+01   D at   67  2   RLX: 0.097
       a = -4.000      CL = -0.0172
      Cm = -0.1387     CD =  0.03200   =>   CDf =  0.00492    CDp =  0.02708

 Side 1 forced transition at x/c =  1.0000   75
 Side 2  free  transition at x/c =  0.0699   29
 idif Ue xi dudx           1  0.16046679      4.26876545E-03   37.590912    
 Uenew xinew           2  4.57932390E-02  1.21819973E-03

  34   rms: 0.9579E+00   max: 0.4171E+01   C at   75  1   RLX: 0.172
       a = -4.000      CL = -0.1688
      Cm = -0.1056     CD =  0.03176   =>   CDf =  0.00510    CDp =  0.02666

 Side 1  free  transition at x/c =  0.9553   70
 Side 2  free  transition at x/c =  0.0649   30

  35   rms: 0.5141E+00   max: -.1853E+01   D at   74  2   RLX: 0.270
       a = -4.000      CL = -0.2304
      Cm = -0.0789     CD =  0.02737   =>   CDf =  0.00542    CDp =  0.02195

 Side 1  free  transition at x/c =  0.9105   67
 Side 2  free  transition at x/c =  0.0642   30

  36   rms: 0.3385E+00   max: -.1143E+01   D at   77  2   RLX: 0.437
       a = -4.000      CL = -0.2764
      Cm = -0.0434     CD =  0.02340   =>   CDf =  0.00613    CDp =  0.01727

 Side 1  free  transition at x/c =  0.9093   67
 Side 2  free  transition at x/c =  0.0653   30

  37   rms: 0.1968E+00   max: -.6419E+00   D at   81  2   RLX: 0.779
       a = -4.000      CL = -0.2988
      Cm = -0.0078     CD =  0.02014   =>   CDf =  0.00698    CDp =  0.01316

 Side 1  free  transition at x/c =  0.9225   68
 Side 2  free  transition at x/c =  0.0678   29

  38   rms: 0.6945E-01   max: -.2199E+00   D at   80  2
       a = -4.000      CL = -0.2866
      Cm =  0.0011     CD =  0.01937   =>   CDf =  0.00783    CDp =  0.01154

 Side 1  free  transition at x/c =  0.9506   70
 Side 2  free  transition at x/c =  0.0690   29

  39   rms: 0.4337E-01   max: 0.5149E+00   C at   70  1
       a = -4.000      CL = -0.2943
      Cm =  0.0026     CD =  0.01948   =>   CDf =  0.00814    CDp =  0.01134

 Side 1  free  transition at x/c =  0.9369   69
 Side 2  free  transition at x/c =  0.0687   29

  40   rms: 0.8667E-02   max: 0.4123E-01   D at   75  1
       a = -4.000      CL = -0.3019
      Cm =  0.0041     CD =  0.01970   =>   CDf =  0.00813    CDp =  0.01157

 Side 1  free  transition at x/c =  0.9304   69
 Side 2  free  transition at x/c =  0.0685   29

  41   rms: 0.2545E-02   max: -.1703E-01   C at   69  1
       a = -4.000      CL = -0.3009
      Cm =  0.0039     CD =  0.01968   =>   CDf =  0.00813    CDp =  0.01155

 Side 1  free  transition at x/c =  0.9317   69
 Side 2  free  transition at x/c =  0.0686   29

  42   rms: 0.6233E-04   max: -.4864E-03   C at   69  1
       a = -4.000      CL = -0.3009
      Cm =  0.0039     CD =  0.01968   =>   CDf =  0.00813    CDp =  0.01155
 plradd ia,ip,cpol            1           0  1.86550245E-03

 Point added to stored polar  1
 Point written to save file  marske3_Re150k.base.pol                         
 Dump file unspecified or not available
 Calculating wake trajectory ...
 Calculating source influence matrix ...

 Solving BL system ...

 Side 1  free  transition at x/c =  0.9318   69
 Side 2  free  transition at x/c =  0.0686   29

   1   rms: 0.1363E+00   max: -.4043E+00   D at   33  2
       a = -3.500      CL = -0.2074
      Cm = -0.0019     CD =  0.01676   =>   CDf =  0.00809    CDp =  0.00867

 Side 1  free  transition at x/c =  0.8790   67
 Side 2  free  transition at x/c =  0.0767   29

   2   rms: 0.3992E-01   max: 0.5338E+00   D at   29  2
       a = -3.500      CL = -0.2095
      Cm = -0.0017     CD =  0.01704   =>   CDf =  0.00814    CDp =  0.00890

 Side 1  free  transition at x/c =  0.8834   67
 Side 2  free  transition at x/c =  0.0756   29

   3   rms: 0.7108E-02   max: 0.4031E-01   D at   29  2
       a = -3.500      CL = -0.2118
      Cm = -0.0013     CD =  0.01705   =>   CDf =  0.00818    CDp =  0.00887

 Side 1  free  transition at x/c =  0.8816   67
 Side 2  free  transition at x/c =  0.0753   29

   4   rms: 0.1441E-03   max: -.1384E-02   D at   29  2
       a = -3.500      CL = -0.2118
      Cm = -0.0013     CD =  0.01705   =>   CDf =  0.00820    CDp =  0.00885

 Side 1  free  transition at x/c =  0.8816   67
 Side 2  free  transition at x/c =  0.0753   29

   5   rms: 0.2760E-05   max: 0.1166E-04   T at   29  2
       a = -3.500      CL = -0.2118
      Cm = -0.0013     CD =  0.01705   =>   CDf =  0.00820    CDp =  0.00885
 plradd ia,ip,cpol            2           0  1.86550245E-03

 Point added to stored polar  1
 Point written to save file  marske3_Re150k.base.pol                         
 Dump file unspecified or not available
 Calculating wake trajectory ...
 Calculating source influence matrix ...

 Solving BL system ...

 Side 1  free  transition at x/c =  0.8816   67
 Side 2  free  transition at x/c =  0.0753   29

   1   rms: 0.1323E+00   max: -.6141E+00   T at   29  2   RLX: 0.814
       a = -3.000      CL = -0.1481
      Cm = -0.0041     CD =  0.01519   =>   CDf =  0.00817    CDp =  0.00702

 Side 1  free  transition at x/c =  0.8291   65
 Side 2  free  transition at x/c =  0.0835   28

   2   rms: 0.4303E-01   max: -.2220E+00   D at   28  2
       a = -3.000      CL = -0.1478
      Cm = -0.0015     CD =  0.01562   =>   CDf =  0.00834    CDp =  0.00727

 Side 1  free  transition at x/c =  0.8180   64
 Side 2  free  transition at x/c =  0.0842   28

   3   rms: 0.3777E-02   max: -.3271E-01   C at   64  1
       a = -3.000      CL = -0.1489
      Cm = -0.0013     CD =  0.01566   =>   CDf =  0.00835    CDp =  0.00731

 Side 1  free  transition at x/c =  0.8190   64
 Side 2  free  transition at x/c =  0.0840   28

   4   rms: 0.8563E-04   max: 0.7909E-03   C at   64  1
       a = -3.000      CL = -0.1490
      Cm = -0.0013     CD =  0.01566   =>   CDf =  0.00834    CDp =  0.00732
 plradd ia,ip,cpol            3           0  3.33032524E-03

 Point added to stored polar  1
 Point written to save file  marske3_Re150k.base.pol                         
 Dump file unspecified or not available
 Calculating wake trajectory ...
 Calculating source influence matrix ...

 Solving BL system ...

 Side 1  free  transition at x/c =  0.8189   64
 Side 2  free  transition at x/c =  0.0840   28

   1   rms: 0.9303E-01   max: -.4958E+00   T at   28  2
       a = -2.500      CL = -0.1014
      Cm =  0.0015     CD =  0.01493   =>   CDf =  0.00834    CDp =  0.00659

 Side 1  free  transition at x/c =  0.7593   61
 Side 2  free  transition at x/c =  0.0968   29

   2   rms: 0.3015E-01   max: 0.3818E+00   D at   29  2
       a = -2.500      CL = -0.1060
      Cm =  0.0024     CD =  0.01477   =>   CDf =  0.00862    CDp =  0.00615

 Side 1  free  transition at x/c =  0.7663   61
 Side 2  free  transition at x/c =  0.0969   29

   3   rms: 0.6257E-02   max: 0.6891E-01   D at   29  2
       a = -2.500      CL = -0.1061
      Cm =  0.0024     CD =  0.01477   =>   CDf =  0.00854    CDp =  0.00624

 Side 1  free  transition at x/c =  0.7645   61
 Side 2  free  transition at x/c =  0.0964   29

   4   rms: 0.1078E-03   max: 0.9664E-03   D at   29  2
       a = -2.500      CL = -0.1061
      Cm =  0.0024     CD =  0.01477   =>   CDf =  0.00855    CDp =  0.00622

 Side 1  free  transition at x/c =  0.7646   61
 Side 2  free  transition at x/c =  0.0964   29

   5   rms: 0.1158E-05   max: 0.8120E-05   D at   63  1
       a = -2.500      CL = -0.1061
      Cm =  0.0024     CD =  0.01477   =>   CDf =  0.00855    CDp =  0.00622
 plradd ia,ip,cpol            4           0  5.09146228E-03

 Point added to stored polar  1
 Point written to save file  marske3_Re150k.base.pol                         
 Dump file unspecified or not available
 Calculating wake trajectory ...
 Calculating source influence matrix ...

 Solving BL system ...

 Side 1  free  transition at x/c =  0.7646   61
 Side 2  free  transition at x/c =  0.0964   29

   1   rms: 0.9473E-01   max: -.4665E+00   T at   29  2
       a = -2.000      CL = -0.0636
      Cm =  0.0060     CD =  0.01423   =>   CDf =  0.00854    CDp =  0.00569

 Side 1  free  transition at x/c =  0.7128   59
 Side 2  free  transition at x/c =  0.1305   30

   2   rms: 0.6189E-01   max: -.5508E+00   T at   30  2   RLX: 0.908
       a = -2.000      CL = -0.0653
      Cm =  0.0068     CD =  0.01405   =>   CDf =  0.00874    CDp =  0.00531

 Side 1  free  transition at x/c =  0.7184   59
 Side 2  free  transition at x/c =  0.2673   39

   3   rms: 0.3053E+00   max: -.5764E+01   C at   39  2   RLX: 0.087
       a = -2.000      CL = -0.0722
      Cm =  0.0065     CD =  0.01330   =>   CDf =  0.00806    CDp =  0.00524

 Side 1  free  transition at x/c =  0.7188   59
 Side 2  free  transition at x/c =  0.2784   39

   4   rms: 0.4810E+00   max: -.8170E+01   C at   39  2   RLX: 0.061
       a = -2.000      CL = -0.0738
      Cm =  0.0067     CD =  0.01315   =>   CDf =  0.00789    CDp =  0.00527

 Side 1  free  transition at x/c =  0.7190   59
 Side 2  free  transition at x/c =  0.2800   40

   5   rms: 0.2225E+00   max: -.4149E+01   C at   40  2   RLX: 0.121
       a = -2.000      CL = -0.0743
      Cm =  0.0070     CD =  0.01320   =>   CDf =  0.00797    CDp =  0.00523

 Side 1  free  transition at x/c =  0.7194   59
 Side 2  free  transition at x/c =  0.2963   40

   6   rms: 0.3806E+00   max: -.6093E+01   C at   40  2   RLX: 0.082
       a = -2.000      CL = -0.0762
      Cm =  0.0073     CD =  0.01302   =>   CDf =  0.00776    CDp =  0.00526

 Side 1  free  transition at x/c =  0.7192   59
 Side 2  free  transition at x/c =  0.3500   44

   7   rms: 0.2680E+00   max: -.4321E+01   C at   44  2   RLX: 0.116
       a = -2.000      CL = -0.0790
      Cm =  0.0080     CD =  0.01281   =>   CDf =  0.00756    CDp =  0.00525

 Side 1  free  transition at x/c =  0.7196   60
 Side 2  free  transition at x/c =  0.3745   45

   8   rms: 0.1564E+00   max: -.2469E+01   C at   45  2   RLX: 0.203
       a = -2.000      CL = -0.0812
      Cm =  0.0084     CD =  0.01270   =>   CDf =  0.00747    CDp =  0.00523

 Side 1  free  transition at x/c =  0.7199   60
 Side 2  free  transition at x/c =  0.3588   44

   9   rms: 0.8681E-01   max: -.1345E+01   C at   44  2   RLX: 0.372
       a = -2.000      CL = -0.0824
      Cm =  0.0087     CD =  0.01273   =>   CDf =  0.00751    CDp =  0.00523

 Side 1  free  transition at x/c =  0.7200   60
 Side 2  free  transition at x/c =  0.2955   40

  10   rms: 0.6377E-01   max: -.1100E+01   C at   40  2   RLX: 0.455
       a = -2.000      CL = -0.0801
      Cm =  0.0084     CD =  0.01308   =>   CDf =  0.00780    CDp =  0.00528

 Side 1  free  transition at x/c =  0.7196   60
 Side 2  free  transition at x/c =  0.3056   41

  11   rms: 0.3237E-01   max: -.5637E+00   C at   41  2   RLX: 0.887
       a = -2.000      CL = -0.0786
      Cm =  0.0083     CD =  0.01301   =>   CDf =  0.00775    CDp =  0.00526

 Side 1  free  transition at x/c =  0.7192   59
 Side 2  free  transition at x/c =  0.3429   43

  12   rms: 0.3072E-01   max: 0.5021E+00   C at   43  2
       a = -2.000      CL = -0.0784
      Cm =  0.0083     CD =  0.01301   =>   CDf =  0.00755    CDp =  0.00546

 Side 1  free  transition at x/c =  0.7189   59
 Side 2  free  transition at x/c =  0.3277   42

  13   rms: 0.4006E-02   max: 0.6528E-01   C at   42  2
       a = -2.000      CL = -0.0784
      Cm =  0.0083     CD =  0.01301   =>   CDf =  0.00763    CDp =  0.00538

 Side 1  free  transition at x/c =  0.7189   59
 Side 2  free  transition at x/c =  0.3251   42

  14   rms: 0.1961E-03   max: -.3301E-02   C at   42  2
       a = -2.000      CL = -0.0784
      Cm =  0.0083     CD =  0.01301   =>   CDf =  0.00764    CDp =  0.00536

 Side 1  free  transition at x/c =  0.7189   59
 Side 2  free  transition at x/c =  0.3252   42

  15   rms: 0.1083E-04   max: 0.1809E-03   C at   42  2
       a = -2.000      CL = -0.0784
      Cm =  0.0083     CD =  0.01301   =>   CDf =  0.00764    CDp =  0.00537
 plradd ia,ip,cpol            5           0  5.09146228E-03

 Point added to stored polar  1
 Point written to save file  marske3_Re150k.base.pol                         
 Dump file unspecified or not available
 Calculating wake trajectory ...
 Calculating source influence matrix ...

 Solving BL system ...

 Side 1  free  transition at x/c =  0.7189   59
 Side 2  free  transition at x/c =  0.3252   42

   1   rms: 0.1984E+01   max: -.3326E+02   C at   42  2   RLX: 0.015
       a = -1.500      CL = -0.0792
      Cm =  0.0086     CD =  0.01290   =>   CDf =  0.00764    CDp =  0.00526

 Side 1  free  transition at x/c =  0.7184   59
 Side 2  free  transition at x/c =  0.3475   43

   2   rms: 0.2119E+01   max: -.3407E+02   C at   43  2   RLX: 0.015
       a = -1.500      CL = -0.0799
      Cm =  0.0088     CD =  0.01278   =>   CDf =  0.00753    CDp =  0.00525

 Side 1  free  transition at x/c =  0.7179   59
 Side 2  free  transition at x/c =  0.3685   45

   3   rms: 0.1740E+01   max: -.2924E+02   C at   45  2   RLX: 0.017
       a = -1.500      CL = -0.0807
      Cm =  0.0091     CD =  0.01266   =>   CDf =  0.00743    CDp =  0.00522

 Side 1  free  transition at x/c =  0.7173   59
 Side 2  free  transition at x/c =  0.3961   46

   4   rms: 0.1872E+01   max: -.2972E+02   C at   46  2   RLX: 0.017
       a = -1.500      CL = -0.0816
      Cm =  0.0095     CD =  0.01253   =>   CDf =  0.00731    CDp =  0.00522

 Side 1  free  transition at x/c =  0.7167   59
 Side 2  free  transition at x/c =  0.4245   48

   5   rms: 0.1494E+01   max: -.2474E+02   C at   48  2   RLX: 0.020
       a = -1.500      CL = -0.0827
      Cm =  0.0099     CD =  0.01240   =>   CDf =  0.00720    CDp =  0.00519

 Side 1  free  transition at x/c =  0.7161   59
 Side 2  free  transition at x/c =  0.4479   49

   6   rms: 0.1237E+01   max: -.2036E+02   C at   49  2   RLX: 0.025
       a = -1.500      CL = -0.0835
      Cm =  0.0102     CD =  0.01230   =>   CDf =  0.00712    CDp =  0.00518

 Side 1  free  transition at x/c =  0.7152   59
 Side 2  free  transition at x/c =  0.4957   52

   7   rms: 0.9739E+00   max: -.1623E+02   C at   52  2   RLX: 0.031
       a = -1.500      CL = -0.0853
      Cm =  0.0110     CD =  0.01205   =>   CDf =  0.00692    CDp =  0.00513

 Side 1  free  transition at x/c =  0.7142   59
 Side 2  free  transition at x/c =  0.5275   54

   8   rms: 0.1066E+01   max: -.1744E+02   C at   54  2   RLX: 0.029
       a = -1.500      CL = -0.0865
      Cm =  0.0115     CD =  0.01188   =>   CDf =  0.00676    CDp =  0.00513

 Side 1  free  transition at x/c =  0.7133   59
 Side 2  free  transition at x/c =  0.5706   56

   9   rms: 0.1684E+01   max: -.2536E+02   C at   56  2   RLX: 0.020
       a = -1.500      CL = -0.0880
      Cm =  0.0122     CD =  0.01169   =>   CDf =  0.00652    CDp =  0.00517

 Side 1  free  transition at x/c =  0.7128   59
 Side 2  free  transition at x/c =  0.5983   58

  10   rms: 0.2361E+01   max: -.3551E+02   C at   58  2   RLX: 0.014
       a = -1.500      CL = -0.0887
      Cm =  0.0126     CD =  0.01159   =>   CDf =  0.00636    CDp =  0.00523

 Side 1  free  transition at x/c =  0.7124   59
 Side 2  free  transition at x/c =  0.6273   60

  11   rms: 0.7542E+01   max: -.1140E+03   C at   60  2   RLX: 0.004
       a = -1.500      CL = -0.0889
      Cm =  0.0128     CD =  0.01152   =>   CDf =  0.00621    CDp =  0.00531

 Side 1  free  transition at x/c =  0.7124   59
 Side 2  free  transition at x/c =  0.6589   62

  12   rms: 0.4410E+01   max: 0.6709E+02   C at   62  2   RLX: 0.022
       a = -1.500      CL = -0.0903
      Cm =  0.0126     CD =  0.01172   =>   CDf =  0.00607    CDp =  0.00565

 Side 1  free  transition at x/c =  0.7116   59
 Side 2  free  transition at x/c =  0.5155   53

  13   rms: 0.9372E+00   max: -.1532E+02   C at   53  2   RLX: 0.033
       a = -1.500      CL = -0.0905
      Cm =  0.0129     CD =  0.01192   =>   CDf =  0.00682    CDp =  0.00510

 Side 1  free  transition at x/c =  0.7108   59
 Side 2  free  transition at x/c =  0.5490   55

  14   rms: 0.1117E+01   max: -.1762E+02   C at   55  2   RLX: 0.028
       a = -1.500      CL = -0.0917
      Cm =  0.0134     CD =  0.01176   =>   CDf =  0.00664    CDp =  0.00511

 Side 1  free  transition at x/c =  0.7101   59
 Side 2  free  transition at x/c =  0.6184   59

  15   rms: 0.5944E+01   max: -.8437E+02   C at   59  2   RLX: 0.006
       a = -1.500      CL = -0.0944
      Cm =  0.0149     CD =  0.01155   =>   CDf =  0.00623    CDp =  0.00532

 Side 1  free  transition at x/c =  0.7100   59
 Side 2  free  transition at x/c =  0.6441   61

  16   rms: 0.4337E+01   max: 0.6242E+02   C at   61  2   RLX: 0.024
       a = -1.500      CL = -0.0952
      Cm =  0.0145     CD =  0.01169   =>   CDf =  0.00609    CDp =  0.00559

 Side 1  free  transition at x/c =  0.7092   59
 Side 2  free  transition at x/c =  0.5530   55

  17   rms: 0.1095E+01   max: -.1701E+02   C at   55  2   RLX: 0.029
       a = -1.500      CL = -0.0960
      Cm =  0.0151     CD =  0.01174   =>   CDf =  0.00663    CDp =  0.00511

 Side 1  free  transition at x/c =  0.7086   59
 Side 2  free  transition at x/c =  0.6158   59

  18   rms: 0.4642E+01   max: -.6560E+02   C at   59  2   RLX: 0.008
       a = -1.500      CL = -0.0989
      Cm =  0.0166     CD =  0.01158   =>   CDf =  0.00623    CDp =  0.00535

 Side 1  free  transition at x/c =  0.7085   59
 Side 2  free  transition at x/c =  0.6401   61

  19   rms: 0.3090E+01   max: 0.4327E+02   C at   61  2   RLX: 0.035
       a = -1.500      CL = -0.1001
      Cm =  0.0164     CD =  0.01166   =>   CDf =  0.00609    CDp =  0.00557

 Side 1  free  transition at x/c =  0.7076   59
 Side 2  free  transition at x/c =  0.5621   56

  20   rms: 0.1072E+01   max: -.1694E+02   C at   56  2   RLX: 0.030
       a = -1.500      CL = -0.1014
      Cm =  0.0171     CD =  0.01170   =>   CDf =  0.00659    CDp =  0.00511

 Side 1  free  transition at x/c =  0.7071   59
 Side 2  free  transition at x/c =  0.5803   57

  21   rms: 0.1359E+01   max: -.2071E+02   C at   57  2   RLX: 0.024
       a = -1.500      CL = -0.1021
      Cm =  0.0174     CD =  0.01165   =>   CDf =  0.00648    CDp =  0.00517

 Side 1  free  transition at x/c =  0.7067   59
 Side 2  free  transition at x/c =  0.6012   58

  22   rms: 0.2322E+01   max: -.3328E+02   C at   58  2   RLX: 0.015
       a = -1.500      CL = -0.1026
      Cm =  0.0178     CD =  0.01161   =>   CDf =  0.00633    CDp =  0.00528

 Side 1  free  transition at x/c =  0.7065   59
 Side 2  free  transition at x/c =  0.6231   60

  23   rms: 0.1762E+02   max: -.2502E+03   C at   60  2   RLX: 0.002
       a = -1.500      CL = -0.1028
      Cm =  0.0181     CD =  0.01161   =>   CDf =  0.00618    CDp =  0.00542

 Side 1  free  transition at x/c =  0.7065   59
 Side 2  free  transition at x/c =  0.6504   61

  24   rms: 0.1594E+01   max: 0.2081E+02   C at   61  2   RLX: 0.072
       a = -1.500      CL = -0.1055
      Cm =  0.0185     CD =  0.01159   =>   CDf =  0.00601    CDp =  0.00558

 Side 1  free  transition at x/c =  0.7051   59
 Side 2  free  transition at x/c =  0.6063   59

  25   rms: 0.2704E+01   max: -.3969E+02   C at   59  2   RLX: 0.013
       a = -1.500      CL = -0.1084
      Cm =  0.0201     CD =  0.01162   =>   CDf =  0.00632    CDp =  0.00530

 Side 1  free  transition at x/c =  0.7050   59
 Side 2  free  transition at x/c =  0.6303   60

  26   rms: 0.6664E+01   max: 0.9029E+02   C at   60  2   RLX: 0.017
       a = -1.500      CL = -0.1089
      Cm =  0.0197     CD =  0.01163   =>   CDf =  0.00615    CDp =  0.00548

 Side 1  free  transition at x/c =  0.7046   59
 Side 2  free  transition at x/c =  0.5741   57

  27   rms: 0.1029E+01   max: -.1628E+02   C at   57  2   RLX: 0.031
       a = -1.500      CL = -0.1109
      Cm =  0.0208     CD =  0.01168   =>   CDf =  0.00654    CDp =  0.00514

 Side 1  free  transition at x/c =  0.7042   59
 Side 2  free  transition at x/c =  0.5958   58

  28   rms: 0.1627E+01   max: -.2400E+02   C at   58  2   RLX: 0.021
       a = -1.500      CL = -0.1115
      Cm =  0.0212     CD =  0.01166   =>   CDf =  0.00640    CDp =  0.00526

 Side 1  free  transition at x/c =  0.7040   59
 Side 2  free  transition at x/c =  0.6173   59

  29   rms: 0.6370E+01   max: -.8703E+02   C at   59  2   RLX: 0.006
       a = -1.500      CL = -0.1120
      Cm =  0.0216     CD =  0.01168   =>   CDf =  0.00624    CDp =  0.00544

 Side 1  free  transition at x/c =  0.7040   59
 Side 2  free  transition at x/c =  0.6380   60

  30   rms: 0.3934E+01   max: 0.5038E+02   C at   60  2   RLX: 0.030
       a = -1.500      CL = -0.1129
      Cm =  0.0212     CD =  0.01160   =>   CDf =  0.00608    CDp =  0.00551

 Side 1  free  transition at x/c =  0.7035   59
 Side 2  free  transition at x/c =  0.5873   57

  31   rms: 0.1314E+01   max: -.1926E+02   C at   57  2   RLX: 0.026
       a = -1.500      CL = -0.1155
      Cm =  0.0227     CD =  0.01170   =>   CDf =  0.00647    CDp =  0.00523

 Side 1  free  transition at x/c =  0.7032   59
 Side 2  free  transition at x/c =  0.6093   59

  32   rms: 0.2124E+01   max: -.3070E+02   C at   59  2   RLX: 0.016
       a = -1.500      CL = -0.1162
      Cm =  0.0232     CD =  0.01171   =>   CDf =  0.00632    CDp =  0.00539

 Side 1  free  transition at x/c =  0.7031   59
 Side 2  free  transition at x/c =  0.6292   60

  33   rms: 0.8082E+01   max: 0.1073E+03   C at   60  2   RLX: 0.014
       a = -1.500      CL = -0.1164
      Cm =  0.0225     CD =  0.01162   =>   CDf =  0.00616    CDp =  0.00546

 Side 1  free  transition at x/c =  0.7028   59
 Side 2  free  transition at x/c =  0.5714   56

  34   rms: 0.9129E+00   max: -.1375E+02   C at   56  2   RLX: 0.036
       a = -1.500      CL = -0.1190
      Cm =  0.0239     CD =  0.01176   =>   CDf =  0.00658    CDp =  0.00519

 Side 1  free  transition at x/c =  0.7025   58
 Side 2  free  transition at x/c =  0.5938   58

  35   rms: 0.1127E+01   max: -.1709E+02   C at   58  2   RLX: 0.029
       a = -1.500      CL = -0.1197
      Cm =  0.0244     CD =  0.01173   =>   CDf =  0.00644    CDp =  0.00529

 Side 1  free  transition at x/c =  0.7020   58
 Side 2  free  transition at x/c =  0.6140   59

  36   rms: 0.3438E+01   max: -.4733E+02   C at   59  2   RLX: 0.011
       a = -1.500      CL = -0.1203
      Cm =  0.0249     CD =  0.01178   =>   CDf =  0.00628    CDp =  0.00550

 Side 1  free  transition at x/c =  0.7019   58
 Side 2  free  transition at x/c =  0.6318   60

  37   rms: 0.5237E+01   max: 0.6724E+02   C at   60  2   RLX: 0.022
       a = -1.500      CL = -0.1206
      Cm =  0.0241     CD =  0.01161   =>   CDf =  0.00613    CDp =  0.00549

 Side 1  free  transition at x/c =  0.7014   58
 Side 2  free  transition at x/c =  0.5698   56

  38   rms: 0.7924E+00   max: -.1209E+02   C at   56  2   RLX: 0.041
       a = -1.500      CL = -0.1233
      Cm =  0.0256     CD =  0.01178   =>   CDf =  0.00659    CDp =  0.00519

 Side 1  free  transition at x/c =  0.7008   58
 Side 2  free  transition at x/c =  0.5949   58

  39   rms: 0.1023E+01   max: -.1542E+02   C at   58  2   RLX: 0.032
       a = -1.500      CL = -0.1242
      Cm =  0.0262     CD =  0.01176   =>   CDf =  0.00643    CDp =  0.00534

 Side 1  free  transition at x/c =  0.7003   58
 Side 2  free  transition at x/c =  0.6144   59

  40   rms: 0.3136E+01   max: -.4282E+02   C at   59  2   RLX: 0.012
       a = -1.500      CL = -0.1249
      Cm =  0.0267     CD =  0.01182   =>   CDf =  0.00627    CDp =  0.00555

 Side 1  free  transition at x/c =  0.7002   58
 Side 2  free  transition at x/c =  0.6305   60

  41   rms: 0.4476E+01   max: 0.5698E+02   C at   60  2   RLX: 0.026
       a = -1.500      CL = -0.1248
      Cm =  0.0257     CD =  0.01160   =>   CDf =  0.00612    CDp =  0.00547

 Side 1  free  transition at x/c =  0.6997   58
 Side 2  free  transition at x/c =  0.5616   56

  42   rms: 0.6462E+00   max: -.1024E+02   C at   56  2   RLX: 0.049
       a = -1.500      CL = -0.1276
      Cm =  0.0273     CD =  0.01180   =>   CDf =  0.00663    CDp =  0.00517

 Side 1  free  transition at x/c =  0.6991   58
 Side 2  free  transition at x/c =  0.5864   57

  43   rms: 0.9567E+00   max: -.1415E+02   C at   57  2   RLX: 0.035
       a = -1.500      CL = -0.1282
      Cm =  0.0277     CD =  0.01177   =>   CDf =  0.00648    CDp =  0.00529

 Side 1  free  transition at x/c =  0.6987   58
 Side 2  free  transition at x/c =  0.6075   59

  44   rms: 0.1513E+01   max: -.2189E+02   C at   59  2   RLX: 0.023
       a = -1.500      CL = -0.1288
      Cm =  0.0282     CD =  0.01181   =>   CDf =  0.00633    CDp =  0.00548

 Side 1  free  transition at x/c =  0.6984   58
 Side 2  free  transition at x/c =  0.6238   60

  45   rms: 0.1341E+02   max: 0.1770E+03   C at   60  2   RLX: 0.008
       a = -1.500      CL = -0.1285
      Cm =  0.0271     CD =  0.01160   =>   CDf =  0.00618    CDp =  0.00542

 Side 1  free  transition at x/c =  0.6982   58
 Side 2  free  transition at x/c =  0.5544   55

  46   rms: 0.6368E+00   max: -.9784E+01   C at   55  2   RLX: 0.051
       a = -1.500      CL = -0.1313
      Cm =  0.0287     CD =  0.01184   =>   CDf =  0.00667    CDp =  0.00517

 Side 1  free  transition at x/c =  0.6976   58
 Side 2  free  transition at x/c =  0.5929   58

  47   rms: 0.8548E+00   max: -.1300E+02   C at   58  2   RLX: 0.038
       a = -1.500      CL = -0.1329
      Cm =  0.0297     CD =  0.01181   =>   CDf =  0.00644    CDp =  0.00536

 Side 1  free  transition at x/c =  0.6973   58
 Side 2  free  transition at x/c =  0.6120   59

  48   rms: 0.2516E+01   max: -.3442E+02   C at   59  2   RLX: 0.015
       a = -1.500      CL = -0.1335
      Cm =  0.0303     CD =  0.01188   =>   CDf =  0.00629    CDp =  0.00559

 Side 1  free  transition at x/c =  0.6971   58
 Side 2  free  transition at x/c =  0.6278   60

  49   rms: 0.5353E+01   max: 0.6757E+02   C at   60  2   RLX: 0.022
       a = -1.500      CL = -0.1332
      Cm =  0.0291     CD =  0.01157   =>   CDf =  0.00614    CDp =  0.00543

 Side 1  free  transition at x/c =  0.6968   58
 Side 2  free  transition at x/c =  0.5545   55

  50   rms: 0.5991E+00   max: -.9204E+01   C at   55  2   RLX: 0.054
       a = -1.500      CL = -0.1361
      Cm =  0.0308     CD =  0.01183   =>   CDf =  0.00668    CDp =  0.00515

 Side 1  free  transition at x/c =  0.6963   58
 Side 2  free  transition at x/c =  0.5935   58

  51   rms: 0.9183E+00   max: -.1366E+02   C at   58  2   RLX: 0.037
       a = -1.500      CL = -0.1378
      Cm =  0.0318     CD =  0.01182   =>   CDf =  0.00644    CDp =  0.00537

 Side 1  free  transition at x/c =  0.6960   58
 Side 2  free  transition at x/c =  0.6125   59

  52   rms: 0.2370E+01   max: -.3220E+02   C at   59  2   RLX: 0.016
       a = -1.500      CL = -0.1383
      Cm =  0.0323     CD =  0.01189   =>   CDf =  0.00629    CDp =  0.00560

 Side 1  free  transition at x/c =  0.6959   58
 Side 2  free  transition at x/c =  0.6276   60

  53   rms: 0.2455E+01   max: 0.3041E+02   C at   60  2   RLX: 0.049
       a = -1.500      CL = -0.1379
      Cm =  0.0310     CD =  0.01155   =>   CDf =  0.00615    CDp =  0.00540

 Side 1  free  transition at x/c =  0.6954   58
 Side 2  free  transition at x/c =  0.5520   55

  54   rms: 0.5536E+00   max: -.8589E+01   C at   55  2   RLX: 0.058
       a = -1.500      CL = -0.1407
      Cm =  0.0328     CD =  0.01180   =>   CDf =  0.00671    CDp =  0.00509

 Side 1  free  transition at x/c =  0.6949   58
 Side 2  free  transition at x/c =  0.5886   57

  55   rms: 0.8394E+00   max: -.1218E+02   C at   57  2   RLX: 0.041
       a = -1.500      CL = -0.1419
      Cm =  0.0335     CD =  0.01176   =>   CDf =  0.00649    CDp =  0.00527

 Side 1  free  transition at x/c =  0.6946   58
 Side 2  free  transition at x/c =  0.6085   59

  56   rms: 0.1707E+01   max: -.2382E+02   C at   59  2   RLX: 0.021
       a = -1.500      CL = -0.1423
      Cm =  0.0340     CD =  0.01182   =>   CDf =  0.00634    CDp =  0.00548

 Side 1  free  transition at x/c =  0.6945   58
 Side 2  free  transition at x/c =  0.6243   60

  57   rms: 0.1636E+02   max: 0.2105E+03   C at   60  2   RLX: 0.007
       a = -1.500      CL = -0.1418
      Cm =  0.0327     CD =  0.01152   =>   CDf =  0.00620    CDp =  0.00533

 Side 1  free  transition at x/c =  0.6944   58
 Side 2  free  transition at x/c =  0.5520   55

  58   rms: 0.5326E+00   max: -.8255E+01   C at   55  2   RLX: 0.061
       a = -1.500      CL = -0.1446
      Cm =  0.0344     CD =  0.01178   =>   CDf =  0.00672    CDp =  0.00506

 Side 1  free  transition at x/c =  0.6940   58
 Side 2  free  transition at x/c =  0.5894   58

  59   rms: 0.6755E+00   max: -.1044E+02   C at   58  2   RLX: 0.048
       a = -1.500      CL = -0.1456
      Cm =  0.0352     CD =  0.01174   =>   CDf =  0.00650    CDp =  0.00524

 Side 1  free  transition at x/c =  0.6937   58
 Side 2  free  transition at x/c =  0.6091   59

  60   rms: 0.1557E+01   max: -.2158E+02   C at   59  2   RLX: 0.023
       a = -1.500      CL = -0.1461
      Cm =  0.0356     CD =  0.01181   =>   CDf =  0.00634    CDp =  0.00546

 Side 1  free  transition at x/c =  0.6936   58
 Side 2  free  transition at x/c =  0.6247   60

  61   rms: 0.2085E+02   max: 0.2667E+03   C at   60  2   RLX: 0.006
       a = -1.500      CL = -0.1454
      Cm =  0.0343     CD =  0.01150   =>   CDf =  0.00620    CDp =  0.00529

 Side 1  free  transition at x/c =  0.6935   58
 Side 2  free  transition at x/c =  0.5533   55

  62   rms: 0.5274E+00   max: -.8125E+01   C at   55  2   RLX: 0.062
       a = -1.500      CL = -0.1481
      Cm =  0.0360     CD =  0.01174   =>   CDf =  0.00673    CDp =  0.00501

 Side 1  free  transition at x/c =  0.6932   58
 Side 2  free  transition at x/c =  0.5913   58

  63   rms: 0.7555E+00   max: -.1134E+02   C at   58  2   RLX: 0.044
       a = -1.500      CL = -0.1493
      Cm =  0.0368     CD =  0.01172   =>   CDf =  0.00650    CDp =  0.00523

 Side 1  free  transition at x/c =  0.6930   58
 Side 2  free  transition at x/c =  0.6109   59

  64   rms: 0.1510E+01   max: -.2069E+02   C at   59  2   RLX: 0.024
       a = -1.500      CL = -0.1497
      Cm =  0.0373     CD =  0.01179   =>   CDf =  0.00634    CDp =  0.00545

 Side 1  free  transition at x/c =  0.6929   58
 Side 2  free  transition at x/c =  0.6260   60

  65   rms: 0.3402E+01   max: 0.4252E+02   C at   60  2   RLX: 0.035
       a = -1.500      CL = -0.1487
      Cm =  0.0357     CD =  0.01146   =>   CDf =  0.00620    CDp =  0.00526

 Side 1  free  transition at x/c =  0.6926   58
 Side 2  free  transition at x/c =  0.5539   55

  66   rms: 0.5648E+00   max: -.8692E+01   C at   55  2   RLX: 0.058
       a = -1.500      CL = -0.1513
      Cm =  0.0374     CD =  0.01168   =>   CDf =  0.00674    CDp =  0.00494

 Side 1  free  transition at x/c =  0.6924   58
 Side 2  free  transition at x/c =  0.5895   58

  67   rms: 0.6474E+00   max: -.9967E+01   C at   58  2   RLX: 0.050
       a = -1.500      CL = -0.1520
      Cm =  0.0380     CD =  0.01165   =>   CDf =  0.00652    CDp =  0.00513

 Side 1  free  transition at x/c =  0.6922   58
 Side 2  free  transition at x/c =  0.6106   59

  68   rms: 0.1395E+01   max: -.1918E+02   C at   59  2   RLX: 0.026
       a = -1.500      CL = -0.1526
      Cm =  0.0386     CD =  0.01172   =>   CDf =  0.00636    CDp =  0.00536

 Side 1  free  transition at x/c =  0.6921   58
 Side 2  free  transition at x/c =  0.6262   60

  69   rms: 0.7629E+01   max: 0.9617E+02   C at   60  2   RLX: 0.016
       a = -1.500      CL = -0.1518
      Cm =  0.0372     CD =  0.01142   =>   CDf =  0.00622    CDp =  0.00521

 Side 1  free  transition at x/c =  0.6920   58
 Side 2  free  transition at x/c =  0.5563   56

  70   rms: 0.4906E+00   max: -.7946E+01   C at   56  2   RLX: 0.063
       a = -1.500      CL = -0.1542
      Cm =  0.0388     CD =  0.01162   =>   CDf =  0.00675    CDp =  0.00487

 Side 1  free  transition at x/c =  0.6918   58
 Side 2  free  transition at x/c =  0.5773   57

  71   rms: 0.6085E+00   max: -.9451E+01   C at   57  2   RLX: 0.053
       a = -1.500      CL = -0.1534
      Cm =  0.0385     CD =  0.01158   =>   CDf =  0.00662    CDp =  0.00495

 Side 1  free  transition at x/c =  0.6916   58
 Side 2  free  transition at x/c =  0.5984   58

  72   rms: 0.9809E+00   max: -.1393E+02   C at   58  2   RLX: 0.036
       a = -1.500      CL = -0.1534
      Cm =  0.0387     CD =  0.01160   =>   CDf =  0.00647    CDp =  0.00514

 Side 1  free  transition at x/c =  0.6915   58
 Side 2  free  transition at x/c =  0.6158   59

  73   rms: 0.2488E+01   max: -.3263E+02   C at   59  2   RLX: 0.015
       a = -1.500      CL = -0.1536
      Cm =  0.0391     CD =  0.01167   =>   CDf =  0.00632    CDp =  0.00535

 Side 1  free  transition at x/c =  0.6915   58
 Side 2  free  transition at x/c =  0.6312   60

  74   rms: 0.4652E+01   max: 0.5703E+02   C at   60  2   RLX: 0.026
       a = -1.500      CL = -0.1526
      Cm =  0.0376     CD =  0.01136   =>   CDf =  0.00618    CDp =  0.00518

 Side 1  free  transition at x/c =  0.6913   58
 Side 2  free  transition at x/c =  0.5566   56

  75   rms: 0.5018E+00   max: -.8136E+01   C at   56  2   RLX: 0.061
       a = -1.500      CL = -0.1546
      Cm =  0.0390     CD =  0.01156   =>   CDf =  0.00676    CDp =  0.00480

 Side 1  free  transition at x/c =  0.6912   58
 Side 2  free  transition at x/c =  0.5741   57

  76   rms: 0.5802E+00   max: -.9199E+01   C at   57  2   RLX: 0.054
       a = -1.500      CL = -0.1535
      Cm =  0.0386     CD =  0.01151   =>   CDf =  0.00665    CDp =  0.00486

 Side 1  free  transition at x/c =  0.6910   58
 Side 2  free  transition at x/c =  0.5948   58

  77   rms: 0.8065E+00   max: -.1192E+02   C at   58  2   RLX: 0.042
       a = -1.500      CL = -0.1532
      Cm =  0.0386     CD =  0.01152   =>   CDf =  0.00650    CDp =  0.00501

 Side 1  free  transition at x/c =  0.6910   58
 Side 2  free  transition at x/c =  0.6127   59

  78   rms: 0.1445E+01   max: -.1974E+02   C at   59  2   RLX: 0.025
       a = -1.500      CL = -0.1533
      Cm =  0.0389     CD =  0.01157   =>   CDf =  0.00635    CDp =  0.00521

 Side 1  free  transition at x/c =  0.6909   58
 Side 2  free  transition at x/c =  0.6294   60

  79   rms: 0.7158E+01   max: 0.8984E+02   C at   60  2   RLX: 0.017
       a = -1.500      CL = -0.1528
      Cm =  0.0377     CD =  0.01132   =>   CDf =  0.00621    CDp =  0.00511

 Side 1  free  transition at x/c =  0.6908   58
 Side 2  free  transition at x/c =  0.5634   56

  80   rms: 0.5689E+00   max: -.8953E+01   C at   56  2   RLX: 0.056
       a = -1.500      CL = -0.1549
      Cm =  0.0391     CD =  0.01150   =>   CDf =  0.00673    CDp =  0.00478

 Side 1  free  transition at x/c =  0.6907   58
 Side 2  free  transition at x/c =  0.5823   57

  81   rms: 0.6789E+00   max: -.1031E+02   C at   57  2   RLX: 0.048
       a = -1.500      CL = -0.1541
      Cm =  0.0389     CD =  0.01147   =>   CDf =  0.00661    CDp =  0.00486

 Side 1  free  transition at x/c =  0.6906   58
 Side 2  free  transition at x/c =  0.6019   58

  82   rms: 0.1047E+01   max: -.1465E+02   C at   58  2   RLX: 0.034
       a = -1.500      CL = -0.1541
      Cm =  0.0391     CD =  0.01149   =>   CDf =  0.00645    CDp =  0.00504

 Side 1  free  transition at x/c =  0.6906   58
 Side 2  free  transition at x/c =  0.6186   59

  83   rms: 0.3127E+01   max: -.4057E+02   C at   59  2   RLX: 0.012
       a = -1.500      CL = -0.1543
      Cm =  0.0395     CD =  0.01155   =>   CDf =  0.00631    CDp =  0.00524

 Side 1  free  transition at x/c =  0.6906   58
 Side 2  free  transition at x/c =  0.6346   60

  84   rms: 0.3925E+01   max: 0.4772E+02   C at   60  2   RLX: 0.031
       a = -1.500      CL = -0.1534
      Cm =  0.0380     CD =  0.01128   =>   CDf =  0.00617    CDp =  0.00511

 Side 1  free  transition at x/c =  0.6904   58
 Side 2  free  transition at x/c =  0.5678   56

  85   rms: 0.6358E+00   max: -.9817E+01   C at   56  2   RLX: 0.051
       a = -1.500      CL = -0.1556
      Cm =  0.0395     CD =  0.01146   =>   CDf =  0.00671    CDp =  0.00475

 Side 1  free  transition at x/c =  0.6903   58
 Side 2  free  transition at x/c =  0.5898   58

  86   rms: 0.6547E+00   max: -.1020E+02   C at   58  2   RLX: 0.049
       a = -1.500      CL = -0.1550
      Cm =  0.0393     CD =  0.01144   =>   CDf =  0.00657    CDp =  0.00487

 Side 1  free  transition at x/c =  0.6903   58
 Side 2  free  transition at x/c =  0.6082   59

  87   rms: 0.1001E+01   max: -.1444E+02   C at   59  2   RLX: 0.035
       a = -1.500      CL = -0.1547
      Cm =  0.0394     CD =  0.01147   =>   CDf =  0.00642    CDp =  0.00505

 Side 1  free  transition at x/c =  0.6902   58
 Side 2  free  transition at x/c =  0.6244   60

  88   rms: 0.3807E+01   max: -.5039E+02   C at   60  2   RLX: 0.010
       a = -1.500      CL = -0.1547
      Cm =  0.0398     CD =  0.01154   =>   CDf =  0.00627    CDp =  0.00526

 Side 1  free  transition at x/c =  0.6903   58
 Side 2  free  transition at x/c =  0.6418   61

  89   rms: 0.2082E+01   max: 0.2540E+02   C at   61  2   RLX: 0.059
       a = -1.500      CL = -0.1535
      Cm =  0.0380     CD =  0.01121   =>   CDf =  0.00612    CDp =  0.00509

 Side 1  free  transition at x/c =  0.6901   58
 Side 2  free  transition at x/c =  0.5549   56

  90   rms: 0.5080E+00   max: -.8324E+01   C at   56  2   RLX: 0.060
       a = -1.500      CL = -0.1552
      Cm =  0.0393     CD =  0.01143   =>   CDf =  0.00678    CDp =  0.00465

 Side 1  free  transition at x/c =  0.6900   58
 Side 2  free  transition at x/c =  0.5703   56

  91   rms: 0.6579E+00   max: -.1005E+02   C at   56  2   RLX: 0.050
       a = -1.500      CL = -0.1539
      Cm =  0.0388     CD =  0.01139   =>   CDf =  0.00669    CDp =  0.00470

 Side 1  free  transition at x/c =  0.6899   58
 Side 2  free  transition at x/c =  0.6033   58

  92   rms: 0.1079E+01   max: -.1503E+02   C at   58  2   RLX: 0.033
       a = -1.500      CL = -0.1550
      Cm =  0.0396     CD =  0.01140   =>   CDf =  0.00645    CDp =  0.00495

 Side 1  free  transition at x/c =  0.6899   58
 Side 2  free  transition at x/c =  0.6208   59

  93   rms: 0.3385E+01   max: -.4363E+02   C at   59  2   RLX: 0.011
       a = -1.500      CL = -0.1554
      Cm =  0.0400     CD =  0.01145   =>   CDf =  0.00630    CDp =  0.00514

 Side 1  free  transition at x/c =  0.6899   58
 Side 2  free  transition at x/c =  0.6381   60

  94   rms: 0.3134E+01   max: 0.3781E+02   C at   60  2   RLX: 0.040
       a = -1.500      CL = -0.1546
      Cm =  0.0387     CD =  0.01120   =>   CDf =  0.00616    CDp =  0.00504

 Side 1  free  transition at x/c =  0.6898   58
 Side 2  free  transition at x/c =  0.5818   57

  95   rms: 0.6678E+00   max: -.1023E+02   C at   57  2   RLX: 0.049
       a = -1.500      CL = -0.1572
      Cm =  0.0404     CD =  0.01135   =>   CDf =  0.00664    CDp =  0.00472

 Side 1  free  transition at x/c =  0.6897   58
 Side 2  free  transition at x/c =  0.6030   58

  96   rms: 0.1039E+01   max: -.1460E+02   C at   58  2   RLX: 0.034
       a = -1.500      CL = -0.1571
      Cm =  0.0405     CD =  0.01137   =>   CDf =  0.00648    CDp =  0.00489

 Side 1  free  transition at x/c =  0.6897   58
 Side 2  free  transition at x/c =  0.6197   59

  97   rms: 0.2932E+01   max: -.3830E+02   C at   59  2   RLX: 0.013
       a = -1.500      CL = -0.1572
      Cm =  0.0408     CD =  0.01142   =>   CDf =  0.00633    CDp =  0.00509

 Side 1  free  transition at x/c =  0.6897   58
 Side 2  free  transition at x/c =  0.6348   60

  98   rms: 0.4791E+01   max: 0.5912E+02   C at   60  2   RLX: 0.025
       a = -1.500      CL = -0.1562
      Cm =  0.0394     CD =  0.01120   =>   CDf =  0.00620    CDp =  0.00500

 Side 1  free  transition at x/c =  0.6896   58
 Side 2  free  transition at x/c =  0.5606   56

  99   rms: 0.5776E+00   max: -.9241E+01   C at   56  2   RLX: 0.054
       a = -1.500      CL = -0.1577
      Cm =  0.0405     CD =  0.01138   =>   CDf =  0.00676    CDp =  0.00462

 Side 1  free  transition at x/c =  0.6896   58
 Side 2  free  transition at x/c =  0.5793   57

 100   rms: 0.6426E+00   max: -.9993E+01   C at   57  2   RLX: 0.050
       a = -1.500      CL = -0.1565
      Cm =  0.0401     CD =  0.01134   =>   CDf =  0.00665    CDp =  0.00469

 Side 1  free  transition at x/c =  0.6896   58
 Side 2  free  transition at x/c =  0.6010   58

 101   rms: 0.8809E+00   max: -.1273E+02   C at   58  2   RLX: 0.039
       a = -1.500      CL = -0.1563
      Cm =  0.0401     CD =  0.01135   =>   CDf =  0.00649    CDp =  0.00485

 Side 1  free  transition at x/c =  0.6896   58
 Side 2  free  transition at x/c =  0.6184   59

 102   rms: 0.2687E+01   max: -.3542E+02   C at   59  2   RLX: 0.014
       a = -1.500      CL = -0.1566
      Cm =  0.0405     CD =  0.01139   =>   CDf =  0.00634    CDp =  0.00505

 Side 1  free  transition at x/c =  0.6896   58
 Side 2  free  transition at x/c =  0.6341   60

 103   rms: 0.5424E+01   max: 0.6733E+02   C at   60  2   RLX: 0.022
       a = -1.500      CL = -0.1558
      Cm =  0.0392     CD =  0.01119   =>   CDf =  0.00620    CDp =  0.00498

 Side 1  free  transition at x/c =  0.6895   58
 Side 2  free  transition at x/c =  0.5695   56

 104   rms: 0.6534E+00   max: -.1003E+02   C at   56  2   RLX: 0.050
       a = -1.500      CL = -0.1577
      Cm =  0.0405     CD =  0.01135   =>   CDf =  0.00672    CDp =  0.00463

 Side 1  free  transition at x/c =  0.6894   58
 Side 2  free  transition at x/c =  0.5926   58

 105   rms: 0.6945E+00   max: -.1071E+02   C at   58  2   RLX: 0.047
       a = -1.500      CL = -0.1571
      Cm =  0.0404     CD =  0.01133   =>   CDf =  0.00657    CDp =  0.00476

 Side 1  free  transition at x/c =  0.6894   58
 Side 2  free  transition at x/c =  0.6117   59

 106   rms: 0.1390E+01   max: -.1947E+02   C at   59  2   RLX: 0.026
       a = -1.500      CL = -0.1571
      Cm =  0.0406     CD =  0.01137   =>   CDf =  0.00641    CDp =  0.00495

 Side 1  free  transition at x/c =  0.6894   58
 Side 2  free  transition at x/c =  0.6272   60

 107   rms: 0.3936E+01   max: -.5182E+02   C at   60  2   RLX: 0.010
       a = -1.500      CL = -0.1569
      Cm =  0.0409     CD =  0.01143   =>   CDf =  0.00627    CDp =  0.00516

 Side 1  free  transition at x/c =  0.6895   58
 Side 2  free  transition at x/c =  0.6431   61

 108   rms: 0.1491E+01   max: 0.1810E+02   C at   61  2   RLX: 0.083
       a = -1.500      CL = -0.1549
      Cm =  0.0387     CD =  0.01117   =>   CDf =  0.00613    CDp =  0.00504

 Side 1  free  transition at x/c =  0.6893   58
 Side 2  free  transition at x/c =  0.5483   55

 109   rms: 0.5758E+00   max: -.9135E+01   C at   55  2   RLX: 0.055
       a = -1.500      CL = -0.1563
      Cm =  0.0398     CD =  0.01137   =>   CDf =  0.00682    CDp =  0.00456

 Side 1  free  transition at x/c =  0.6893   58
 Side 2  free  transition at x/c =  0.5797   57

 110   rms: 0.6605E+00   max: -.1024E+02   C at   57  2   RLX: 0.049
       a = -1.500      CL = -0.1558
      Cm =  0.0398     CD =  0.01131   =>   CDf =  0.00664    CDp =  0.00467

 Side 1  free  transition at x/c =  0.6893   58
 Side 2  free  transition at x/c =  0.6019   58

 111   rms: 0.8813E+00   max: -.1270E+02   C at   58  2   RLX: 0.039
       a = -1.500      CL = -0.1556
      Cm =  0.0398     CD =  0.01132   =>   CDf =  0.00648    CDp =  0.00483

 Side 1  free  transition at x/c =  0.6893   58
 Side 2  free  transition at x/c =  0.6203   59

 112   rms: 0.2793E+01   max: -.3654E+02   C at   59  2   RLX: 0.014
       a = -1.500      CL = -0.1561
      Cm =  0.0404     CD =  0.01136   =>   CDf =  0.00633    CDp =  0.00504

 Side 1  free  transition at x/c =  0.6893   58
 Side 2  free  transition at x/c =  0.6365   60

 113   rms: 0.4866E+01   max: 0.5992E+02   C at   60  2   RLX: 0.025
       a = -1.500      CL = -0.1553
      Cm =  0.0391     CD =  0.01115   =>   CDf =  0.00619    CDp =  0.00496

 Side 1  free  transition at x/c =  0.6892   58
 Side 2  free  transition at x/c =  0.5750   57

 114   rms: 0.5926E+00   max: -.9437E+01   C at   57  2   RLX: 0.053
       a = -1.500      CL = -0.1575
      Cm =  0.0405     CD =  0.01131   =>   CDf =  0.00668    CDp =  0.00462

 Side 1  free  transition at x/c =  0.6892   58
 Side 2  free  transition at x/c =  0.5971   58

 115   rms: 0.8129E+00   max: -.1208E+02   C at   58  2   RLX: 0.041
       a = -1.500      CL = -0.1569
      Cm =  0.0404     CD =  0.01130   =>   CDf =  0.00654    CDp =  0.00477

 Side 1  free  transition at x/c =  0.6892   58
 Side 2  free  transition at x/c =  0.6168   59

 116   rms: 0.1543E+01   max: -.2106E+02   C at   59  2   RLX: 0.024
       a = -1.500      CL = -0.1572
      Cm =  0.0408     CD =  0.01134   =>   CDf =  0.00637    CDp =  0.00497

 Side 1  free  transition at x/c =  0.6892   58
 Side 2  free  transition at x/c =  0.6323   60

 117   rms: 0.1346E+02   max: 0.1707E+03   C at   60  2   RLX: 0.009
       a = -1.500      CL = -0.1566
      Cm =  0.0397     CD =  0.01116   =>   CDf =  0.00623    CDp =  0.00492

 Side 1  free  transition at x/c =  0.6891   58
 Side 2  free  transition at x/c =  0.5673   56

 118   rms: 0.6373E+00   max: -.9874E+01   C at   56  2   RLX: 0.051
       a = -1.500      CL = -0.1585
      Cm =  0.0410     CD =  0.01132   =>   CDf =  0.00673    CDp =  0.00459

 Side 1  free  transition at x/c =  0.6891   58
 Side 2  free  transition at x/c =  0.5925   58

 119   rms: 0.6850E+00   max: -.1058E+02   C at   58  2   RLX: 0.047
       a = -1.500      CL = -0.1579
      Cm =  0.0408     CD =  0.01130   =>   CDf =  0.00658    CDp =  0.00472

 Side 1  free  transition at x/c =  0.6891   58
 Side 2  free  transition at x/c =  0.6133   59

 120   rms: 0.1374E+01   max: -.1916E+02   C at   59  2   RLX: 0.026
       a = -1.500      CL = -0.1581
      Cm =  0.0412     CD =  0.01134   =>   CDf =  0.00641    CDp =  0.00493

 Side 1  free  transition at x/c =  0.6891   58
 Side 2  free  transition at x/c =  0.6291   60

 121   rms: 0.3829E+01   max: -.5019E+02   C at   60  2   RLX: 0.010
       a = -1.500      CL = -0.1580
      Cm =  0.0414     CD =  0.01140   =>   CDf =  0.00627    CDp =  0.00513

 Side 1  free  transition at x/c =  0.6891   58
 Side 2  free  transition at x/c =  0.6452   61

 122   rms: 0.1462E+01   max: 0.1767E+02   C at   61  2   RLX: 0.085
       a = -1.500      CL = -0.1558
      Cm =  0.0392     CD =  0.01114   =>   CDf =  0.00613    CDp =  0.00501

 Side 1  free  transition at x/c =  0.6890   58
 Side 2  free  transition at x/c =  0.5597   56

 123   rms: 0.5722E+00   max: -.9180E+01   C at   56  2   RLX: 0.054
       a = -1.500      CL = -0.1576
      Cm =  0.0405     CD =  0.01131   =>   CDf =  0.00676    CDp =  0.00455

 Side 1  free  transition at x/c =  0.6890   58
 Side 2  free  transition at x/c =  0.5836   57

 124   rms: 0.6891E+00   max: -.1047E+02   C at   57  2   RLX: 0.048
       a = -1.500      CL = -0.1568
      Cm =  0.0403     CD =  0.01127   =>   CDf =  0.00662    CDp =  0.00465

 Side 1  free  transition at x/c =  0.6890   58
 Side 2  free  transition at x/c =  0.6062   59

 125   rms: 0.9608E+00   max: -.1425E+02   C at   59  2   RLX: 0.035
       a = -1.500      CL = -0.1566
      Cm =  0.0404     CD =  0.01129   =>   CDf =  0.00647    CDp =  0.00482

 Side 1  free  transition at x/c =  0.6890   58
 Side 2  free  transition at x/c =  0.6247   60

 126   rms: 0.2574E+01   max: -.3499E+02   C at   60  2   RLX: 0.014
       a = -1.500      CL = -0.1567
      Cm =  0.0407     CD =  0.01134   =>   CDf =  0.00631    CDp =  0.00503

 Side 1  free  transition at x/c =  0.6890   58
 Side 2  free  transition at x/c =  0.6422   61

 127   rms: 0.3214E+01   max: 0.4049E+02   C at   61  2   RLX: 0.037
       a = -1.500      CL = -0.1558
      Cm =  0.0393     CD =  0.01110   =>   CDf =  0.00616    CDp =  0.00494

 Side 1  free  transition at x/c =  0.6889   58
 Side 2  free  transition at x/c =  0.5633   56

 128   rms: 0.5973E+00   max: -.9427E+01   C at   56  2   RLX: 0.053
       a = -1.500      CL = -0.1577
      Cm =  0.0406     CD =  0.01130   =>   CDf =  0.00675    CDp =  0.00455

 Side 1  free  transition at x/c =  0.6889   58
 Side 2  free  transition at x/c =  0.5838   57

 129   rms: 0.6807E+00   max: -.1036E+02   C at   57  2   RLX: 0.048
       a = -1.500      CL = -0.1567
[...]

 Side 1  free  transition at x/c =  0.1524   41
 Side 2 forced transition at x/c =  1.0000   68

  38   rms: 0.3775E-01   max: 0.1209E+00   T at   42  1
       a = 16.000      CL =  0.7358
      Cm = -0.0019     CD =  0.17455   =>   CDf =  0.00530    CDp =  0.16925

 Side 1  free  transition at x/c =  0.1605   42
 Side 2 forced transition at x/c =  1.0000   68
 idif Ue xi dudx           1  0.12818490      4.90260124E-03   26.146303    
 Uenew xinew           2  4.09246646E-02  1.56521797E-03

  39   rms: 0.4184E+00   max: 0.2629E+01   D at   42  1   RLX: 0.571
       a = 16.000      CL =  0.6125
      Cm =  0.0014     CD =  0.20935   =>   CDf =  0.00548    CDp =  0.20387

 Side 1  free  transition at x/c =  0.1461   40
 Side 2 forced transition at x/c =  1.0000   69

  40   rms: 0.1058E+00   max: -.5200E+00   D at   40  1   RLX: 0.962
       a = 16.000      CL =  0.6794
      Cm = -0.0094     CD =  0.19131   =>   CDf =  0.00540    CDp =  0.18592

 Side 1  free  transition at x/c =  0.1525   40
 Side 2 forced transition at x/c =  1.0000   69

  41   rms: 0.1036E+00   max: -.5810E+00   T at   41  1   RLX: 0.861
       a = 16.000      CL =  0.6537
      Cm = -0.0110     CD =  0.17271   =>   CDf =  0.00537    CDp =  0.16733

 Side 1  free  transition at x/c =  0.1503   40
 Side 2 forced transition at x/c =  1.0000   69

  42   rms: 0.1242E+00   max: -.1190E+01   T at   40  1   RLX: 0.420
       a = 16.000      CL =  0.6718
      Cm = -0.0123     CD =  0.17906   =>   CDf =  0.00546    CDp =  0.17360

 Side 1  free  transition at x/c =  0.1483   40
 Side 2 forced transition at x/c =  1.0000   69

  43   rms: 0.3942E-01   max: -.4646E+00   D at   40  1
       a = 16.000      CL =  0.6760
      Cm = -0.0079     CD =  0.17186   =>   CDf =  0.00545    CDp =  0.16640

 Side 1  free  transition at x/c =  0.1519   40
 Side 2 forced transition at x/c =  1.0000   69

  44   rms: 0.1195E+00   max: 0.5054E+00   T at   41  1
       a = 16.000      CL =  0.7203
      Cm = -0.0006     CD =  0.16856   =>   CDf =  0.00521    CDp =  0.16335

 Side 1  free  transition at x/c =  0.1494   41
 Side 2 forced transition at x/c =  1.0000   68
 idif Ue xi dudx           1  0.11069226      4.33266163E-03   25.548328    
 Uenew xinew           2  2.54276991E-02  9.95278358E-04

  45   rms: 0.2211E+00   max: 0.1103E+01   D at   42  1
       a = 16.000      CL =  0.6789
      Cm = -0.0158     CD =  0.21880   =>   CDf =  0.00554    CDp =  0.21326

 Side 1  free  transition at x/c =  0.1456   40
 Side 2 forced transition at x/c =  1.0000   69

  46   rms: 0.8440E-01   max: -.4700E+00   D at   40  1
       a = 16.000      CL =  0.6804
      Cm = -0.0107     CD =  0.19043   =>   CDf =  0.00535    CDp =  0.18508

 Side 1  free  transition at x/c =  0.1519   40
 Side 2 forced transition at x/c =  1.0000   69

  47   rms: 0.3507E+00   max: -.2199E+01   T at   41  1   RLX: 0.227
       a = 16.000      CL =  0.6599
      Cm = -0.0164     CD =  0.18201   =>   CDf =  0.00538    CDp =  0.17663

 Side 1  free  transition at x/c =  0.1473   40
 Side 2 forced transition at x/c =  1.0000   69

  48   rms: 0.8487E-01   max: -.4877E+00   T at   40  1
       a = 16.000      CL =  0.6440
      Cm = -0.0078     CD =  0.15695   =>   CDf =  0.00543    CDp =  0.15152

 Side 1  free  transition at x/c =  0.1502   40
 Side 2 forced transition at x/c =  1.0000   69

  49   rms: 0.7721E-01   max: -.2926E+00   D at   40  1
       a = 16.000      CL =  0.6823
      Cm = -0.0059     CD =  0.16927   =>   CDf =  0.00551    CDp =  0.16376

 Side 1  free  transition at x/c =  0.1524   40
 Side 2 forced transition at x/c =  1.0000   69

  50   rms: 0.1102E+00   max: 0.2805E+00   T at   41  1
       a = 16.000      CL =  0.7347
      Cm =  0.0002     CD =  0.16941   =>   CDf =  0.00520    CDp =  0.16422

 Side 1  free  transition at x/c =  0.1519   41
 Side 2 forced transition at x/c =  1.0000   68

  51   rms: 0.1428E+00   max: 0.6992E+00   D at   42  1
       a = 16.000      CL =  0.7171
      Cm = -0.0087     CD =  0.20245   =>   CDf =  0.00530    CDp =  0.19716

 Side 1  free  transition at x/c =  0.1515   41
 Side 2 forced transition at x/c =  1.0000   68

  52   rms: 0.6833E-01   max: 0.2717E+00   D at   88  2
       a = 16.000      CL =  0.7140
      Cm = -0.0060     CD =  0.18770   =>   CDf =  0.00528    CDp =  0.18242

 Side 1  free  transition at x/c =  0.1526   41
 Side 2 forced transition at x/c =  1.0000   68

  53   rms: 0.6770E-01   max: 0.1575E+00   T at   46  1
       a = 16.000      CL =  0.7451
      Cm = -0.0005     CD =  0.17306   =>   CDf =  0.00531    CDp =  0.16775

 Side 1  free  transition at x/c =  0.1525   41
 Side 2 forced transition at x/c =  1.0000   68

  54   rms: 0.7292E-01   max: 0.3220E+00   D at   42  1
       a = 16.000      CL =  0.7344
      Cm = -0.0044     CD =  0.18869   =>   CDf =  0.00527    CDp =  0.18342

 Side 1  free  transition at x/c =  0.1527   41
 Side 2 forced transition at x/c =  1.0000   68

  55   rms: 0.2502E-01   max: 0.7868E-01   D at   88  2
       a = 16.000      CL =  0.7418
      Cm = -0.0018     CD =  0.17767   =>   CDf =  0.00527    CDp =  0.17240

 Side 1  free  transition at x/c =  0.1529   41
 Side 2 forced transition at x/c =  1.0000   68

  56   rms: 0.8221E-02   max: 0.3048E-01   D at   42  1
       a = 16.000      CL =  0.7428
      Cm = -0.0018     CD =  0.17786   =>   CDf =  0.00527    CDp =  0.17259

 Side 1  free  transition at x/c =  0.1606   42
 Side 2 forced transition at x/c =  1.0000   68
 idif Ue xi dudx           1  0.12840882      4.91178036E-03   26.143030    
 Uenew xinew           2  4.11595106E-02  1.57439709E-03

  57   rms: 0.4673E+00   max: 0.2820E+01   D at   42  1   RLX: 0.532
       a = 16.000      CL =  0.6093
      Cm =  0.0024     CD =  0.20831   =>   CDf =  0.00546    CDp =  0.20285

 Side 1  free  transition at x/c =  0.1457   40
 Side 2 forced transition at x/c =  1.0000   69

  58   rms: 0.1116E+00   max: -.5328E+00   D at   40  1   RLX: 0.938
       a = 16.000      CL =  0.6746
      Cm = -0.0087     CD =  0.19213   =>   CDf =  0.00539    CDp =  0.18675

 Side 1  free  transition at x/c =  0.1520   40
 Side 2 forced transition at x/c =  1.0000   69

  59   rms: 0.1320E+00   max: -.8113E+00   T at   41  1   RLX: 0.616
       a = 16.000      CL =  0.6523
      Cm = -0.0119     CD =  0.17757   =>   CDf =  0.00537    CDp =  0.17220

 Side 1  free  transition at x/c =  0.1486   40
 Side 2 forced transition at x/c =  1.0000   69

  60   rms: 0.7852E-01   max: -.5794E+00   T at   40  1   RLX: 0.863
       a = 16.000      CL =  0.6573
      Cm = -0.0091     CD =  0.16465   =>   CDf =  0.00544    CDp =  0.15922

 Side 1  free  transition at x/c =  0.1495   40
 Side 2 forced transition at x/c =  1.0000   69

  61   rms: 0.5263E-01   max: -.3696E+00   D at   40  1
       a = 16.000      CL =  0.6801
      Cm = -0.0070     CD =  0.17130   =>   CDf =  0.00548    CDp =  0.16582

 Side 1  free  transition at x/c =  0.1527   40
 Side 2 forced transition at x/c =  1.0000   69

  62   rms: 0.3598E+00   max: 0.1365E+01   T at   41  1   RLX: 0.624
       a = 16.000      CL =  0.7704
      Cm =  0.0056     CD =  0.17719   =>   CDf =  0.00497    CDp =  0.17222

 Side 1  free  transition at x/c =  0.1464   42
 Side 2 forced transition at x/c =  1.0000   67
 idif Ue xi dudx           1  0.11802810      4.60278988E-03   25.642729    
 Uenew xinew           2  2.22416520E-02  8.67366791E-04

  63   rms: 0.1956E+01   max: -.1033E+02   D at    2  1   RLX: 0.048
       a = 16.000      CL =  0.6907
      Cm =  0.0244     CD =  0.14650   =>   CDf =  0.00543    CDp =  0.14107

 Side 1  free  transition at x/c =  0.1464   41
 Side 2 forced transition at x/c =  1.0000   68
 idif Ue xi dudx           1  0.14979842      5.75470924E-03   26.030581    
 Uenew xinew           2  6.29244000E-02  2.41732597E-03

  64   rms: 0.4404E+00   max: 0.1599E+01   D at   43  1   RLX: 0.896
       a = 16.000      CL =  0.6322
      Cm = -0.0191     CD =  0.24989   =>   CDf =  0.00548    CDp =  0.24441

 Side 1  free  transition at x/c =  0.1421   40
 Side 2 forced transition at x/c =  1.0000   69

  65   rms: 0.1398E+00   max: -.6748E+00   D at   40  1   RLX: 0.741
       a = 16.000      CL =  0.6190
      Cm = -0.0006     CD =  0.18638   =>   CDf =  0.00540    CDp =  0.18098

 Side 1  free  transition at x/c =  0.1461   40
 Side 2 forced transition at x/c =  1.0000   69

  66   rms: 0.4997E-01   max: -.4961E+00   D at   40  1
       a = 16.000      CL =  0.6691
      Cm = -0.0089     CD =  0.17472   =>   CDf =  0.00540    CDp =  0.16932

 Side 1  free  transition at x/c =  0.1508   40
 Side 2 forced transition at x/c =  1.0000   69

  67   rms: 0.6468E-01   max: -.3166E+00   T at   40  1
       a = 16.000      CL =  0.6914
      Cm = -0.0051     CD =  0.17021   =>   CDf =  0.00543    CDp =  0.16478

 Side 1  free  transition at x/c =  0.1515   40
 Side 2 forced transition at x/c =  1.0000   69

  68   rms: 0.4097E-01   max: -.2333E+00   D at   40  1
       a = 16.000      CL =  0.7146
      Cm = -0.0051     CD =  0.17842   =>   CDf =  0.00517    CDp =  0.17325

 Side 1  free  transition at x/c =  0.1570   42
 Side 2 forced transition at x/c =  1.0000   68

  69   rms: 0.1233E+00   max: 0.9280E+00   D at   42  1
       a = 16.000      CL =  0.7081
      Cm = -0.0083     CD =  0.19345   =>   CDf =  0.00531    CDp =  0.18815

 Side 1  free  transition at x/c =  0.1515   41
 Side 2 forced transition at x/c =  1.0000   68

  70   rms: 0.3698E-01   max: -.2173E+00   D at   41  1
       a = 16.000      CL =  0.7134
      Cm = -0.0050     CD =  0.17970   =>   CDf =  0.00532    CDp =  0.17438

 Side 1  free  transition at x/c =  0.1572   42
 Side 2 forced transition at x/c =  1.0000   68

  71   rms: 0.1280E+00   max: 0.9819E+00   D at   42  1
       a = 16.000      CL =  0.7056
      Cm = -0.0087     CD =  0.19431   =>   CDf =  0.00530    CDp =  0.18901

 Side 1  free  transition at x/c =  0.1513   41
 Side 2 forced transition at x/c =  1.0000   68

  72   rms: 0.3746E-01   max: -.2313E+00   D at   41  1
       a = 16.000      CL =  0.7105
      Cm = -0.0054     CD =  0.18047   =>   CDf =  0.00532    CDp =  0.17514

 Side 1  free  transition at x/c =  0.1566   42
 Side 2 forced transition at x/c =  1.0000   68

  73   rms: 0.1063E+00   max: 0.7883E+00   D at   42  1
       a = 16.000      CL =  0.7141
      Cm = -0.0073     CD =  0.18955   =>   CDf =  0.00531    CDp =  0.18424

 Side 1  free  transition at x/c =  0.1518   41
 Side 2 forced transition at x/c =  1.0000   68

  74   rms: 0.3568E-01   max: -.1861E+00   D at   41  1
       a = 16.000      CL =  0.7201
      Cm = -0.0039     CD =  0.17785   =>   CDf =  0.00531    CDp =  0.17254

 Side 1  free  transition at x/c =  0.1586   42
 Side 2 forced transition at x/c =  1.0000   68
 idif Ue xi dudx           1  0.10300939      4.12344933E-03   24.981363    
 Uenew xinew           2  1.96370017E-02  7.86066055E-04

  75   rms: 0.1981E+00   max: 0.1474E+01   D at   42  1
       a = 16.000      CL =  0.6773
      Cm = -0.0132     CD =  0.20918   =>   CDf =  0.00550    CDp =  0.20368

 Side 1  free  transition at x/c =  0.1488   40
 Side 2 forced transition at x/c =  1.0000   69

  76   rms: 0.6293E-01   max: -.4006E+00   D at   40  1
       a = 16.000      CL =  0.6909
      Cm = -0.0091     CD =  0.18645   =>   CDf =  0.00537    CDp =  0.18108

 Side 1  free  transition at x/c =  0.1517   40
 Side 2 forced transition at x/c =  1.0000   69

  77   rms: 0.9441E-01   max: 0.4312E+00   T at   41  1
       a = 16.000      CL =  0.7204
      Cm = -0.0016     CD =  0.17103   =>   CDf =  0.00515    CDp =  0.16588

 Side 1  free  transition at x/c =  0.1500   41
 Side 2 forced transition at x/c =  1.0000   68
 idif Ue xi dudx           1  9.84227359E-02  3.97777557E-03   24.743160    
 Uenew xinew           2  1.58453286E-02  6.40392303E-04

  78   rms: 0.1704E+00   max: 0.8531E+00   D at   42  1
       a = 16.000      CL =  0.6881
      Cm = -0.0135     CD =  0.20884   =>   CDf =  0.00553    CDp =  0.20331

 Side 1  free  transition at x/c =  0.1480   40
 Side 2 forced transition at x/c =  1.0000   69

  79   rms: 0.6649E-01   max: -.3568E+00   D at   40  1
       a = 16.000      CL =  0.6875
      Cm = -0.0096     CD =  0.18825   =>   CDf =  0.00535    CDp =  0.18290

 Side 1  free  transition at x/c =  0.1524   40
 Side 2 forced transition at x/c =  1.0000   69

  80   rms: 0.5291E+00   max: -.2757E+01   T at   41  1   RLX: 0.181
       a = 16.000      CL =  0.6583
      Cm = -0.0168     CD =  0.18342   =>   CDf =  0.00537    CDp =  0.17805

 Side 1  free  transition at x/c =  0.1475   40
 Side 2 forced transition at x/c =  1.0000   69

  81   rms: 0.8732E-01   max: -.4714E+00   T at   40  1
       a = 16.000      CL =  0.6444
      Cm = -0.0074     CD =  0.15552   =>   CDf =  0.00544    CDp =  0.15008

 Side 1  free  transition at x/c =  0.1504   40
 Side 2 forced transition at x/c =  1.0000   69

  82   rms: 0.7722E-01   max: -.2949E+00   D at   40  1
       a = 16.000      CL =  0.6843
      Cm = -0.0057     CD =  0.16983   =>   CDf =  0.00551    CDp =  0.16432

 Side 1  free  transition at x/c =  0.1526   40
 Side 2 forced transition at x/c =  1.0000   69

  83   rms: 0.1225E+00   max: 0.2890E+00   T at   41  1
       a = 16.000      CL =  0.7425
      Cm =  0.0012     CD =  0.16900   =>   CDf =  0.00519    CDp =  0.16381

 Side 1  free  transition at x/c =  0.1517   41
 Side 2 forced transition at x/c =  1.0000   68
 idif Ue xi dudx           1  9.19951797E-02  3.78870964E-03   24.281401    
 Uenew xinew           2  1.09588364E-02  4.51326370E-04

  84   rms: 0.2238E+00   max: 0.1009E+01   D at   42  1
       a = 16.000      CL =  0.6920
      Cm = -0.0129     CD =  0.21865   =>   CDf =  0.00551    CDp =  0.21314

 Side 1  free  transition at x/c =  0.1483   40
 Side 2 forced transition at x/c =  1.0000   69

  85   rms: 0.1151E+00   max: 0.4414E+00   D at   41  1
       a = 16.000      CL =  0.6831
      Cm = -0.0115     CD =  0.19797   =>   CDf =  0.00532    CDp =  0.19265

 Side 1  free  transition at x/c =  0.1522   40
 Side 2 forced transition at x/c =  1.0000   69

  86   rms: 0.1409E+00   max: -.8185E+00   T at   41  1   RLX: 0.611
       a = 16.000      CL =  0.6492
      Cm = -0.0111     CD =  0.17779   =>   CDf =  0.00536    CDp =  0.17243

 Side 1  free  transition at x/c =  0.1486   40
 Side 2 forced transition at x/c =  1.0000   69

  87   rms: 0.7878E-01   max: -.5857E+00   T at   40  1   RLX: 0.854
       a = 16.000      CL =  0.6576
      Cm = -0.0090     CD =  0.16472   =>   CDf =  0.00544    CDp =  0.15928

 Side 1  free  transition at x/c =  0.1493   40
 Side 2 forced transition at x/c =  1.0000   69

  88   rms: 0.5064E-01   max: -.3796E+00   D at   40  1
       a = 16.000      CL =  0.6802
      Cm = -0.0071     CD =  0.17159   =>   CDf =  0.00547    CDp =  0.16611

 Side 1  free  transition at x/c =  0.1526   40
 Side 2 forced transition at x/c =  1.0000   69

  89   rms: 0.2961E+00   max: 0.1126E+01   T at   41  1   RLX: 0.734
       a = 16.000      CL =  0.7688
      Cm =  0.0048     CD =  0.17424   =>   CDf =  0.00497    CDp =  0.16927

 Side 1  free  transition at x/c =  0.1465   42
 Side 2 forced transition at x/c =  1.0000   67
 idif Ue xi dudx           1  0.10902639      4.31263447E-03   25.280693    
 Uenew xinew           2  1.45923039E-02  5.77211380E-04

  90   rms: 0.1880E+01   max: -.1376E+02   D at    2  1   RLX: 0.036
       a = 16.000      CL =  0.6963
      Cm =  0.0270     CD =  0.14175   =>   CDf =  0.00544    CDp =  0.13631

 Side 1  free  transition at x/c =  0.1467   41
 Side 2 forced transition at x/c =  1.0000   68

  91   rms: 0.5738E+00   max: 0.2038E+01   D at   42  1   RLX: 0.329
       a = 16.000      CL =  0.6551
      Cm =  0.0077     CD =  0.18393   =>   CDf =  0.00524    CDp =  0.17868

 Side 1  free  transition at x/c =  0.1467   41
 Side 2 forced transition at x/c =  1.0000   68
 idif Ue xi dudx           1  0.10581286      4.18758392E-03   25.268234    
 Uenew xinew           2  2.14830693E-02  8.50200653E-04

  92   rms: 0.1753E+00   max: 0.6090E+00   D at   43  1   RLX: 0.915
       a = 16.000      CL =  0.6686
      Cm = -0.0106     CD =  0.20742   =>   CDf =  0.00552    CDp =  0.20191

 Side 1  free  transition at x/c =  0.1495   40
 Side 2 forced transition at x/c =  1.0000   69

  93   rms: 0.6488E-01   max: -.5865E+00   T at   40  1   RLX: 0.853
       a = 16.000      CL =  0.6847
      Cm = -0.0053     CD =  0.17907   =>   CDf =  0.00536    CDp =  0.17371

 Side 1  free  transition at x/c =  0.1486   40
 Side 2 forced transition at x/c =  1.0000   69

  94   rms: 0.3556E-01   max: -.4381E+00   D at   40  1
       a = 16.000      CL =  0.6888
      Cm = -0.0091     CD =  0.18361   =>   CDf =  0.00536    CDp =  0.17825

 Side 1  free  transition at x/c =  0.1516   40
 Side 2 forced transition at x/c =  1.0000   69

  95   rms: 0.8191E-01   max: 0.3755E+00   T at   41  1
       a = 16.000      CL =  0.7141
      Cm = -0.0026     CD =  0.17133   =>   CDf =  0.00516    CDp =  0.16616

 Side 1  free  transition at x/c =  0.1504   41
 Side 2 forced transition at x/c =  1.0000   68
 idif Ue xi dudx           1  8.41425732E-02  3.57079506E-03   23.564100    
 Uenew xinew           2  5.50013874E-03  2.33411789E-04

  96   rms: 0.1165E+00   max: 0.6217E+00   D at   42  1
       a = 16.000      CL =  0.6985
      Cm = -0.0108     CD =  0.19853   =>   CDf =  0.00554    CDp =  0.19299

 Side 1  free  transition at x/c =  0.1507   40
 Side 2 forced transition at x/c =  1.0000   69

  97   rms: 0.6448E-01   max: 0.5730E+00   T at    2  2
       a = 16.000      CL =  0.7073
      Cm = -0.0058     CD =  0.18225   =>   CDf =  0.00512    CDp =  0.17712

 Side 1  free  transition at x/c =  0.1508   41
 Side 2 forced transition at x/c =  1.0000   68

  98   rms: 0.4216E-01   max: -.2730E+00   D at   41  1
       a = 16.000      CL =  0.7059
      Cm = -0.0071     CD =  0.18371   =>   CDf =  0.00533    CDp =  0.17838

 Side 1  free  transition at x/c =  0.1541   42
 Side 2 forced transition at x/c =  1.0000   68

  99   rms: 0.4836E-01   max: 0.2412E+00   T at   42  1
       a = 16.000      CL =  0.7236
      Cm = -0.0040     CD =  0.17738   =>   CDf =  0.00532    CDp =  0.17206

 Side 1  free  transition at x/c =  0.1525   41
 Side 2 forced transition at x/c =  1.0000   68

 100   rms: 0.4071E-01   max: -.1143E+00   D at   42  1
       a = 16.000      CL =  0.7393
      Cm = -0.0016     CD =  0.17340   =>   CDf =  0.00531    CDp =  0.16809

 Side 1  free  transition at x/c =  0.1529   42
 Side 2 forced transition at x/c =  1.0000   68

 101   rms: 0.6967E-02   max: 0.3951E-01   D at   42  1
       a = 16.000      CL =  0.7408
      Cm = -0.0021     CD =  0.17791   =>   CDf =  0.00527    CDp =  0.17264

 Side 1  free  transition at x/c =  0.1530   42
 Side 2 forced transition at x/c =  1.0000   68

 102   rms: 0.2297E-02   max: 0.8896E-02   D at   88  2
       a = 16.000      CL =  0.7395
      Cm = -0.0021     CD =  0.17688   =>   CDf =  0.00526    CDp =  0.17162

 Side 1  free  transition at x/c =  0.1530   42
 Side 2 forced transition at x/c =  1.0000   68

 103   rms: 0.1418E-03   max: 0.9469E-03   D at   88  2
       a = 16.000      CL =  0.7395
      Cm = -0.0021     CD =  0.17677   =>   CDf =  0.00527    CDp =  0.17150

 Side 1  free  transition at x/c =  0.1530   42
 Side 2 forced transition at x/c =  1.0000   68

 104   rms: 0.1571E-04   max: 0.9558E-04   D at   88  2
       a = 16.000      CL =  0.7394
      Cm = -0.0021     CD =  0.17675   =>   CDf =  0.00527    CDp =  0.17149
 plradd ia,ip,cpol           49           0  1.37934438E-03

 Point added to stored polar  1
 Point written to save file  marske3_Re150k.base.pol                         
 Dump file unspecified or not available

.OPERva   c>  
 Polar accumulation disabled

.OPERv   c>  
 XFOIL   c>  
 XFOIL   c>  