
 ===================================================
  XFOIL Version 6.99
  Copyright (C) 2000   Mark Drela, Harold Youngren

  This software comes with ABSOLUTELY NO WARRANTY,
    subject to the GNU General Public License.

  Caveat computor
 ===================================================

 File  xfoil.def  not found

   QUIT    Exit program

  .OPER    Direct operating point(s)
  .MDES    Complex mapping design routine
  .QDES    Surface speed design routine
  .GDES    Geometry design routine

   SAVE f  Write airfoil to labeled coordinate file
   PSAV f  Write airfoil to plain coordinate file
   ISAV f  Write airfoil to ISES coordinate file
   MSAV f  Write airfoil to MSES coordinate file
   REVE    Reverse written-airfoil node ordering

   LOAD f  Read buffer airfoil from coordinate file
   NACA i  Set NACA 4,5-digit airfoil and buffer airfoil
   INTE    Set buffer airfoil by interpolating two airfoils
   NORM    Buffer airfoil normalization toggle
   XYCM rr Change CM reference location, currently  0.25000 0.00000

   BEND    Display structural properties of current airfoil

   PCOP    Set current-airfoil panel nodes directly from buffer airfoil points
   PANE    Set current-airfoil panel nodes ( 160 ) based on curvature
  .PPAR    Show/change paneling

  .PLOP    Plotting options

   WDEF f  Write  current-settings file
   RDEF f  Reread current-settings file
   NAME s  Specify new airfoil name
   NINC    Increment name version number

   Z       Zoom    | (available in all menus)
   U       Unzoom  | 

 XFOIL   c>  
 Labeled airfoil file.  Name:  MARSKE PIONEER IID ROOT AIRFOIL (NACA 431012A/24

 Number of input coordinate points:  33
 Counterclockwise ordering
 Max thickness =     0.120572  at x =   0.251
 Max camber    =     0.022504  at x =   0.151

  LE  x,y  =  -0.00150   0.00604  |   Chord =   1.00152
  TE  x,y  =   1.00000   0.00000  |

 Current airfoil nodes set from buffer airfoil nodes (  33 )

 WARNING: Poor input coordinate distribution
          Excessive panel angle   75.5  at i =  17
          Repaneling with PANE and/or PPAR suggested
           (doing GDES,CADD before repaneling _may_
            improve excessively coarse LE spacing

 XFOIL   c>  
 XFOIL   c>  
 Sharp trailing edge

 Paneling parameters used...
   Number of panel nodes       160
   Panel bunching parameter    1.000
   TE/LE panel density ratio   0.150
   Refined-area/LE panel density ratio    0.200
   Top    side refined area x/c limits  1.000 1.000
   Bottom side refined area x/c limits  1.000 1.000

 XFOIL   c>  
.OPERi   c>  
 Xtr/c     =  1.0000    top    side
 Xtr/c     =  1.0000    bottom side
 Ncrit     =    9.00   ( 0.070 % turb. level )
 Vacc      =  0.0100

 Klag  =  5.6000     Uxwt  =    1.00
 A     =  6.7000     B     =  0.7500       KCt = 0.01485
 CtiniK=  1.8000     CtiniX=  3.3000

..VPAR   c>  
..VPAR   c>  
.OPERi   c>  
 M  =    0.0000
 Re =    300000

.OPERv   c>  
.OPERv   c>  
.OPERv   c>  
 Polar  1 newly created for accumulation
 Airfoil archived with polar: MARSKE PIONEER IID ROOT AIRFOIL (NACA 431012A/24

Enter  polar save filename  OR  <return> for no file   s>  
 New polar save file available

Enter  polar dump filename  OR  <return> for no file   s>  
 Polar dump file will NOT be written

 Polar accumulation enabled

.OPERva   c>   Calculating unit vorticity distributions ...
 Calculating wake trajectory ...
 Calculating source influence matrix ...

 Solving BL system ...

 Initializing BL ...
    side            1  ...
 MRCHUE: Inverse mode at  48     Hk =   3.925
 MRCHUE: Inverse mode at  49     Hk =   4.408
 MRCHUE: Inverse mode at  50     Hk =   4.880
 MRCHUE: Inverse mode at  51     Hk =   5.340
 MRCHUE: Inverse mode at  52     Hk =   5.792
 MRCHUE: Inverse mode at  53     Hk =   6.237
 MRCHUE: Inverse mode at  54     Hk =   6.675
 MRCHUE: Inverse mode at  55     Hk =   7.108
 MRCHUE: Inverse mode at  56     Hk =   7.538
 MRCHUE: Inverse mode at  57     Hk =   6.429
 MRCHUE: Inverse mode at  58     Hk =   4.713
 MRCHUE: Inverse mode at  59     Hk =   3.464
    side            2  ...
 MRCHUE: Inverse mode at  21     Hk =   3.977
 MRCHUE: Inverse mode at  22     Hk =   4.657
 MRCHUE: Inverse mode at  23     Hk =   5.343
 MRCHUE: Convergence failed at  24  side 2    Res =  0.8632E+01
 MRCHUE: Convergence failed at  25  side 2    Res =  0.3987E+01
 MRCHUE: Inverse mode at  26     Hk =   6.287
 MRCHUE: Inverse mode at  27     Hk =   7.304
 MRCHUE: Inverse mode at  28     Hk =   8.387
 MRCHUE: Inverse mode at  29     Hk =   6.020
 MRCHUE: Inverse mode at  30     Hk =   2.500
 MRCHUE: Inverse mode at  86     Hk =   2.500
 MRCHUE: Inverse mode at  87     Hk =   2.500
 MRCHUE: Inverse mode at  88     Hk =   2.500

 MRCHDU: Convergence failed at  25  side 2    Res =  0.2337E+01
 MRCHDU: Convergence failed at  26  side 2    Res =  0.2803E+01
 MRCHDU: Convergence failed at  27  side 2    Res =  0.1171E+02
 MRCHDU: Convergence failed at  28  side 2    Res =  0.5039E+01
 MRCHDU: Convergence failed at  29  side 2    Res =  0.2869E+02
 MRCHDU: Convergence failed at  30  side 2    Res =  0.1679E+01
 MRCHDU: Convergence failed at  31  side 2    Res =  0.2185E+01
 MRCHDU: Convergence failed at  32  side 2    Res =  0.1664E+01
 MRCHDU: Convergence failed at  33  side 2    Res =  0.1763E+01
 MRCHDU: Convergence failed at  34  side 2    Res =  0.1925E+01
 MRCHDU: Convergence failed at  35  side 2    Res =  0.2113E+01
 MRCHDU: Convergence failed at  36  side 2    Res =  0.2317E+01
 MRCHDU: Convergence failed at  37  side 2    Res =  0.2623E+01
 MRCHDU: Convergence failed at  38  side 2    Res =  0.3096E+01
 MRCHDU: Convergence failed at  39  side 2    Res =  0.3864E+01
 MRCHDU: Convergence failed at  40  side 2    Res =  0.4782E+01
 MRCHDU: Convergence failed at  41  side 2    Res =  0.5946E+01
 MRCHDU: Convergence failed at  42  side 2    Res =  0.6318E+01
 MRCHDU: Convergence failed at  43  side 2    Res =  0.6388E+01
 MRCHDU: Convergence failed at  44  side 2    Res =  0.6544E+01
 MRCHDU: Convergence failed at  45  side 2    Res =  0.6957E+01
 MRCHDU: Convergence failed at  46  side 2    Res =  0.7627E+01
 MRCHDU: Convergence failed at  47  side 2    Res =  0.9086E+01
 MRCHDU: Convergence failed at  48  side 2    Res =  0.1138E+02
 MRCHDU: Convergence failed at  49  side 2    Res =  0.1338E+02
 MRCHDU: Convergence failed at  50  side 2    Res =  0.1838E+02
 MRCHDU: Convergence failed at  51  side 2    Res =  0.2383E+02
 MRCHDU: Convergence failed at  52  side 2    Res =  0.4995E+02
 MRCHDU: Convergence failed at  53  side 2    Res =  0.3860E+03
 MRCHDU: Convergence failed at  54  side 2    Res =  0.9742E+02
 MRCHDU: Convergence failed at  55  side 2    Res =  0.2901E+02
 MRCHDU: Convergence failed at  56  side 2    Res =  0.1316E+03
 MRCHDU: Convergence failed at  57  side 2    Res =  0.5445E+02
 MRCHDU: Convergence failed at  58  side 2    Res =  0.1012E+03
 MRCHDU: Convergence failed at  59  side 2    Res =  0.1189E+02
 MRCHDU: Convergence failed at  60  side 2    Res =  0.4470E+02
 MRCHDU: Convergence failed at  61  side 2    Res =  0.3192E+02
 MRCHDU: Convergence failed at  62  side 2    Res =  0.3999E+02
 MRCHDU: Convergence failed at  63  side 2    Res =  0.3794E+02
 MRCHDU: Convergence failed at  64  side 2    Res =  0.7344E+02
 MRCHDU: Convergence failed at  65  side 2    Res =  0.2957E+02
 MRCHDU: Convergence failed at  66  side 2    Res =  0.3057E+02
 MRCHDU: Convergence failed at  67  side 2    Res =  0.3058E+02
 MRCHDU: Convergence failed at  68  side 2    Res =  0.2665E+02
 MRCHDU: Convergence failed at  69  side 2    Res =  0.1191E+02
 MRCHDU: Convergence failed at  70  side 2    Res =  0.1505E+02
 MRCHDU: Convergence failed at  71  side 2    Res =  0.4633E+02
 MRCHDU: Convergence failed at  72  side 2    Res =  0.4615E+02
 MRCHDU: Convergence failed at  73  side 2    Res =  0.3826E+02
 MRCHDU: Convergence failed at  74  side 2    Res =  0.4265E+02
 MRCHDU: Convergence failed at  75  side 2    Res =  0.3651E+02
 MRCHDU: Convergence failed at  76  side 2    Res =  0.5391E+02
 MRCHDU: Convergence failed at  77  side 2    Res =  0.8981E+02
 MRCHDU: Convergence failed at  78  side 2    Res =  0.5673E+02
 MRCHDU: Convergence failed at  79  side 2    Res =  0.4084E+02
 MRCHDU: Convergence failed at  80  side 2    Res =  0.5194E+02
 MRCHDU: Convergence failed at  81  side 2    Res =  0.6916E+02
 MRCHDU: Convergence failed at  82  side 2    Res =  0.1908E+02
 MRCHDU: Convergence failed at  83  side 2    Res =  0.1778E+02
 MRCHDU: Convergence failed at  84  side 2    Res =  0.1633E+02
 MRCHDU: Convergence failed at  85  side 2    Res =  0.3711E+02
 MRCHDU: Convergence failed at  86  side 2    Res =  0.1068E+04
 MRCHDU: Convergence failed at  87  side 2    Res =  0.3972E+03
 MRCHDU: Convergence failed at  88  side 2    Res =  0.1189E+03
 Side 1  free  transition at x/c =  0.7433   57
 Side 2  free  transition at x/c =  0.0610   29

   1   rms: 0.8611E+00   max: -.8524E+00   U at   88  2   RLX: 0.156
       a = -4.000      CL = -1.7163
      Cm =  0.4249     CD =  0.00475   =>   CDf =  0.00262    CDp =  0.00213

 Side 1  free  transition at x/c =  0.7465   57
 Side 2  free  transition at x/c =  0.0594   29

   2   rms: 0.7997E+00   max: 0.7767E+01   C at   29  2   RLX: 0.193
       a = -4.000      CL = -1.3986
      Cm =  0.3296     CD =  0.00673   =>   CDf =  0.01430    CDp = -0.00757

 Side 1  free  transition at x/c =  0.7522   57
 Side 2  free  transition at x/c =  0.0492   28

   3   rms: 0.5277E+00   max: 0.6264E+00   D at   92  2   RLX: 0.516
       a = -4.000      CL = -0.8624
      Cm =  0.1654     CD =  0.00829   =>   CDf =  0.01282    CDp = -0.00452

 MRCHDU: Convergence failed at  59  side 1    Res =  0.6532E+01
 Side 1  free  transition at x/c =  0.7733   59
 Side 2  free  transition at x/c =  0.0437   28

   4   rms: 0.3146E+00   max: 0.5451E+00   D at  102  2
       a = -4.000      CL = -0.3748
      Cm =  0.0248     CD =  0.01368   =>   CDf =  0.01002    CDp =  0.00367

 Side 1  free  transition at x/c =  0.7996   61
 Side 2  free  transition at x/c =  0.0432   27

   5   rms: 0.1057E+00   max: -.4245E+00   D at   87  2
       a = -4.000      CL = -0.2884
      Cm =  0.0061     CD =  0.01469   =>   CDf =  0.00766    CDp =  0.00703

 Side 1  free  transition at x/c =  0.7826   60
 Side 2  free  transition at x/c =  0.0464   27

   6   rms: 0.6912E-01   max: 0.6886E+00   D at   27  2
       a = -4.000      CL = -0.2613
      Cm =  0.0002     CD =  0.01527   =>   CDf =  0.00757    CDp =  0.00769

 Side 1  free  transition at x/c =  0.7834   60
 Side 2  free  transition at x/c =  0.0463   27

   7   rms: 0.7369E-02   max: 0.7072E-01   D at   29  2
       a = -4.000      CL = -0.2588
      Cm = -0.0005     CD =  0.01508   =>   CDf =  0.00754    CDp =  0.00754

 Side 1  free  transition at x/c =  0.7831   60
 Side 2  free  transition at x/c =  0.0464   27

   8   rms: 0.1422E-03   max: -.2051E-02   D at   29  2
       a = -4.000      CL = -0.2588
      Cm = -0.0005     CD =  0.01509   =>   CDf =  0.00754    CDp =  0.00755

 Side 1  free  transition at x/c =  0.7831   60
 Side 2  free  transition at x/c =  0.0464   27

   9   rms: 0.1130E-05   max: -.1677E-04   C at   60  1
       a = -4.000      CL = -0.2588
      Cm = -0.0005     CD =  0.01509   =>   CDf =  0.00754    CDp =  0.00755
 plradd ia,ip,cpol            1           0  1.86550245E-03

 Point added to stored polar  1
 Point written to save file  marske3_Re300k.base.pol                         
 Dump file unspecified or not available
 Calculating wake trajectory ...
 Calculating source influence matrix ...

 Solving BL system ...

 Side 1  free  transition at x/c =  0.7831   60
 Side 2  free  transition at x/c =  0.0464   27

   1   rms: 0.1009E+00   max: 0.8699E+00   C at   60  1   RLX: 0.814
       a = -3.500      CL = -0.2186
      Cm =  0.0010     CD =  0.01437   =>   CDf =  0.00759    CDp =  0.00678

 Side 1  free  transition at x/c =  0.7433   59
 Side 2  free  transition at x/c =  0.0499   26

   2   rms: 0.6502E-01   max: -.3249E+00   D at   26  2
       a = -3.500      CL = -0.2072
      Cm =  0.0012     CD =  0.01423   =>   CDf =  0.00781    CDp =  0.00642

 Side 1  free  transition at x/c =  0.7394   59
 Side 2  free  transition at x/c =  0.0504   26

   3   rms: 0.6648E-02   max: 0.5712E-01   D at   27  2
       a = -3.500      CL = -0.2107
      Cm =  0.0018     CD =  0.01427   =>   CDf =  0.00778    CDp =  0.00648

 Side 1  free  transition at x/c =  0.7398   59
 Side 2  free  transition at x/c =  0.0503   26

   4   rms: 0.1169E-03   max: 0.9659E-03   D at   27  2
       a = -3.500      CL = -0.2107
      Cm =  0.0018     CD =  0.01427   =>   CDf =  0.00779    CDp =  0.00648

 Side 1  free  transition at x/c =  0.7398   59
 Side 2  free  transition at x/c =  0.0503   26

   5   rms: 0.1275E-05   max: 0.4794E-05   D at    4  1
       a = -3.500      CL = -0.2107
      Cm =  0.0018     CD =  0.01427   =>   CDf =  0.00779    CDp =  0.00648
 plradd ia,ip,cpol            2           0  1.86550245E-03

 Point added to stored polar  1
 Point written to save file  marske3_Re300k.base.pol                         
 Dump file unspecified or not available
 Calculating wake trajectory ...
 Calculating source influence matrix ...

 Solving BL system ...

 Side 1  free  transition at x/c =  0.7398   59
 Side 2  free  transition at x/c =  0.0503   26

   1   rms: 0.9666E-01   max: 0.6399E+00   C at   59  1
       a = -3.000      CL = -0.1631
      Cm =  0.0042     CD =  0.01357   =>   CDf =  0.00779    CDp =  0.00578

 Side 1  free  transition at x/c =  0.7027   56
 Side 2  free  transition at x/c =  0.0552   27

   2   rms: 0.3493E-01   max: 0.4517E+00   D at   27  2
       a = -3.000      CL = -0.1672
      Cm =  0.0048     CD =  0.01334   =>   CDf =  0.00796    CDp =  0.00538

 Side 1  free  transition at x/c =  0.7044   57
 Side 2  free  transition at x/c =  0.0544   27

   3   rms: 0.5041E-02   max: 0.4542E-01   D at   59  1
       a = -3.000      CL = -0.1669
      Cm =  0.0048     CD =  0.01328   =>   CDf =  0.00794    CDp =  0.00534

 Side 1  free  transition at x/c =  0.7041   57
 Side 2  free  transition at x/c =  0.0544   27

   4   rms: 0.2179E-03   max: -.2995E-02   D at   59  1
       a = -3.000      CL = -0.1669
      Cm =  0.0048     CD =  0.01328   =>   CDf =  0.00792    CDp =  0.00536

 Side 1  free  transition at x/c =  0.7040   57
 Side 2  free  transition at x/c =  0.0544   27

   5   rms: 0.1900E-05   max: 0.1793E-04   D at    4  2
       a = -3.000      CL = -0.1669
      Cm =  0.0048     CD =  0.01328   =>   CDf =  0.00792    CDp =  0.00536
 plradd ia,ip,cpol            3           0  3.33032524E-03

 Point added to stored polar  1
 Point written to save file  marske3_Re300k.base.pol                         
 Dump file unspecified or not available
 Calculating wake trajectory ...
 Calculating source influence matrix ...

 Solving BL system ...

 Side 1  free  transition at x/c =  0.7040   57
 Side 2  free  transition at x/c =  0.0544   27

   1   rms: 0.9899E-01   max: -.5363E+00   T at   27  2   RLX: 0.932
       a = -2.500      CL = -0.1258
      Cm =  0.0074     CD =  0.01268   =>   CDf =  0.00796    CDp =  0.00472

 Side 1  free  transition at x/c =  0.6709   56
 Side 2  free  transition at x/c =  0.0586   26

   2   rms: 0.5132E-01   max: -.3869E+00   D at   26  2
       a = -2.500      CL = -0.1213
      Cm =  0.0074     CD =  0.01267   =>   CDf =  0.00803    CDp =  0.00464

 Side 1  free  transition at x/c =  0.6680   55
 Side 2  free  transition at x/c =  0.0593   26

   3   rms: 0.3473E-02   max: 0.3580E-01   D at   26  2
       a = -2.500      CL = -0.1218
      Cm =  0.0075     CD =  0.01267   =>   CDf =  0.00804    CDp =  0.00463

 Side 1  free  transition at x/c =  0.6677   55
 Side 2  free  transition at x/c =  0.0592   26

   4   rms: 0.2579E-04   max: 0.2703E-03   D at   26  2
       a = -2.500      CL = -0.1218
      Cm =  0.0075     CD =  0.01267   =>   CDf =  0.00804    CDp =  0.00463
 plradd ia,ip,cpol            4           0  3.33032524E-03

 Point added to stored polar  1
 Point written to save file  marske3_Re300k.base.pol                         
 Dump file unspecified or not available
 Calculating wake trajectory ...
 Calculating source influence matrix ...

 Solving BL system ...

 Side 1  free  transition at x/c =  0.6677   55
 Side 2  free  transition at x/c =  0.0592   26

   1   rms: 0.8937E-01   max: -.4057E+00   T at   26  2
       a = -2.000      CL = -0.0745
      Cm =  0.0098     CD =  0.01204   =>   CDf =  0.00806    CDp =  0.00398

 Side 1  free  transition at x/c =  0.6173   53
 Side 2  free  transition at x/c =  0.0669   26

   2   rms: 0.1822E-01   max: -.2708E+00   D at   54  1
       a = -2.000      CL = -0.0770
      Cm =  0.0103     CD =  0.01214   =>   CDf =  0.00825    CDp =  0.00389

 Side 1  free  transition at x/c =  0.6281   54
 Side 2  free  transition at x/c =  0.0674   26

   3   rms: 0.9210E-02   max: 0.1443E+00   C at   54  1
       a = -2.000      CL = -0.0765
      Cm =  0.0102     CD =  0.01209   =>   CDf =  0.00812    CDp =  0.00398

 Side 1  free  transition at x/c =  0.6240   54
 Side 2  free  transition at x/c =  0.0674   26

   4   rms: 0.5345E-03   max: -.8503E-02   D at   57  1
       a = -2.000      CL = -0.0765
      Cm =  0.0102     CD =  0.01210   =>   CDf =  0.00815    CDp =  0.00395

 Side 1  free  transition at x/c =  0.6237   54
 Side 2  free  transition at x/c =  0.0674   26

   5   rms: 0.2537E-05   max: -.3371E-04   D at   57  1
       a = -2.000      CL = -0.0765
      Cm =  0.0102     CD =  0.01210   =>   CDf =  0.00815    CDp =  0.00394
 plradd ia,ip,cpol            5           0  5.09146228E-03

 Point added to stored polar  1
 Point written to save file  marske3_Re300k.base.pol                         
 Dump file unspecified or not available
 Calculating wake trajectory ...
 Calculating source influence matrix ...

 Solving BL system ...

 Side 1  free  transition at x/c =  0.6237   54
 Side 2  free  transition at x/c =  0.0674   26

   1   rms: 0.9964E-01   max: 0.5784E+00   C at   54  1
       a = -1.500      CL = -0.0304
      Cm =  0.0128     CD =  0.01172   =>   CDf =  0.00815    CDp =  0.00356

 Side 1  free  transition at x/c =  0.5661   50
 Side 2  free  transition at x/c =  0.0827   27

   2   rms: 0.4323E-01   max: -.4603E+00   D at   27  2
       a = -1.500      CL = -0.0312
      Cm =  0.0130     CD =  0.01167   =>   CDf =  0.00839    CDp =  0.00328

 Side 1  free  transition at x/c =  0.5677   51
 Side 2  free  transition at x/c =  0.2385   37

   3   rms: 0.3177E-01   max: 0.5601E+00   C at   37  2
       a = -1.500      CL = -0.0391
      Cm =  0.0141     CD =  0.01103   =>   CDf =  0.00770    CDp =  0.00334

 Side 1  free  transition at x/c =  0.5692   51
 Side 2  free  transition at x/c =  0.1578   32

   4   rms: 0.2422E-01   max: -.5220E+00   C at   32  2   RLX: 0.958
       a = -1.500      CL = -0.0360
      Cm =  0.0137     CD =  0.01128   =>   CDf =  0.00797    CDp =  0.00330

 Side 1  free  transition at x/c =  0.5682   51
 Side 2  free  transition at x/c =  0.1788   33

   5   rms: 0.1392E-01   max: 0.2921E+00   C at   33  2
       a = -1.500      CL = -0.0361
      Cm =  0.0137     CD =  0.01126   =>   CDf =  0.00789    CDp =  0.00337

 Side 1  free  transition at x/c =  0.5682   51
 Side 2  free  transition at x/c =  0.1736   33

   6   rms: 0.6540E-03   max: 0.1382E-01   C at   33  2
       a = -1.500      CL = -0.0361
      Cm =  0.0137     CD =  0.01126   =>   CDf =  0.00791    CDp =  0.00335

 Side 1  free  transition at x/c =  0.5682   51
 Side 2  free  transition at x/c =  0.1733   33

   7   rms: 0.3337E-05   max: -.2613E-04   D at    4  2
       a = -1.500      CL = -0.0361
      Cm =  0.0137     CD =  0.01126   =>   CDf =  0.00791    CDp =  0.00334
 plradd ia,ip,cpol            6           0  7.17036380E-03

 Point added to stored polar  1
 Point written to save file  marske3_Re300k.base.pol                         
 Dump file unspecified or not available
 Calculating wake trajectory ...
 Calculating source influence matrix ...

 Solving BL system ...

 Side 1  free  transition at x/c =  0.5682   51
 Side 2  free  transition at x/c =  0.1733   33

   1   rms: 0.1560E+01   max: -.3381E+02   C at   33  2   RLX: 0.015
       a = -1.000      CL = -0.0361
      Cm =  0.0138     CD =  0.01120   =>   CDf =  0.00791    CDp =  0.00329

 Side 1  free  transition at x/c =  0.5676   51
 Side 2  free  transition at x/c =  0.1955   34

   2   rms: 0.2870E+01   max: -.5801E+02   C at   34  2   RLX: 0.009
       a = -1.000      CL = -0.0366
      Cm =  0.0139     CD =  0.01110   =>   CDf =  0.00782    CDp =  0.00328

 Side 1  free  transition at x/c =  0.5673   50
 Side 2  free  transition at x/c =  0.2093   35

   3   rms: 0.2411E+01   max: -.5014E+02   C at   35  2   RLX: 0.010
       a = -1.000      CL = -0.0368
      Cm =  0.0140     CD =  0.01104   =>   CDf =  0.00777    CDp =  0.00327

 Side 1  free  transition at x/c =  0.5669   50
 Side 2  free  transition at x/c =  0.2116   35

   4   rms: 0.1191E+01   max: -.2448E+02   C at   35  2   RLX: 0.020
       a = -1.000      CL = -0.0361
      Cm =  0.0142     CD =  0.01103   =>   CDf =  0.00777    CDp =  0.00326

 Side 1  free  transition at x/c =  0.5658   50
 Side 2  free  transition at x/c =  0.2399   37

   5   rms: 0.7192E+00   max: -.1513E+02   C at   37  2   RLX: 0.033
       a = -1.000      CL = -0.0362
      Cm =  0.0144     CD =  0.01090   =>   CDf =  0.00768    CDp =  0.00322

 Side 1  free  transition at x/c =  0.5639   50
 Side 2  free  transition at x/c =  0.2643   39

   6   rms: 0.7278E+00   max: -.1511E+02   C at   39  2   RLX: 0.033
       a = -1.000      CL = -0.0364
      Cm =  0.0147     CD =  0.01076   =>   CDf =  0.00759    CDp =  0.00316

 Side 1  free  transition at x/c =  0.5623   50
 Side 2  free  transition at x/c =  0.2797   39

   7   rms: 0.8825E+00   max: -.1794E+02   C at   39  2   RLX: 0.028
       a = -1.000      CL = -0.0358
      Cm =  0.0149     CD =  0.01071   =>   CDf =  0.00754    CDp =  0.00317

 Side 1  free  transition at x/c =  0.5609   50
 Side 2  free  transition at x/c =  0.2989   41

   8   rms: 0.1035E+01   max: -.2136E+02   C at   41  2   RLX: 0.023
       a = -1.000      CL = -0.0362
      Cm =  0.0151     CD =  0.01057   =>   CDf =  0.00745    CDp =  0.00312

 Side 1  free  transition at x/c =  0.5599   50
 Side 2  free  transition at x/c =  0.3131   41

   9   rms: 0.1495E+01   max: -.2869E+02   C at   41  2   RLX: 0.017
       a = -1.000      CL = -0.0362
      Cm =  0.0153     CD =  0.01052   =>   CDf =  0.00740    CDp =  0.00312

 Side 1  free  transition at x/c =  0.5593   50
 Side 2  free  transition at x/c =  0.3634   44

  10   rms: 0.2034E+01   max: -.3701E+02   C at   44  2   RLX: 0.014
       a = -1.000      CL = -0.0376
      Cm =  0.0156     CD =  0.01027   =>   CDf =  0.00719    CDp =  0.00308

 Side 1  free  transition at x/c =  0.5589   50
 Side 2  free  transition at x/c =  0.3796   45

  11   rms: 0.1980E+01   max: -.3609E+02   C at   45  2   RLX: 0.014
       a = -1.000      CL = -0.0382
      Cm =  0.0158     CD =  0.01020   =>   CDf =  0.00714    CDp =  0.00307

 Side 1  free  transition at x/c =  0.5585   50
 Side 2  free  transition at x/c =  0.3975   46

  12   rms: 0.1883E+01   max: -.3414E+02   C at   46  2   RLX: 0.015
       a = -1.000      CL = -0.0388
      Cm =  0.0160     CD =  0.01012   =>   CDf =  0.00707    CDp =  0.00305

 Side 1  free  transition at x/c =  0.5581   50
 Side 2  free  transition at x/c =  0.4159   48

  13   rms: 0.1285E+01   max: -.2527E+02   C at   48  2   RLX: 0.020
       a = -1.000      CL = -0.0397
      Cm =  0.0163     CD =  0.01002   =>   CDf =  0.00700    CDp =  0.00301

 Side 1  free  transition at x/c =  0.5576   50
 Side 2  free  transition at x/c =  0.4381   49

  14   rms: 0.1257E+01   max: -.2438E+02   C at   49  2   RLX: 0.021
       a = -1.000      CL = -0.0404
      Cm =  0.0166     CD =  0.00992   =>   CDf =  0.00692    CDp =  0.00299

 Side 1  free  transition at x/c =  0.5572   50
 Side 2  free  transition at x/c =  0.4495   49

  15   rms: 0.1189E+01   max: -.2209E+02   C at   49  2   RLX: 0.023
       a = -1.000      CL = -0.0407
      Cm =  0.0168     CD =  0.00988   =>   CDf =  0.00688    CDp =  0.00299

 Side 1  free  transition at x/c =  0.5565   50
 Side 2  free  transition at x/c =  0.4662   50

  16   rms: 0.8241E+00   max: -.1547E+02   C at   50  2   RLX: 0.032
       a = -1.000      CL = -0.0410
      Cm =  0.0172     CD =  0.00980   =>   CDf =  0.00683    CDp =  0.00297

 Side 1  free  transition at x/c =  0.5555   50
 Side 2  free  transition at x/c =  0.4826   51

  17   rms: 0.6740E+00   max: -.1257E+02   C at   51  2   RLX: 0.040
       a = -1.000      CL = -0.0413
      Cm =  0.0175     CD =  0.00971   =>   CDf =  0.00674    CDp =  0.00297

 Side 1  free  transition at x/c =  0.5542   51
 Side 2  free  transition at x/c =  0.5096   52

  18   rms: 0.6486E+00   max: -.1198E+02   C at   52  2   RLX: 0.042
       a = -1.000      CL = -0.0423
      Cm =  0.0180     CD =  0.00955   =>   CDf =  0.00666    CDp =  0.00289

 Side 1  free  transition at x/c =  0.5530   51
 Side 2  free  transition at x/c =  0.5314   53

  19   rms: 0.7193E+00   max: -.1317E+02   C at   53  2   RLX: 0.038
       a = -1.000      CL = -0.0431
      Cm =  0.0185     CD =  0.00944   =>   CDf =  0.00657    CDp =  0.00287

 Side 1  free  transition at x/c =  0.5521   51
 Side 2  free  transition at x/c =  0.5571   55

  20   rms: 0.6850E+00   max: -.1264E+02   C at   55  2   RLX: 0.040
       a = -1.000      CL = -0.0443
      Cm =  0.0190     CD =  0.00929   =>   CDf =  0.00645    CDp =  0.00284

 Side 1  free  transition at x/c =  0.5513   51
 Side 2  free  transition at x/c =  0.5749   56

  21   rms: 0.7309E+00   max: -.1324E+02   C at   56  2   RLX: 0.038
       a = -1.000      CL = -0.0453
      Cm =  0.0195     CD =  0.00921   =>   CDf =  0.00637    CDp =  0.00283

 Side 1  free  transition at x/c =  0.5507   51
 Side 2  free  transition at x/c =  0.5977   57

  22   rms: 0.8331E+00   max: -.1447E+02   C at   57  2   RLX: 0.035
       a = -1.000      CL = -0.0464
      Cm =  0.0200     CD =  0.00911   =>   CDf =  0.00627    CDp =  0.00284

 Side 1  free  transition at x/c =  0.5501   50
 Side 2  free  transition at x/c =  0.6193   58

  23   rms: 0.9234E+00   max: -.1560E+02   C at   58  2   RLX: 0.032
       a = -1.000      CL = -0.0474
      Cm =  0.0204     CD =  0.00903   =>   CDf =  0.00617    CDp =  0.00285

 Side 1  free  transition at x/c =  0.5496   50
 Side 2  free  transition at x/c =  0.6420   60

  24   rms: 0.7866E+00   max: -.1401E+02   C at   60  2   RLX: 0.036
       a = -1.000      CL = -0.0486
      Cm =  0.0210     CD =  0.00894   =>   CDf =  0.00607    CDp =  0.00287

 Side 1  free  transition at x/c =  0.5490   50
 Side 2  free  transition at x/c =  0.6680   61

  25   rms: 0.7804E+00   max: -.1355E+02   C at   61  2   RLX: 0.037
       a = -1.000      CL = -0.0494
      Cm =  0.0214     CD =  0.00887   =>   CDf =  0.00597    CDp =  0.00291

 Side 1  free  transition at x/c =  0.5483   50
 Side 2  free  transition at x/c =  0.6876   62

  26   rms: 0.4510E+00   max: -.7914E+01   C at   62  2   RLX: 0.063
       a = -1.000      CL = -0.0496
      Cm =  0.0218     CD =  0.00882   =>   CDf =  0.00589    CDp =  0.00293

 Side 1  free  transition at x/c =  0.5467   50
 Side 2  free  transition at x/c =  0.7155   64

  27   rms: 0.1664E+00   max: -.2759E+01   C at   64  2   RLX: 0.181
       a = -1.000      CL = -0.0491
      Cm =  0.0230     CD =  0.00878   =>   CDf =  0.00578    CDp =  0.00300

 Side 1  free  transition at x/c =  0.5415   50
 Side 2  free  transition at x/c =  0.7809   68

  28   rms: 0.8689E-01   max: -.7640E+00   C at   68  2   RLX: 0.654
       a = -1.000      CL = -0.0441
      Cm =  0.0263     CD =  0.00883   =>   CDf =  0.00555    CDp =  0.00328

 Side 1  free  transition at x/c =  0.5257   49
 Side 2  free  transition at x/c =  0.8367   71

  29   rms: 0.2687E-01   max: 0.2322E+00   D at   70  2
       a = -1.000      CL = -0.0357
      Cm =  0.0259     CD =  0.00887   =>   CDf =  0.00545    CDp =  0.00342

 Side 1  free  transition at x/c =  0.5160   48
 Side 2  free  transition at x/c =  0.8372   71

  30   rms: 0.6085E-02   max: 0.6002E-01   C at   71  2
       a = -1.000      CL = -0.0350
      Cm =  0.0257     CD =  0.00891   =>   CDf =  0.00555    CDp =  0.00337

 Side 1  free  transition at x/c =  0.5157   48
 Side 2  free  transition at x/c =  0.8332   71

  31   rms: 0.5241E-02   max: -.9251E-01   C at   48  1
       a = -1.000      CL = -0.0350
      Cm =  0.0257     CD =  0.00891   =>   CDf =  0.00559    CDp =  0.00333

 Side 1  free  transition at x/c =  0.5159   48
 Side 2  free  transition at x/c =  0.8332   71

  32   rms: 0.5083E-02   max: -.9035E-01   C at   48  1
       a = -1.000      CL = -0.0350
      Cm =  0.0257     CD =  0.00891   =>   CDf =  0.00559    CDp =  0.00333

 Side 1  free  transition at x/c =  0.5159   48
 Side 2  free  transition at x/c =  0.8332   71

  33   rms: 0.5106E-02   max: -.9070E-01   C at   48  1
       a = -1.000      CL = -0.0350
      Cm =  0.0257     CD =  0.00891   =>   CDf =  0.00559    CDp =  0.00333

 Side 1  free  transition at x/c =  0.5159   48
 Side 2  free  transition at x/c =  0.8332   71

  34   rms: 0.5102E-02   max: -.9065E-01   C at   48  1
       a = -1.000      CL = -0.0350
      Cm =  0.0257     CD =  0.00891   =>   CDf =  0.00559    CDp =  0.00333

 Side 1  free  transition at x/c =  0.5159   48
 Side 2  free  transition at x/c =  0.8332   71

  35   rms: 0.5102E-02   max: -.9065E-01   C at   48  1
       a = -1.000      CL = -0.0350
      Cm =  0.0257     CD =  0.00891   =>   CDf =  0.00559    CDp =  0.00333

 Side 1  free  transition at x/c =  0.5159   48
 Side 2  free  transition at x/c =  0.8332   71

  36   rms: 0.5103E-02   max: -.9065E-01   C at   48  1
       a = -1.000      CL = -0.0350
      Cm =  0.0257     CD =  0.00891   =>   CDf =  0.00559    CDp =  0.00333

 Side 1  free  transition at x/c =  0.5159   48
 Side 2  free  transition at x/c =  0.8332   71

  37   rms: 0.5103E-02   max: -.9065E-01   C at   48  1
       a = -1.000      CL = -0.0350
      Cm =  0.0257     CD =  0.00891   =>   CDf =  0.00559    CDp =  0.00333

 Side 1  free  transition at x/c =  0.5159   48
 Side 2  free  transition at x/c =  0.8332   71

  38   rms: 0.5103E-02   max: -.9066E-01   C at   48  1
       a = -1.000      CL = -0.0350
      Cm =  0.0257     CD =  0.00891   =>   CDf =  0.00559    CDp =  0.00333

 Side 1  free  transition at x/c =  0.5159   48
 Side 2  free  transition at x/c =  0.8332   71

  39   rms: 0.5103E-02   max: -.9065E-01   C at   48  1
       a = -1.000      CL = -0.0350
      Cm =  0.0257     CD =  0.00891   =>   CDf =  0.00559    CDp =  0.00333

 Side 1  free  transition at x/c =  0.5159   48
 Side 2  free  transition at x/c =  0.8332   71

  40   rms: 0.5103E-02   max: -.9066E-01   C at   48  1
       a = -1.000      CL = -0.0350
      Cm =  0.0257     CD =  0.00891   =>   CDf =  0.00559    CDp =  0.00333

 Side 1  free  transition at x/c =  0.5159   48
 Side 2  free  transition at x/c =  0.8332   71

  41   rms: 0.5103E-02   max: -.9065E-01   C at   48  1
       a = -1.000      CL = -0.0350
      Cm =  0.0257     CD =  0.00891   =>   CDf =  0.00559    CDp =  0.00333

 Side 1  free  transition at x/c =  0.5159   48
 Side 2  free  transition at x/c =  0.8332   71

  42   rms: 0.5103E-02   max: -.9065E-01   C at   48  1
       a = -1.000      CL = -0.0350
      Cm =  0.0257     CD =  0.00891   =>   CDf =  0.00559    CDp =  0.00333

 Side 1  free  transition at x/c =  0.5159   48
 Side 2  free  transition at x/c =  0.8332   71

  43   rms: 0.5103E-02   max: -.9065E-01   C at   48  1
       a = -1.000      CL = -0.0350
      Cm =  0.0257     CD =  0.00891   =>   CDf =  0.00559    CDp =  0.00333

 Side 1  free  transition at x/c =  0.5159   48
 Side 2  free  transition at x/c =  0.8332   71

  44   rms: 0.5103E-02   max: -.9066E-01   C at   48  1
       a = -1.000      CL = -0.0350
      Cm =  0.0257     CD =  0.00891   =>   CDf =  0.00559    CDp =  0.00333

 Side 1  free  transition at x/c =  0.5159   48
 Side 2  free  transition at x/c =  0.8332   71

  45   rms: 0.5102E-02   max: -.9065E-01   C at   48  1
       a = -1.000      CL = -0.0350
      Cm =  0.0257     CD =  0.00891   =>   CDf =  0.00559    CDp =  0.00333

 Side 1  free  transition at x/c =  0.5159   48
 Side 2  free  transition at x/c =  0.8332   71

  46   rms: 0.5103E-02   max: -.9065E-01   C at   48  1
       a = -1.000      CL = -0.0350
      Cm =  0.0257     CD =  0.00891   =>   CDf =  0.00559    CDp =  0.00333

 Side 1  free  transition at x/c =  0.5159   48
 Side 2  free  transition at x/c =  0.8332   71

  47   rms: 0.5103E-02   max: -.9065E-01   C at   48  1
       a = -1.000      CL = -0.0350
      Cm =  0.0257     CD =  0.00891   =>   CDf =  0.00559    CDp =  0.00333

 Side 1  free  transition at x/c =  0.5159   48
 Side 2  free  transition at x/c =  0.8332   71

  48   rms: 0.5103E-02   max: -.9066E-01   C at   48  1
       a = -1.000      CL = -0.0350
      Cm =  0.0257     CD =  0.00891   =>   CDf =  0.00559    CDp =  0.00333

 Side 1  free  transition at x/c =  0.5159   48
 Side 2  free  transition at x/c =  0.8332   71

  49   rms: 0.5103E-02   max: -.9065E-01   C at   48  1
       a = -1.000      CL = -0.0350
      Cm =  0.0257     CD =  0.00891   =>   CDf =  0.00559    CDp =  0.00333

 Side 1  free  transition at x/c =  0.5159   48
 Side 2  free  transition at x/c =  0.8332   71

  50   rms: 0.5103E-02   max: -.9066E-01   C at   48  1
       a = -1.000      CL = -0.0350
      Cm =  0.0257     CD =  0.00891   =>   CDf =  0.00559    CDp =  0.00333

 Side 1  free  transition at x/c =  0.5159   48
 Side 2  free  transition at x/c =  0.8332   71

  51   rms: 0.5103E-02   max: -.9065E-01   C at   48  1
       a = -1.000      CL = -0.0350
      Cm =  0.0257     CD =  0.00891   =>   CDf =  0.00559    CDp =  0.00333

 Side 1  free  transition at x/c =  0.5159   48
 Side 2  free  transition at x/c =  0.8332   71

  52   rms: 0.5103E-02   max: -.9065E-01   C at   48  1
       a = -1.000      CL = -0.0350
      Cm =  0.0257     CD =  0.00891   =>   CDf =  0.00559    CDp =  0.00333

 Side 1  free  transition at x/c =  0.5159   48
 Side 2  free  transition at x/c =  0.8332   71

  53   rms: 0.5103E-02   max: -.9065E-01   C at   48  1
       a = -1.000      CL = -0.0350
      Cm =  0.0257     CD =  0.00891   =>   CDf =  0.00559    CDp =  0.00333

 Side 1  free  transition at x/c =  0.5159   48
 Side 2  free  transition at x/c =  0.8332   71

  54   rms: 0.5103E-02   max: -.9066E-01   C at   48  1
       a = -1.000      CL = -0.0350
      Cm =  0.0257     CD =  0.00891   =>   CDf =  0.00559    CDp =  0.00333

 Side 1  free  transition at x/c =  0.5159   48
 Side 2  free  transition at x/c =  0.8332   71

  55   rms: 0.5103E-02   max: -.9065E-01   C at   48  1
       a = -1.000      CL = -0.0350
      Cm =  0.0257     CD =  0.00891   =>   CDf =  0.00559    CDp =  0.00333

 Side 1  free  transition at x/c =  0.5159   48
 Side 2  free  transition at x/c =  0.8332   71

  56   rms: 0.5103E-02   max: -.9065E-01   C at   48  1
       a = -1.000      CL = -0.0350
      Cm =  0.0257     CD =  0.00891   =>   CDf =  0.00559    CDp =  0.00333

 Side 1  free  transition at x/c =  0.5159   48
 Side 2  free  transition at x/c =  0.8332   71

  57   rms: 0.5103E-02   max: -.9065E-01   C at   48  1
       a = -1.000      CL = -0.0350
      Cm =  0.0257     CD =  0.00891   =>   CDf =  0.00559    CDp =  0.00333

 Side 1  free  transition at x/c =  0.5159   48
 Side 2  free  transition at x/c =  0.8332   71

  58   rms: 0.5103E-02   max: -.9065E-01   C at   48  1
       a = -1.000      CL = -0.0350
      Cm =  0.0257     CD =  0.00891   =>   CDf =  0.00559    CDp =  0.00333

 Side 1  free  transition at x/c =  0.5159   48
 Side 2  free  transition at x/c =  0.8332   71

  59   rms: 0.5103E-02   max: -.9065E-01   C at   48  1
       a = -1.000      CL = -0.0350
      Cm =  0.0257     CD =  0.00891   =>   CDf =  0.00559    CDp =  0.00333

 Side 1  free  transition at x/c =  0.5159   48
 Side 2  free  transition at x/c =  0.8332   71

  60   rms: 0.5103E-02   max: -.9065E-01   C at   48  1
       a = -1.000      CL = -0.0350
      Cm =  0.0257     CD =  0.00891   =>   CDf =  0.00559    CDp =  0.00333

 Side 1  free  transition at x/c =  0.5159   48
 Side 2  free  transition at x/c =  0.8332   71

  61   rms: 0.5103E-02   max: -.9066E-01   C at   48  1
       a = -1.000      CL = -0.0350
      Cm =  0.0257     CD =  0.00891   =>   CDf =  0.00559    CDp =  0.00333

 Side 1  free  transition at x/c =  0.5159   48
 Side 2  free  transition at x/c =  0.8332   71

  62   rms: 0.5103E-02   max: -.9065E-01   C at   48  1
       a = -1.000      CL = -0.0350
      Cm =  0.0257     CD =  0.00891   =>   CDf =  0.00559    CDp =  0.00333

 Side 1  free  transition at x/c =  0.5159   48
 Side 2  free  transition at x/c =  0.8332   71

  63   rms: 0.5103E-02   max: -.9065E-01   C at   48  1
       a = -1.000      CL = -0.0350
      Cm =  0.0257     CD =  0.00891   =>   CDf =  0.00559    CDp =  0.00333

 Side 1  free  transition at x/c =  0.5159   48
 Side 2  free  transition at x/c =  0.8332   71

  64   rms: 0.5103E-02   max: -.9065E-01   C at   48  1
       a = -1.000      CL = -0.0350
      Cm =  0.0257     CD =  0.00891   =>   CDf =  0.00559    CDp =  0.00333

 Side 1  free  transition at x/c =  0.5159   48
 Side 2  free  transition at x/c =  0.8332   71

  65   rms: 0.5103E-02   max: -.9065E-01   C at   48  1
       a = -1.000      CL = -0.0350
      Cm =  0.0257     CD =  0.00891   =>   CDf =  0.00559    CDp =  0.00333

 Side 1  free  transition at x/c =  0.5159   48
 Side 2  free  transition at x/c =  0.8332   71

  66   rms: 0.5103E-02   max: -.9065E-01   C at   48  1
       a = -1.000      CL = -0.0350
      Cm =  0.0257     CD =  0.00891   =>   CDf =  0.00559    CDp =  0.00333

 Side 1  free  transition at x/c =  0.5159   48
 Side 2  free  transition at x/c =  0.8332   71

  67   rms: 0.5103E-02   max: -.9065E-01   C at   48  1
       a = -1.000      CL = -0.0350
      Cm =  0.0257     CD =  0.00891   =>   CDf =  0.00559    CDp =  0.00333

 Side 1  free  transition at x/c =  0.5159   48
 Side 2  free  transition at x/c =  0.8332   71

  68   rms: 0.5103E-02   max: -.9065E-01   C at   48  1
       a = -1.000      CL = -0.0350
      Cm =  0.0257     CD =  0.00891   =>   CDf =  0.00559    CDp =  0.00333

 Side 1  free  transition at x/c =  0.5159   48
 Side 2  free  transition at x/c =  0.8332   71

  69   rms: 0.5103E-02   max: -.9065E-01   C at   48  1
       a = -1.000      CL = -0.0350
      Cm =  0.0257     CD =  0.00891   =>   CDf =  0.00559    CDp =  0.00333

 Side 1  free  transition at x/c =  0.5159   48
 Side 2  free  transition at x/c =  0.8332   71

  70   rms: 0.5103E-02   max: -.9065E-01   C at   48  1
       a = -1.000      CL = -0.0350
      Cm =  0.0257     CD =  0.00891   =>   CDf =  0.00559    CDp =  0.00333

 Side 1  free  transition at x/c =  0.5159   48
 Side 2  free  transition at x/c =  0.8332   71

  71   rms: 0.5103E-02   max: -.9065E-01   C at   48  1
       a = -1.000      CL = -0.0350
      Cm =  0.0257     CD =  0.00891   =>   CDf =  0.00559    CDp =  0.00333

 Side 1  free  transition at x/c =  0.5159   48
 Side 2  free  transition at x/c =  0.8332   71

  72   rms: 0.5103E-02   max: -.9065E-01   C at   48  1
       a = -1.000      CL = -0.0350
      Cm =  0.0257     CD =  0.00891   =>   CDf =  0.00559    CDp =  0.00333

 Side 1  free  transition at x/c =  0.5159   48
 Side 2  free  transition at x/c =  0.8332   71

  73   rms: 0.5103E-02   max: -.9065E-01   C at   48  1
       a = -1.000      CL = -0.0350
      Cm =  0.0257     CD =  0.00891   =>   CDf =  0.00559    CDp =  0.00333

 Side 1  free  transition at x/c =  0.5159   48
 Side 2  free  transition at x/c =  0.8332   71

  74   rms: 0.5103E-02   max: -.9065E-01   C at   48  1
       a = -1.000      CL = -0.0350
      Cm =  0.0257     CD =  0.00891   =>   CDf =  0.00559    CDp =  0.00333

 Side 1  free  transition at x/c =  0.5159   48
 Side 2  free  transition at x/c =  0.8332   71

  75   rms: 0.5103E-02   max: -.9065E-01   C at   48  1
       a = -1.000      CL = -0.0350
      Cm =  0.0257     CD =  0.00891   =>   CDf =  0.00559    CDp =  0.00333

 Side 1  free  transition at x/c =  0.5159   48
 Side 2  free  transition at x/c =  0.8332   71

  76   rms: 0.5103E-02   max: -.9065E-01   C at   48  1
       a = -1.000      CL = -0.0350
      Cm =  0.0257     CD =  0.00891   =>   CDf =  0.00559    CDp =  0.00333

 Side 1  free  transition at x/c =  0.5159   48
 Side 2  free  transition at x/c =  0.8332   71

  77   rms: 0.5103E-02   max: -.9065E-01   C at   48  1
       a = -1.000      CL = -0.0350
      Cm =  0.0257     CD =  0.00891   =>   CDf =  0.00559    CDp =  0.00333

 Side 1  free  transition at x/c =  0.5159   48
 Side 2  free  transition at x/c =  0.8332   71

  78   rms: 0.5103E-02   max: -.9066E-01   C at   48  1
       a = -1.000      CL = -0.0350
      Cm =  0.0257     CD =  0.00891   =>   CDf =  0.00559    CDp =  0.00333

 Side 1  free  transition at x/c =  0.5159   48
 Side 2  free  transition at x/c =  0.8332   71

  79   rms: 0.5102E-02   max: -.9065E-01   C at   48  1
       a = -1.000      CL = -0.0350
      Cm =  0.0257     CD =  0.00891   =>   CDf =  0.00559    CDp =  0.00333

 Side 1  free  transition at x/c =  0.5159   48
 Side 2  free  transition at x/c =  0.8332   71

  80   rms: 0.5103E-02   max: -.9066E-01   C at   48  1
       a = -1.000      CL = -0.0350
      Cm =  0.0257     CD =  0.00891   =>   CDf =  0.00559    CDp =  0.00333

 Side 1  free  transition at x/c =  0.5159   48
 Side 2  free  transition at x/c =  0.8332   71

  81   rms: 0.5103E-02   max: -.9065E-01   C at   48  1
       a = -1.000      CL = -0.0350
      Cm =  0.0257     CD =  0.00891   =>   CDf =  0.00559    CDp =  0.00333

 Side 1  free  transition at x/c =  0.5159   48
 Side 2  free  transition at x/c =  0.8332   71

  82   rms: 0.5102E-02   max: -.9065E-01   C at   48  1
       a = -1.000      CL = -0.0350
      Cm =  0.0257     CD =  0.00891   =>   CDf =  0.00559    CDp =  0.00333

 Side 1  free  transition at x/c =  0.5159   48
 Side 2  free  transition at x/c =  0.8332   71

  83   rms: 0.5103E-02   max: -.9065E-01   C at   48  1
       a = -1.000      CL = -0.0350
      Cm =  0.0257     CD =  0.00891   =>   CDf =  0.00559    CDp =  0.00333

 Side 1  free  transition at x/c =  0.5159   48
 Side 2  free  transition at x/c =  0.8332   71

  84   rms: 0.5103E-02   max: -.9066E-01   C at   48  1
       a = -1.000      CL = -0.0350
      Cm =  0.0257     CD =  0.00891   =>   CDf =  0.00559    CDp =  0.00333

 Side 1  free  transition at x/c =  0.5159   48
 Side 2  free  transition at x/c =  0.8332   71

  85   rms: 0.5103E-02   max: -.9065E-01   C at   48  1
       a = -1.000      CL = -0.0350
      Cm =  0.0257     CD =  0.00891   =>   CDf =  0.00559    CDp =  0.00333

 Side 1  free  transition at x/c =  0.5159   48
 Side 2  free  transition at x/c =  0.8332   71

  86   rms: 0.5103E-02   max: -.9065E-01   C at   48  1
       a = -1.000      CL = -0.0350
      Cm =  0.0257     CD =  0.00891   =>   CDf =  0.00559    CDp =  0.00333

 Side 1  free  transition at x/c =  0.5159   48
 Side 2  free  transition at x/c =  0.8332   71

  87   rms: 0.5103E-02   max: -.9065E-01   C at   48  1
       a = -1.000      CL = -0.0350
      Cm =  0.0257     CD =  0.00891   =>   CDf =  0.00559    CDp =  0.00333

 Side 1  free  transition at x/c =  0.5159   48
 Side 2  free  transition at x/c =  0.8332   71

  88   rms: 0.5103E-02   max: -.9065E-01   C at   48  1
       a = -1.000      CL = -0.0350
      Cm =  0.0257     CD =  0.00891   =>   CDf =  0.00559    CDp =  0.00333

 Side 1  free  transition at x/c =  0.5159   48
 Side 2  free  transition at x/c =  0.8332   71

  89   rms: 0.5103E-02   max: -.9065E-01   C at   48  1
       a = -1.000      CL = -0.0350
      Cm =  0.0257     CD =  0.00891   =>   CDf =  0.00559    CDp =  0.00333

 Side 1  free  transition at x/c =  0.5159   48
 Side 2  free  transition at x/c =  0.8332   71

  90   rms: 0.5103E-02   max: -.9065E-01   C at   48  1
       a = -1.000      CL = -0.0350
      Cm =  0.0257     CD =  0.00891   =>   CDf =  0.00559    CDp =  0.00333

 Side 1  free  transition at x/c =  0.5159   48
 Side 2  free  transition at x/c =  0.8332   71

  91   rms: 0.5102E-02   max: -.9065E-01   C at   48  1
       a = -1.000      CL = -0.0350
      Cm =  0.0257     CD =  0.00891   =>   CDf =  0.00559    CDp =  0.00333

 Side 1  free  transition at x/c =  0.5159   48
 Side 2  free  transition at x/c =  0.8332   71

  92   rms: 0.5103E-02   max: -.9065E-01   C at   48  1
       a = -1.000      CL = -0.0350
      Cm =  0.0257     CD =  0.00891   =>   CDf =  0.00559    CDp =  0.00333

 Side 1  free  transition at x/c =  0.5159   48
 Side 2  free  transition at x/c =  0.8332   71

  93   rms: 0.5103E-02   max: -.9065E-01   C at   48  1
       a = -1.000      CL = -0.0350
      Cm =  0.0257     CD =  0.00891   =>   CDf =  0.00559    CDp =  0.00333

 Side 1  free  transition at x/c =  0.5159   48
 Side 2  free  transition at x/c =  0.8332   71

  94   rms: 0.5103E-02   max: -.9065E-01   C at   48  1
       a = -1.000      CL = -0.0350
      Cm =  0.0257     CD =  0.00891   =>   CDf =  0.00559    CDp =  0.00333

 Side 1  free  transition at x/c =  0.5159   48
 Side 2  free  transition at x/c =  0.8332   71

  95   rms: 0.5103E-02   max: -.9065E-01   C at   48  1
       a = -1.000      CL = -0.0350
      Cm =  0.0257     CD =  0.00891   =>   CDf =  0.00559    CDp =  0.00333

 Side 1  free  transition at x/c =  0.5159   48
 Side 2  free  transition at x/c =  0.8332   71

  96   rms: 0.5103E-02   max: -.9065E-01   C at   48  1
       a = -1.000      CL = -0.0350
      Cm =  0.0257     CD =  0.00891   =>   CDf =  0.00559    CDp =  0.00333

 Side 1  free  transition at x/c =  0.5159   48
 Side 2  free  transition at x/c =  0.8332   71

  97   rms: 0.5103E-02   max: -.9065E-01   C at   48  1
       a = -1.000      CL = -0.0350
      Cm =  0.0257     CD =  0.00891   =>   CDf =  0.00559    CDp =  0.00333

 Side 1  free  transition at x/c =  0.5159   48
 Side 2  free  transition at x/c =  0.8332   71

  98   rms: 0.5103E-02   max: -.9065E-01   C at   48  1
       a = -1.000      CL = -0.0350
      Cm =  0.0257     CD =  0.00891   =>   CDf =  0.00559    CDp =  0.00333

 Side 1  free  transition at x/c =  0.5159   48
 Side 2  free  transition at x/c =  0.8332   71

  99   rms: 0.5103E-02   max: -.9065E-01   C at   48  1
       a = -1.000      CL = -0.0350
      Cm =  0.0257     CD =  0.00891   =>   CDf =  0.00559    CDp =  0.00333

 Side 1  free  transition at x/c =  0.5159   48
 Side 2  free  transition at x/c =  0.8332   71

 100   rms: 0.5103E-02   max: -.9065E-01   C at   48  1
       a = -1.000      CL = -0.0350
      Cm =  0.0257     CD =  0.00891   =>   CDf =  0.00559    CDp =  0.00333

 Side 1  free  transition at x/c =  0.5159   48
 Side 2  free  transition at x/c =  0.8332   71

 101   rms: 0.5103E-02   max: -.9065E-01   C at   48  1
       a = -1.000      CL = -0.0350
      Cm =  0.0257     CD =  0.00891   =>   CDf =  0.00559    CDp =  0.00333

 Side 1  free  transition at x/c =  0.5159   48
 Side 2  free  transition at x/c =  0.8332   71

 102   rms: 0.5103E-02   max: -.9065E-01   C at   48  1
       a = -1.000      CL = -0.0350
      Cm =  0.0257     CD =  0.00891   =>   CDf =  0.00559    CDp =  0.00333

 Side 1  free  transition at x/c =  0.5159   48
 Side 2  free  transition at x/c =  0.8332   71

 103   rms: 0.5103E-02   max: -.9066E-01   C at   48  1
       a = -1.000      CL = -0.0350
      Cm =  0.0257     CD =  0.00891   =>   CDf =  0.00559    CDp =  0.00333

 Side 1  free  transition at x/c =  0.5159   48
 Side 2  free  transition at x/c =  0.8332   71

 104   rms: 0.5103E-02   max: -.9065E-01   C at   48  1
       a = -1.000      CL = -0.0350
      Cm =  0.0257     CD =  0.00891   =>   CDf =  0.00559    CDp =  0.00333

 Side 1  free  transition at x/c =  0.5159   48
 Side 2  free  transition at x/c =  0.8332   71

 105   rms: 0.5103E-02   max: -.9066E-01   C at   48  1
       a = -1.000      CL = -0.0350
      Cm =  0.0257     CD =  0.00891   =>   CDf =  0.00559    CDp =  0.00333

 Side 1  free  transition at x/c =  0.5159   48
 Side 2  free  transition at x/c =  0.8332   71

 106   rms: 0.5103E-02   max: -.9065E-01   C at   48  1
       a = -1.000      CL = -0.0350
      Cm =  0.0257     CD =  0.00891   =>   CDf =  0.00559    CDp =  0.00333

 Side 1  free  transition at x/c =  0.5159   48
 Side 2  free  transition at x/c =  0.8332   71

 107   rms: 0.5103E-02   max: -.9066E-01   C at   48  1
       a = -1.000      CL = -0.0350
      Cm =  0.0257     CD =  0.00891   =>   CDf =  0.00559    CDp =  0.00333

 Side 1  free  transition at x/c =  0.5159   48
 Side 2  free  transition at x/c =  0.8332   71

 108   rms: 0.5103E-02   max: -.9065E-01   C at   48  1
       a = -1.000      CL = -0.0350
      Cm =  0.0257     CD =  0.00891   =>   CDf =  0.00559    CDp =  0.00333

 Side 1  free  transition at x/c =  0.5159   48
 Side 2  free  transition at x/c =  0.8332   71

 109   rms: 0.5103E-02   max: -.9065E-01   C at   48  1
       a = -1.000      CL = -0.0350
      Cm =  0.0257     CD =  0.00891   =>   CDf =  0.00559    CDp =  0.00333

 Side 1  free  transition at x/c =  0.5159   48
 Side 2  free  transition at x/c =  0.8332   71

 110   rms: 0.5103E-02   max: -.9066E-01   C at   48  1
       a = -1.000      CL = -0.0350
      Cm =  0.0257     CD =  0.00891   =>   CDf =  0.00559    CDp =  0.00333

 Side 1  free  transition at x/c =  0.5159   48
 Side 2  free  transition at x/c =  0.8332   71

 111   rms: 0.5103E-02   max: -.9066E-01   C at   48  1
       a = -1.000      CL = -0.0350
      Cm =  0.0257     CD =  0.00891   =>   CDf =  0.00559    CDp =  0.00333

 Side 1  free  transition at x/c =  0.5159   48
 Side 2  free  transition at x/c =  0.8332   71

 112   rms: 0.5103E-02   max: -.9065E-01   C at   48  1
       a = -1.000      CL = -0.0350
      Cm =  0.0257     CD =  0.00891   =>   CDf =  0.00559    CDp =  0.00333

 Side 1  free  transition at x/c =  0.5159   48
 Side 2  free  transition at x/c =  0.8332   71

 113   rms: 0.5103E-02   max: -.9065E-01   C at   48  1
       a = -1.000      CL = -0.0350
      Cm =  0.0257     CD =  0.00891   =>   CDf =  0.00559    CDp =  0.00333

 Side 1  free  transition at x/c =  0.5159   48
 Side 2  free  transition at x/c =  0.8332   71

 114   rms: 0.5103E-02   max: -.9065E-01   C at   48  1
       a = -1.000      CL = -0.0350
      Cm =  0.0257     CD =  0.00891   =>   CDf =  0.00559    CDp =  0.00333

 Side 1  free  transition at x/c =  0.5159   48
 Side 2  free  transition at x/c =  0.8332   71

 115   rms: 0.5103E-02   max: -.9065E-01   C at   48  1
       a = -1.000      CL = -0.0350
      Cm =  0.0257     CD =  0.00891   =>   CDf =  0.00559    CDp =  0.00333

 Side 1  free  transition at x/c =  0.5159   48
 Side 2  free  transition at x/c =  0.8332   71

 116   rms: 0.5103E-02   max: -.9065E-01   C at   48  1
       a = -1.000      CL = -0.0350
      Cm =  0.0257     CD =  0.00891   =>   CDf =  0.00559    CDp =  0.00333

 Side 1  free  transition at x/c =  0.5159   48
 Side 2  free  transition at x/c =  0.8332   71

 117   rms: 0.5103E-02   max: -.9066E-01   C at   48  1
       a = -1.000      CL = -0.0350
      Cm =  0.0257     CD =  0.00891   =>   CDf =  0.00559    CDp =  0.00333

 Side 1  free  transition at x/c =  0.5159   48
 Side 2  free  transition at x/c =  0.8332   71

 118   rms: 0.5103E-02   max: -.9065E-01   C at   48  1
       a = -1.000      CL = -0.0350
      Cm =  0.0257     CD =  0.00891   =>   CDf =  0.00559    CDp =  0.00333

 Side 1  free  transition at x/c =  0.5159   48
 Side 2  free  transition at x/c =  0.8332   71

 119   rms: 0.5103E-02   max: -.9065E-01   C at   48  1
       a = -1.000      CL = -0.0350
      Cm =  0.0257     CD =  0.00891   =>   CDf =  0.00559    CDp =  0.00333

 Side 1  free  transition at x/c =  0.5159   48
 Side 2  free  transition at x/c =  0.8332   71

 120   rms: 0.5103E-02   max: -.9066E-01   C at   48  1
       a = -1.000      CL = -0.0350
      Cm =  0.0257     CD =  0.00891   =>   CDf =  0.00559    CDp =  0.00333

 Side 1  free  transition at x/c =  0.5159   48
 Side 2  free  transition at x/c =  0.8332   71

 121   rms: 0.5103E-02   max: -.9065E-01   C at   48  1
       a = -1.000      CL = -0.0350
      Cm =  0.0257     CD =  0.00891   =>   CDf =  0.00559    CDp =  0.00333

 Side 1  free  transition at x/c =  0.5159   48
 Side 2  free  transition at x/c =  0.8332   71

 122   rms: 0.5103E-02   max: -.9065E-01   C at   48  1
       a = -1.000      CL = -0.0350
      Cm =  0.0257     CD =  0.00891   =>   CDf =  0.00559    CDp =  0.00333

 Side 1  free  transition at x/c =  0.5159   48
 Side 2  free  transition at x/c =  0.8332   71

 123   rms: 0.5103E-02   max: -.9065E-01   C at   48  1
       a = -1.000      CL = -0.0350
      Cm =  0.0257     CD =  0.00891   =>   CDf =  0.00559    CDp =  0.00333

 Side 1  free  transition at x/c =  0.5159   48
 Side 2  free  transition at x/c =  0.8332   71

 124   rms: 0.5103E-02   max: -.9065E-01   C at   48  1
       a = -1.000      CL = -0.0350
      Cm =  0.0257     CD =  0.00891   =>   CDf =  0.00559    CDp =  0.00333

 Side 1  free  transition at x/c =  0.5159   48
 Side 2  free  transition at x/c =  0.8332   71

 125   rms: 0.5103E-02   max: -.9065E-01   C at   48  1
       a = -1.000      CL = -0.0350
      Cm =  0.0257     CD =  0.00891   =>   CDf =  0.00559    CDp =  0.00333

 Side 1  free  transition at x/c =  0.5159   48
 Side 2  free  transition at x/c =  0.8332   71

 126   rms: 0.5103E-02   max: -.9065E-01   C at   48  1
       a = -1.000      CL = -0.0350
      Cm =  0.0257     CD =  0.00891   =>   CDf =  0.00559    CDp =  0.00333

 Side 1  free  transition at x/c =  0.5159   48
 Side 2  free  transition at x/c =  0.8332   71

 127   rms: 0.5103E-02   max: -.9065E-01   C at   48  1
       a = -1.000      CL = -0.0350
      Cm =  0.0257     CD =  0.00891   =>   CDf =  0.00559    CDp =  0.00333

 Side 1  free  transition at x/c =  0.5159   48
 Side 2  free  transition at x/c =  0.8332   71

 128   rms: 0.5103E-02   max: -.9065E-01   C at   48  1
       a = -1.000      CL = -0.0350
      Cm =  0.0257     CD =  0.00891   =>   CDf =  0.00559    CDp =  0.00333

 Side 1  free  transition at x/c =  0.5159   48
 Side 2  free  transition at x/c =  0.8332   71

 129   rms: 0.5103E-02   max: -.9065E-01   C at   48  1
       a = -1.000      CL = -0.0350
      Cm =  0.0257     CD =  0.00891   =>   CDf =  0.00559    CDp =  0.00333

 Side 1  free  transition at x/c =  0.5159   48
 Side 2  free  transition at x/c =  0.8332   71

 130   rms: 0.5103E-02   max: -.9065E-01   C at   48  1
       a = -1.000      CL = -0.0350
      Cm =  0.0257     CD =  0.00891   =>   CDf =  0.00559    CDp =  0.00333

 Side 1  free  transition at x/c =  0.5159   48
 Side 2  free  transition at x/c =  0.8332   71

 131   rms: 0.5103E-02   max: -.9065E-01   C at   48  1
       a = -1.000      CL = -0.0350
      Cm =  0.0257     CD =  0.00891   =>   CDf =  0.00559    CDp =  0.00333

 Side 1  free  transition at x/c =  0.5159   48
 Side 2  free  transition at x/c =  0.8332   71

 132   rms: 0.5103E-02   max: -.9065E-01   C at   48  1
       a = -1.000      CL = -0.0350
      Cm =  0.0257     CD =  0.00891   =>   CDf =  0.00559    CDp =  0.00333

 Side 1  free  transition at x/c =  0.5159   48
 Side 2  free  transition at x/c =  0.8332   71

 133   rms: 0.5103E-02   max: -.9066E-01   C at   48  1
       a = -1.000      CL = -0.0350
      Cm =  0.0257     CD =  0.00891   =>   CDf =  0.00559    CDp =  0.00333

 Side 1  free  transition at x/c =  0.5159   48
 Side 2  free  transition at x/c =  0.8332   71

 134   rms: 0.5103E-02   max: -.9065E-01   C at   48  1
       a = -1.000      CL = -0.0350
      Cm =  0.0257     CD =  0.00891   =>   CDf =  0.00559    CDp =  0.00333

 Side 1  free  transition at x/c =  0.5159   48
 Side 2  free  transition at x/c =  0.8332   71

 135   rms: 0.5103E-02   max: -.9065E-01   C at   48  1
       a = -1.000      CL = -0.0350
      Cm =  0.0257     CD =  0.00891   =>   CDf =  0.00559    CDp =  0.00333

 Side 1  free  transition at x/c =  0.5159   48
 Side 2  free  transition at x/c =  0.8332   71

 136   rms: 0.5103E-02   max: -.9065E-01   C at   48  1
       a = -1.000      CL = -0.0350
      Cm =  0.0257     CD =  0.00891   =>   CDf =  0.00559    CDp =  0.00333

 Side 1  free  transition at x/c =  0.5159   48
 Side 2  free  transition at x/c =  0.8332   71

 137   rms: 0.5103E-02   max: -.9065E-01   C at   48  1
       a = -1.000      CL = -0.0350
      Cm =  0.0257     CD =  0.00891   =>   CDf =  0.00559    CDp =  0.00333

 Side 1  free  transition at x/c =  0.5159   48
 Side 2  free  transition at x/c =  0.8332   71

 138   rms: 0.5103E-02   max: -.9066E-01   C at   48  1
       a = -1.000      CL = -0.0350
      Cm =  0.0257     CD =  0.00891   =>   CDf =  0.00559    CDp =  0.00333

 Side 1  free  transition at x/c =  0.5159   48
 Side 2  free  transition at x/c =  0.8332   71

 139   rms: 0.5103E-02   max: -.9066E-01   C at   48  1
       a = -1.000      CL = -0.0350
      Cm =  0.0257     CD =  0.00891   =>   CDf =  0.00559    CDp =  0.00333

 Side 1  free  transition at x/c =  0.5159   48
 Side 2  free  transition at x/c =  0.8332   71

 140   rms: 0.5103E-02   max: -.9065E-01   C at   48  1
       a = -1.000      CL = -0.0350
      Cm =  0.0257     CD =  0.00891   =>   CDf =  0.00559    CDp =  0.00333

 Side 1  free  transition at x/c =  0.5159   48
 Side 2  free  transition at x/c =  0.8332   71

 141   rms: 0.5103E-02   max: -.9065E-01   C at   48  1
       a = -1.000      CL = -0.0350
      Cm =  0.0257     CD =  0.00891   =>   CDf =  0.00559    CDp =  0.00333

 Side 1  free  transition at x/c =  0.5159   48
 Side 2  free  transition at x/c =  0.8332   71

 142   rms: 0.5103E-02   max: -.9066E-01   C at   48  1
       a = -1.000      CL = -0.0350
      Cm =  0.0257     CD =  0.00891   =>   CDf =  0.00559    CDp =  0.00333

 Side 1  free  transition at x/c =  0.5159   48
 Side 2  free  transition at x/c =  0.8332   71

 143   rms: 0.5103E-02   max: -.9065E-01   C at   48  1
       a = -1.000      CL = -0.0350
      Cm =  0.0257     CD =  0.00891   =>   CDf =  0.00559    CDp =  0.00333

 Side 1  free  transition at x/c =  0.5159   48
 Side 2  free  transition at x/c =  0.8332   71

 144   rms: 0.5103E-02   max: -.9065E-01   C at   48  1
       a = -1.000      CL = -0.0350
      Cm =  0.0257     CD =  0.00891   =>   CDf =  0.00559    CDp =  0.00333

 Side 1  free  transition at x/c =  0.5159   48
 Side 2  free  transition at x/c =  0.8332   71

 145   rms: 0.5103E-02   max: -.9065E-01   C at   48  1
       a = -1.000      CL = -0.0350
      Cm =  0.0257     CD =  0.00891   =>   CDf =  0.00559    CDp =  0.00333

 Side 1  free  transition at x/c =  0.5159   48
 Side 2  free  transition at x/c =  0.8332   71

 146   rms: 0.5103E-02   max: -.9066E-01   C at   48  1
       a = -1.000      CL = -0.0350
      Cm =  0.0257     CD =  0.00891   =>   CDf =  0.00559    CDp =  0.00333

 Side 1  free  transition at x/c =  0.5159   48
 Side 2  free  transition at x/c =  0.8332   71

 147   rms: 0.5103E-02   max: -.9065E-01   C at   48  1
       a = -1.000      CL = -0.0350
      Cm =  0.0257     CD =  0.00891   =>   CDf =  0.00559    CDp =  0.00333

 Side 1  free  transition at x/c =  0.5159   48
 Side 2  free  transition at x/c =  0.8332   71

 148   rms: 0.5102E-02   max: -.9065E-01   C at   48  1
       a = -1.000      CL = -0.0350
      Cm =  0.0257     CD =  0.00891   =>   CDf =  0.00559    CDp =  0.00333

 Side 1  free  transition at x/c =  0.5159   48
 Side 2  free  transition at x/c =  0.8332   71

 149   rms: 0.5103E-02   max: -.9065E-01   C at   48  1
       a = -1.000      CL = -0.0350
      Cm =  0.0257     CD =  0.00891   =>   CDf =  0.00559    CDp =  0.00333

 Side 1  free  transition at x/c =  0.5159   48
 Side 2  free  transition at x/c =  0.8332   71

 150   rms: 0.5103E-02   max: -.9065E-01   C at   48  1
       a = -1.000      CL = -0.0350
      Cm =  0.0257     CD =  0.00891   =>   CDf =  0.00559    CDp =  0.00333

 Side 1  free  transition at x/c =  0.5159   48
 Side 2  free  transition at x/c =  0.8332   71

 151   rms: 0.5103E-02   max: -.9065E-01   C at   48  1
       a = -1.000      CL = -0.0350
      Cm =  0.0257     CD =  0.00891   =>   CDf =  0.00559    CDp =  0.00333

 Side 1  free  transition at x/c =  0.5159   48
 Side 2  free  transition at x/c =  0.8332   71

 152   rms: 0.5103E-02   max: -.9065E-01   C at   48  1
       a = -1.000      CL = -0.0350
      Cm =  0.0257     CD =  0.00891   =>   CDf =  0.00559    CDp =  0.00333

 Side 1  free  transition at x/c =  0.5159   48
 Side 2  free  transition at x/c =  0.8332   71

 153   rms: 0.5103E-02   max: -.9066E-01   C at   48  1
       a = -1.000      CL = -0.0350
      Cm =  0.0257     CD =  0.00891   =>   CDf =  0.00559    CDp =  0.00333

 Side 1  free  transition at x/c =  0.5159   48
 Side 2  free  transition at x/c =  0.8332   71

 154   rms: 0.5103E-02   max: -.9065E-01   C at   48  1
       a = -1.000      CL = -0.0350
      Cm =  0.0257     CD =  0.00891   =>   CDf =  0.00559    CDp =  0.00333

 Side 1  free  transition at x/c =  0.5159   48
 Side 2  free  transition at x/c =  0.8332   71

 155   rms: 0.5103E-02   max: -.9065E-01   C at   48  1
       a = -1.000      CL = -0.0350
      Cm =  0.0257     CD =  0.00891   =>   CDf =  0.00559    CDp =  0.00333
 VISCAL:  Convergence failed
 Calculating wake trajectory ...
 Calculating source influence matrix ...

 Solving BL system ...

 Side 1  free  transition at x/c =  0.5159   48
 Side 2  free  transition at x/c =  0.8332   71

   1   rms: 0.1500E+00   max: 0.8063E+00   D at   72  2   RLX: 0.737
       a = -0.500      CL = -0.0052
      Cm =  0.0299     CD =  0.00916   =>   CDf =  0.00559    CDp =  0.00357

 Side 1  free  transition at x/c =  0.4649   46
 Side 2  free  transition at x/c =  0.8869   74

   2   rms: 0.9354E-01   max: 0.7247E+00   D at   75  2
       a = -0.500      CL =  0.0428
      Cm =  0.0239     CD =  0.01002   =>   CDf =  0.00576    CDp =  0.00426

 Side 1  free  transition at x/c =  0.4425   45
 Side 2  free  transition at x/c =  0.8980   74

   3   rms: 0.3292E-01   max: -.2223E+00   D at   77  2
       a = -0.500      CL =  0.0210
      Cm =  0.0280     CD =  0.00988   =>   CDf =  0.00589    CDp =  0.00398

 Side 1  free  transition at x/c =  0.4476   46
 Side 2  free  transition at x/c =  0.8979   74

   4   rms: 0.7985E-02   max: -.1078E+00   C at   46  1
       a = -0.500      CL =  0.0197
      Cm =  0.0283     CD =  0.00982   =>   CDf =  0.00588    CDp =  0.00394

 Side 1  free  transition at x/c =  0.4493   46
 Side 2  free  transition at x/c =  0.8974   74

   5   rms: 0.5358E-03   max: 0.8454E-02   C at   46  1
       a = -0.500      CL =  0.0197
      Cm =  0.0283     CD =  0.00983   =>   CDf =  0.00583    CDp =  0.00399

 Side 1  free  transition at x/c =  0.4491   46
 Side 2  free  transition at x/c =  0.8974   74

   6   rms: 0.4312E-05   max: -.2495E-04   D at   79  2
       a = -0.500      CL =  0.0197
      Cm =  0.0283     CD =  0.00983   =>   CDf =  0.00584    CDp =  0.00399
 plradd ia,ip,cpol            7           0  0.11403388    

 Point added to stored polar  1
 Point written to save file  marske3_Re300k.base.pol                         
 Dump file unspecified or not available
 Calculating wake trajectory ...
 Calculating source influence matrix ...

 Solving BL system ...

 Side 1  free  transition at x/c =  0.4491   46
 Side 2  free  transition at x/c =  0.8974   74

   1   rms: 0.2079E+00   max: 0.1472E+01   C at   46  1   RLX: 0.638
       a =  0.000      CL =  0.0765
      Cm =  0.0259     CD =  0.01099   =>   CDf =  0.00584    CDp =  0.00516

 Side 1  free  transition at x/c =  0.4089   43
 Side 2  free  transition at x/c =  0.9086   74

   2   rms: 0.4772E+00   max: -.3680E+01   T at   74  2   RLX: 0.136
       a =  0.000      CL =  0.0449
      Cm =  0.0296     CD =  0.01236   =>   CDf =  0.00613    CDp =  0.00623

 MRCHDU: Convergence failed at  76  side 2    Res =  0.1024E+02
 MRCHDU: Convergence failed at  77  side 2    Res =  0.5090E+01
 MRCHDU: Convergence failed at  78  side 2    Res =  0.7869E+02
 MRCHDU: Convergence failed at  79  side 2    Res =  0.9807E+01
 MRCHDU: Convergence failed at  80  side 2    Res =  0.5428E+01
 MRCHDU: Convergence failed at  81  side 2    Res =  0.4619E+01
 MRCHDU: Convergence failed at  82  side 2    Res =  0.4710E+01
 Side 1  free  transition at x/c =  0.4164   44
 Side 2  free  transition at x/c =  0.9296   76

   3   rms: 0.2306E+00   max: 0.1468E+01   C at   76  2
       a =  0.000      CL =  0.1418
      Cm =  0.0167     CD =  0.00965   =>   CDf =  0.00606    CDp =  0.00359

 Side 1  free  transition at x/c =  0.3798   43
 Side 2  free  transition at x/c =  0.9181   74

   4   rms: 0.6649E-01   max: -.4347E+00   D at   81  2
       a =  0.000      CL =  0.1043
      Cm =  0.0242     CD =  0.01109   =>   CDf =  0.00640    CDp =  0.00470

 Side 1  free  transition at x/c =  0.3891   43
 Side 2  free  transition at x/c =  0.9219   74
 idif Ue xi dudx           1  0.14547122      2.13050842E-03   68.280045    
 Uenew xinew           2  1.72397066E-02  2.52485275E-04

   5   rms: 0.2762E-01   max: -.1302E+00   D at   81  2
       a =  0.000      CL =  0.0814
      Cm =  0.0288     CD =  0.01084   =>   CDf =  0.00625    CDp =  0.00459

 Side 1  free  transition at x/c =  0.3934   42
 Side 2  free  transition at x/c =  0.9248   76

   6   rms: 0.3893E-02   max: 0.3059E-01   D at   78  2
       a =  0.000      CL =  0.0832
      Cm =  0.0284     CD =  0.01085   =>   CDf =  0.00623    CDp =  0.00463

 Side 1  free  transition at x/c =  0.3931   42
 Side 2  free  transition at x/c =  0.9244   76

   7   rms: 0.4597E-03   max: -.5636E-02   D at    4  2
       a =  0.000      CL =  0.0832
      Cm =  0.0284     CD =  0.01085   =>   CDf =  0.00623    CDp =  0.00463

 Side 1  free  transition at x/c =  0.3931   42
 Side 2  free  transition at x/c =  0.9244   76

   8   rms: 0.1354E-05   max: 0.9330E-05   D at   77  2
       a =  0.000      CL =  0.0832
      Cm =  0.0284     CD =  0.01085   =>   CDf =  0.00623    CDp =  0.00463
 plradd ia,ip,cpol            8           0  0.11403388    

 Point added to stored polar  1
 Point written to save file  marske3_Re300k.base.pol                         
 Dump file unspecified or not available
 Calculating wake trajectory ...
 Calculating source influence matrix ...

 Solving BL system ...

 Side 1  free  transition at x/c =  0.3931   42
 Side 2  free  transition at x/c =  0.9244   76

   1   rms: 0.1777E+00   max: 0.7353E+00   D at   80  2
       a =  0.500      CL =  0.2111
      Cm =  0.0158     CD =  0.01230   =>   CDf =  0.00626    CDp =  0.00604

 Side 1  free  transition at x/c =  0.3429   41
 Side 2  free  transition at x/c =  0.9316   74

   2   rms: 0.4974E-01   max: -.5294E+00   D at   42  1   RLX: 0.945
       a =  0.500      CL =  0.1861
      Cm =  0.0199     CD =  0.01238   =>   CDf =  0.00683    CDp =  0.00555

 Side 1  free  transition at x/c =  0.3483   42
 Side 2  free  transition at x/c =  0.9352   74

   3   rms: 0.9718E-02   max: -.7683E-01   D at   41  1
       a =  0.500      CL =  0.1935
      Cm =  0.0185     CD =  0.01211   =>   CDf =  0.00667    CDp =  0.00545

 Side 1  free  transition at x/c =  0.3468   42
 Side 2  free  transition at x/c =  0.9340   74

   4   rms: 0.1538E-02   max: -.8771E-02   D at   79  2
       a =  0.500      CL =  0.1923
      Cm =  0.0187     CD =  0.01211   =>   CDf =  0.00667    CDp =  0.00544

 Side 1  free  transition at x/c =  0.3468   42
 Side 2  free  transition at x/c =  0.9342   74

   5   rms: 0.4099E-04   max: -.2364E-03   D at   79  2
       a =  0.500      CL =  0.1923
      Cm =  0.0187     CD =  0.01210   =>   CDf =  0.00666    CDp =  0.00544
 plradd ia,ip,cpol            9           0  0.11403388    

 Point added to stored polar  1
 Point written to save file  marske3_Re300k.base.pol                         
 Dump file unspecified or not available
 Calculating wake trajectory ...
 Calculating source influence matrix ...

 Solving BL system ...

 Side 1  free  transition at x/c =  0.3468   42
 Side 2  free  transition at x/c =  0.9342   74

   1   rms: 0.1114E+00   max: -.5247E+00   T at   74  2   RLX: 0.953
       a =  1.000      CL =  0.2572
      Cm =  0.0171     CD =  0.01294   =>   CDf =  0.00667    CDp =  0.00627

 Side 1  free  transition at x/c =  0.3257   40
 Side 2  free  transition at x/c =  0.9466   75

   2   rms: 0.3768E-01   max: 0.3140E+00   D at   41  1
       a =  1.000      CL =  0.2831
      Cm =  0.0123     CD =  0.01283   =>   CDf =  0.00692    CDp =  0.00591

 Side 1  free  transition at x/c =  0.3202   41
 Side 2  free  transition at x/c =  0.9434   74

   3   rms: 0.5268E-02   max: -.3135E-01   D at   74  2
       a =  1.000      CL =  0.2800
      Cm =  0.0129     CD =  0.01282   =>   CDf =  0.00694    CDp =  0.00588

 Side 1  free  transition at x/c =  0.3203   41
 Side 2  free  transition at x/c =  0.9442   74

   4   rms: 0.3384E-03   max: 0.4055E-02   D at    4  1
       a =  1.000      CL =  0.2799
      Cm =  0.0129     CD =  0.01281   =>   CDf =  0.00693    CDp =  0.00588

 Side 1  free  transition at x/c =  0.3203   41
 Side 2  free  transition at x/c =  0.9443   74

   5   rms: 0.1723E-05   max: -.1893E-04   D at    4  1
       a =  1.000      CL =  0.2799
      Cm =  0.0129     CD =  0.01281   =>   CDf =  0.00693    CDp =  0.00588
 plradd ia,ip,cpol           10           0  0.11403388    

 Point added to stored polar  1
 Point written to save file  marske3_Re300k.base.pol                         
 Dump file unspecified or not available
 Calculating wake trajectory ...
 Calculating source influence matrix ...

 Solving BL system ...

 Side 1  free  transition at x/c =  0.3203   41
 Side 2  free  transition at x/c =  0.9443   74

   1   rms: 0.9354E-01   max: -.2180E+00   T at   74  2
       a =  1.500      CL =  0.3486
      Cm =  0.0104     CD =  0.01312   =>   CDf =  0.00693    CDp =  0.00618

 Side 1  free  transition at x/c =  0.3020   40
 Side 2  free  transition at x/c =  0.9509   74

   2   rms: 0.5834E-01   max: -.4488E+00   T at   74  2
       a =  1.500      CL =  0.2990
      Cm =  0.0203     CD =  0.01306   =>   CDf =  0.00718    CDp =  0.00588

 Side 1  free  transition at x/c =  0.3076   40
 Side 2  free  transition at x/c =  0.9649   76

   3   rms: 0.6377E-01   max: 0.5751E+00   D at   76  2
       a =  1.500      CL =  0.3136
      Cm =  0.0175     CD =  0.01301   =>   CDf =  0.00707    CDp =  0.00594

 Side 1  free  transition at x/c =  0.3057   40
 Side 2  free  transition at x/c =  0.9591   75

   4   rms: 0.7313E-01   max: 0.5838E+00   T at   75  2
       a =  1.500      CL =  0.3758
      Cm =  0.0048     CD =  0.01323   =>   CDf =  0.00707    CDp =  0.00616

 Side 1  free  transition at x/c =  0.2986   41
 Side 2  free  transition at x/c =  0.9460   73
 idif Ue xi dudx           1  0.17004026      1.90067291E-03   89.463188    
 Uenew xinew           2  2.33773366E-02  2.61306763E-04

   5   rms: 0.5354E-01   max: -.3144E+00   T at   73  2
       a =  1.500      CL =  0.3316
      Cm =  0.0137     CD =  0.01310   =>   CDf =  0.00721    CDp =  0.00590

 Side 1  free  transition at x/c =  0.3035   40
 Side 2  free  transition at x/c =  0.9557   75

   6   rms: 0.2243E-01   max: 0.1759E+00   D at   77  2
       a =  1.500      CL =  0.3400
      Cm =  0.0121     CD =  0.01309   =>   CDf =  0.00711    CDp =  0.00597

 Side 1  free  transition at x/c =  0.3029   40
 Side 2  free  transition at x/c =  0.9526   75

   7   rms: 0.2327E-02   max: -.1946E-01   D at   75  2
       a =  1.500      CL =  0.3389
      Cm =  0.0123     CD =  0.01311   =>   CDf =  0.00711    CDp =  0.00600

 Side 1  free  transition at x/c =  0.3030   40
 Side 2  free  transition at x/c =  0.9529   75

   8   rms: 0.1867E-04   max: -.1874E-03   D at   75  2
       a =  1.500      CL =  0.3389
      Cm =  0.0123     CD =  0.01311   =>   CDf =  0.00711    CDp =  0.00600
 plradd ia,ip,cpol           11           0  0.10256477    

 Point added to stored polar  1
 Point written to save file  marske3_Re300k.base.pol                         
 Dump file unspecified or not available
 Calculating wake trajectory ...
 Calculating source influence matrix ...

 Solving BL system ...

 Side 1  free  transition at x/c =  0.3030   40
 Side 2  free  transition at x/c =  0.9529   75

   1   rms: 0.9950E-01   max: -.1793E+00   T at   75  2
       a =  2.000      CL =  0.4175
      Cm =  0.0077     CD =  0.01338   =>   CDf =  0.00711    CDp =  0.00628

 Side 1  free  transition at x/c =  0.2877   40
 Side 2  free  transition at x/c =  0.9539   74

   2   rms: 0.3054E-01   max: -.1925E+00   D at   40  1
       a =  2.000      CL =  0.4077
      Cm =  0.0095     CD =  0.01340   =>   CDf =  0.00733    CDp =  0.00607

 Side 1  free  transition at x/c =  0.2881   40
 Side 2  free  transition at x/c =  0.9571   74

   3   rms: 0.2039E-02   max: -.1605E-01   D at   74  2
       a =  2.000      CL =  0.4067
      Cm =  0.0097     CD =  0.01340   =>   CDf =  0.00727    CDp =  0.00612

 Side 1  free  transition at x/c =  0.2879   40
 Side 2  free  transition at x/c =  0.9573   74

   4   rms: 0.7377E-05   max: -.6241E-04   D at   74  2
       a =  2.000      CL =  0.4067
      Cm =  0.0097     CD =  0.01340   =>   CDf =  0.00728    CDp =  0.00612
 plradd ia,ip,cpol           12           0  0.10256477    

 Point added to stored polar  1
 Point written to save file  marske3_Re300k.base.pol                         
 Dump file unspecified or not available
 Calculating wake trajectory ...
 Calculating source influence matrix ...

 Solving BL system ...

 Side 1  free  transition at x/c =  0.2879   40
 Side 2  free  transition at x/c =  0.9573   74

   1   rms: 0.8449E-01   max: -.1952E+00   T at   74  2
       a =  2.500      CL =  0.4669
      Cm =  0.0086     CD =  0.01356   =>   CDf =  0.00726    CDp =  0.00630

 Side 1  free  transition at x/c =  0.2759   40
 Side 2  free  transition at x/c =  0.9622   73

   2   rms: 0.2031E-01   max: -.1456E+00   T at   73  2
       a =  2.500      CL =  0.4506
      Cm =  0.0118     CD =  0.01373   =>   CDf =  0.00747    CDp =  0.00626

 Side 1  free  transition at x/c =  0.2768   40
 Side 2  free  transition at x/c =  0.9659   74

   3   rms: 0.1631E-01   max: 0.1343E+00   D at   76  2
       a =  2.500      CL =  0.4575
      Cm =  0.0104     CD =  0.01367   =>   CDf =  0.00744    CDp =  0.00623

 Side 1  free  transition at x/c =  0.2764   40
 Side 2  free  transition at x/c =  0.9639   74

   4   rms: 0.1222E-02   max: -.1257E-01   D at   74  2
       a =  2.500      CL =  0.4570
      Cm =  0.0105     CD =  0.01370   =>   CDf =  0.00744    CDp =  0.00626

 Side 1  free  transition at x/c =  0.2764   40
 Side 2  free  transition at x/c =  0.9641   74

   5   rms: 0.6982E-05   max: -.7198E-04   D at   74  2
       a =  2.500      CL =  0.4570
      Cm =  0.0105     CD =  0.01370   =>   CDf =  0.00744    CDp =  0.00626
 plradd ia,ip,cpol           13           0  0.10256477    

 Point added to stored polar  1
 Point written to save file  marske3_Re300k.base.pol                         
 Dump file unspecified or not available
 Calculating wake trajectory ...
 Calculating source influence matrix ...

 Solving BL system ...

 Side 1  free  transition at x/c =  0.2764   40
 Side 2  free  transition at x/c =  0.9641   74

   1   rms: 0.9027E-01   max: -.1468E+00   T at   74  2
       a =  3.000      CL =  0.5257
      Cm =  0.0077     CD =  0.01372   =>   CDf =  0.00741    CDp =  0.00631

 Side 1  free  transition at x/c =  0.2652   41
 Side 2  free  transition at x/c =  0.9669   73

   2   rms: 0.1143E-01   max: -.1194E+00   D at   41  1
       a =  3.000      CL =  0.5223
      Cm =  0.0083     CD =  0.01386   =>   CDf =  0.00749    CDp =  0.00636

 Side 1  free  transition at x/c =  0.2660   41
 Side 2  free  transition at x/c =  0.9674   73

   3   rms: 0.6024E-03   max: 0.4700E-02   D at    4  1
       a =  3.000      CL =  0.5223
      Cm =  0.0083     CD =  0.01386   =>   CDf =  0.00746    CDp =  0.00640

 Side 1  free  transition at x/c =  0.2659   41
 Side 2  free  transition at x/c =  0.9674   73

   4   rms: 0.2257E-05   max: -.8436E-05   D at   73  2
       a =  3.000      CL =  0.5223
      Cm =  0.0083     CD =  0.01386   =>   CDf =  0.00746    CDp =  0.00640
 plradd ia,ip,cpol           14           0  0.10256477    

 Point added to stored polar  1
 Point written to save file  marske3_Re300k.base.pol                         
 Dump file unspecified or not available
 Calculating wake trajectory ...
 Calculating source influence matrix ...

 Solving BL system ...

 Side 1  free  transition at x/c =  0.2659   41
 Side 2  free  transition at x/c =  0.9674   73

   1   rms: 0.8701E-01   max: -.1691E+00   T at   73  2
       a =  3.500      CL =  0.5843
      Cm =  0.0067     CD =  0.01419   =>   CDf =  0.00742    CDp =  0.00677

 Side 1  free  transition at x/c =  0.2576   41
 Side 2  free  transition at x/c =  0.9723   72

   2   rms: 0.1534E-01   max: -.1103E+00   D at   41  1
       a =  3.500      CL =  0.5792
      Cm =  0.0077     CD =  0.01423   =>   CDf =  0.00758    CDp =  0.00665

 Side 1  free  transition at x/c =  0.2570   41
 Side 2  free  transition at x/c =  0.9734   72

   3   rms: 0.1228E-02   max: -.1207E-01   D at    4  1
       a =  3.500      CL =  0.5787
      Cm =  0.0078     CD =  0.01424   =>   CDf =  0.00754    CDp =  0.00670

 Side 1  free  transition at x/c =  0.2569   41
 Side 2  free  transition at x/c =  0.9735   72

   4   rms: 0.1580E-04   max: -.1782E-03   T at   72  2
       a =  3.500      CL =  0.5787
      Cm =  0.0078     CD =  0.01424   =>   CDf =  0.00754    CDp =  0.00670
 plradd ia,ip,cpol           15           0  9.14815590E-02

 Point added to stored polar  1
 Point written to save file  marske3_Re300k.base.pol                         
 Dump file unspecified or not available
 Calculating wake trajectory ...
 Calculating source influence matrix ...

 Solving BL system ...

 Side 1  free  transition at x/c =  0.2569   41
 Side 2  free  transition at x/c =  0.9735   72

   1   rms: 0.7691E-01   max: -.4694E+00   T at   72  2
       a =  4.000      CL =  0.6205
      Cm =  0.0105     CD =  0.01451   =>   CDf =  0.00754    CDp =  0.00697

 Side 1  free  transition at x/c =  0.2486   41
 Side 2  free  transition at x/c =  0.9850   74

   2   rms: 0.3100E-01   max: 0.3426E+00   D at   74  2
       a =  4.000      CL =  0.6289
      Cm =  0.0087     CD =  0.01447   =>   CDf =  0.00757    CDp =  0.00690

 Side 1  free  transition at x/c =  0.2486   41
 Side 2  free  transition at x/c =  0.9815   73

   3   rms: 0.2442E-01   max: 0.2341E+00   T at   73  2
       a =  4.000      CL =  0.6477
      Cm =  0.0048     CD =  0.01443   =>   CDf =  0.00756    CDp =  0.00687

 Side 1  free  transition at x/c =  0.2477   41
 Side 2  free  transition at x/c =  0.9760   73

   4   rms: 0.8888E-02   max: -.7585E-01   D at   75  2
       a =  4.000      CL =  0.6430
      Cm =  0.0057     CD =  0.01448   =>   CDf =  0.00758    CDp =  0.00689

 Side 1  free  transition at x/c =  0.2479   41
 Side 2  free  transition at x/c =  0.9775   73

   5   rms: 0.7489E-03   max: -.7552E-02   D at   73  2
       a =  4.000      CL =  0.6427
[...]
      Cm =  0.0389     CD =  0.02501   =>   CDf =  0.00605    CDp =  0.01897

 Side 1  free  transition at x/c =  0.1472   44
 Side 2 forced transition at x/c =  1.0000   65

   3   rms: 0.2798E-04   max: 0.1155E-03   C at   65  2
       a = 12.500      CL =  1.3414
      Cm =  0.0389     CD =  0.02502   =>   CDf =  0.00605    CDp =  0.01897
 plradd ia,ip,cpol           39           0 -9.08151385E-04

 Point added to stored polar  1
 Point written to save file  marske3_Re300k.base.pol                         
 Dump file unspecified or not available
 Calculating wake trajectory ...
 Calculating source influence matrix ...

 Solving BL system ...

 Side 1  free  transition at x/c =  0.1472   44
 Side 2 forced transition at x/c =  1.0000   65

   1   rms: 0.3381E-01   max: -.2302E+00   D at    3  2
       a = 12.750      CL =  1.3520
      Cm =  0.0412     CD =  0.02548   =>   CDf =  0.00571    CDp =  0.01978

 Side 1  free  transition at x/c =  0.1440   45
 Side 2 forced transition at x/c =  1.0000   64

   2   rms: 0.4093E-02   max: -.3189E-01   D at   45  1
       a = 12.750      CL =  1.3514
      Cm =  0.0413     CD =  0.02544   =>   CDf =  0.00598    CDp =  0.01946

 Side 1  free  transition at x/c =  0.1442   45
 Side 2 forced transition at x/c =  1.0000   64

   3   rms: 0.5953E-03   max: -.6183E-02   D at    4  1
       a = 12.750      CL =  1.3517
      Cm =  0.0412     CD =  0.02545   =>   CDf =  0.00598    CDp =  0.01947

 Side 1  free  transition at x/c =  0.1442   45
 Side 2 forced transition at x/c =  1.0000   64

   4   rms: 0.1359E-05   max: -.5047E-05   D at   89  1
       a = 12.750      CL =  1.3517
      Cm =  0.0412     CD =  0.02545   =>   CDf =  0.00598    CDp =  0.01947
 plradd ia,ip,cpol           40           0 -9.08151385E-04

 Point added to stored polar  1
 Point written to save file  marske3_Re300k.base.pol                         
 Dump file unspecified or not available
 Calculating wake trajectory ...
 Calculating source influence matrix ...

 Solving BL system ...

 Side 1  free  transition at x/c =  0.1442   45
 Side 2 forced transition at x/c =  1.0000   64

   1   rms: 0.3045E-01   max: 0.1222E+00   T at   45  1
       a = 13.000      CL =  1.3603
      Cm =  0.0438     CD =  0.02592   =>   CDf =  0.00598    CDp =  0.01994

 Side 1  free  transition at x/c =  0.1417   45
 Side 2 forced transition at x/c =  1.0000   64

   2   rms: 0.1977E-02   max: -.1838E-01   D at   45  1
       a = 13.000      CL =  1.3598
      Cm =  0.0439     CD =  0.02595   =>   CDf =  0.00597    CDp =  0.01998

 Side 1  free  transition at x/c =  0.1418   45
 Side 2 forced transition at x/c =  1.0000   64

   3   rms: 0.1707E-03   max: -.7110E-03   D at   98  1
       a = 13.000      CL =  1.3600
      Cm =  0.0438     CD =  0.02595   =>   CDf =  0.00597    CDp =  0.01998

 Side 1  free  transition at x/c =  0.1418   45
 Side 2 forced transition at x/c =  1.0000   64

   4   rms: 0.1930E-05   max: 0.8417E-05   C at   64  2
       a = 13.000      CL =  1.3600
      Cm =  0.0438     CD =  0.02595   =>   CDf =  0.00597    CDp =  0.01998
 plradd ia,ip,cpol           41           0 -9.08151385E-04

 Point added to stored polar  1
 Point written to save file  marske3_Re300k.base.pol                         
 Dump file unspecified or not available
 Calculating wake trajectory ...
 Calculating source influence matrix ...

 Solving BL system ...

 Side 1  free  transition at x/c =  0.1418   45
 Side 2 forced transition at x/c =  1.0000   64

   1   rms: 0.3185E-01   max: 0.1284E+00   T at   45  1
       a = 13.250      CL =  1.3697
      Cm =  0.0461     CD =  0.02661   =>   CDf =  0.00597    CDp =  0.02064

 Side 1  free  transition at x/c =  0.1393   44
 Side 2 forced transition at x/c =  1.0000   64

   2   rms: 0.3122E-02   max: -.2873E-01   C at   44  1
       a = 13.250      CL =  1.3686
      Cm =  0.0461     CD =  0.02679   =>   CDf =  0.00598    CDp =  0.02081

 Side 1  free  transition at x/c =  0.1390   44
 Side 2 forced transition at x/c =  1.0000   64

   3   rms: 0.2021E-03   max: -.9350E-03   D at   96  1
       a = 13.250      CL =  1.3687
      Cm =  0.0461     CD =  0.02679   =>   CDf =  0.00596    CDp =  0.02083

 Side 1  free  transition at x/c =  0.1390   44
 Side 2 forced transition at x/c =  1.0000   64

   4   rms: 0.3225E-05   max: -.1297E-04   T at   44  1
       a = 13.250      CL =  1.3687
      Cm =  0.0461     CD =  0.02679   =>   CDf =  0.00596    CDp =  0.02083
 plradd ia,ip,cpol           42           0 -9.08151385E-04

 Point added to stored polar  1
 Point written to save file  marske3_Re300k.base.pol                         
 Dump file unspecified or not available
 Calculating wake trajectory ...
 Calculating source influence matrix ...

 Solving BL system ...

 Side 1  free  transition at x/c =  0.1390   44
 Side 2 forced transition at x/c =  1.0000   64

   1   rms: 0.3124E-01   max: -.1270E+00   C at   44  1
       a = 13.500      CL =  1.3695
      Cm =  0.0495     CD =  0.02750   =>   CDf =  0.00596    CDp =  0.02154

 Side 1  free  transition at x/c =  0.1364   44
 Side 2 forced transition at x/c =  1.0000   64

   2   rms: 0.3253E-02   max: -.2142E-01   D at   44  1
       a = 13.500      CL =  1.3701
      Cm =  0.0491     CD =  0.02750   =>   CDf =  0.00578    CDp =  0.02172

 Side 1  free  transition at x/c =  0.1366   44
 Side 2 forced transition at x/c =  1.0000   64

   3   rms: 0.2761E-03   max: -.1202E-02   D at   95  1
       a = 13.500      CL =  1.3703
      Cm =  0.0491     CD =  0.02750   =>   CDf =  0.00577    CDp =  0.02172

 Side 1  free  transition at x/c =  0.1365   44
 Side 2 forced transition at x/c =  1.0000   64

   4   rms: 0.1144E-05   max: 0.1051E-04   C at   64  2
       a = 13.500      CL =  1.3703
      Cm =  0.0491     CD =  0.02750   =>   CDf =  0.00577    CDp =  0.02173
 plradd ia,ip,cpol           43           0 -9.08151385E-04

 Point added to stored polar  1
 Point written to save file  marske3_Re300k.base.pol                         
 Dump file unspecified or not available
 Calculating wake trajectory ...
 Calculating source influence matrix ...

 Solving BL system ...

 Side 1  free  transition at x/c =  0.1365   44
 Side 2 forced transition at x/c =  1.0000   64

   1   rms: 0.3166E-01   max: 0.1156E+00   T at   44  1
       a = 13.750      CL =  1.3742
      Cm =  0.0516     CD =  0.02833   =>   CDf =  0.00577    CDp =  0.02256

 Side 1  free  transition at x/c =  0.1332   44
 Side 2 forced transition at x/c =  1.0000   64

   2   rms: 0.4855E-02   max: -.4784E-01   D at   44  1
       a = 13.750      CL =  1.3741
      Cm =  0.0514     CD =  0.02825   =>   CDf =  0.00566    CDp =  0.02259

 Side 1  free  transition at x/c =  0.1336   44
 Side 2 forced transition at x/c =  1.0000   64

   3   rms: 0.5789E-03   max: -.2500E-02   D at   92  1
       a = 13.750      CL =  1.3745
      Cm =  0.0514     CD =  0.02825   =>   CDf =  0.00565    CDp =  0.02260

 Side 1  free  transition at x/c =  0.1336   44
 Side 2 forced transition at x/c =  1.0000   64

   4   rms: 0.9224E-05   max: -.2907E-04   D at   72  2
       a = 13.750      CL =  1.3745
      Cm =  0.0513     CD =  0.02825   =>   CDf =  0.00565    CDp =  0.02260
 plradd ia,ip,cpol           44           0 -1.28615194E-03

 Point added to stored polar  1
 Point written to save file  marske3_Re300k.base.pol                         
 Dump file unspecified or not available
 Calculating wake trajectory ...
 Calculating source influence matrix ...

 Solving BL system ...

 Side 1  free  transition at x/c =  0.1336   44
 Side 2 forced transition at x/c =  1.0000   64

   1   rms: 0.3198E-01   max: 0.1191E+00   T at   44  1
       a = 14.000      CL =  1.3800
      Cm =  0.0532     CD =  0.02908   =>   CDf =  0.00527    CDp =  0.02381

 Side 1  free  transition at x/c =  0.1298   45
 Side 2 forced transition at x/c =  1.0000   63

   2   rms: 0.9955E-02   max: -.1022E+00   D at   45  1
       a = 14.000      CL =  1.3786
      Cm =  0.0532     CD =  0.02902   =>   CDf =  0.00561    CDp =  0.02341

 Side 1  free  transition at x/c =  0.1306   45
 Side 2 forced transition at x/c =  1.0000   63

   3   rms: 0.1883E-02   max: -.1057E-01   D at    4  1
       a = 14.000      CL =  1.3798
      Cm =  0.0531     CD =  0.02900   =>   CDf =  0.00558    CDp =  0.02342

 Side 1  free  transition at x/c =  0.1305   45
 Side 2 forced transition at x/c =  1.0000   63

   4   rms: 0.6045E-04   max: -.2428E-03   D at   91  1
       a = 14.000      CL =  1.3798
      Cm =  0.0531     CD =  0.02900   =>   CDf =  0.00559    CDp =  0.02341
 plradd ia,ip,cpol           45           0 -1.28615194E-03

 Point added to stored polar  1
 Point written to save file  marske3_Re300k.base.pol                         
 Dump file unspecified or not available
 Calculating wake trajectory ...
 Calculating source influence matrix ...

 Solving BL system ...

 Side 1  free  transition at x/c =  0.1305   45
 Side 2 forced transition at x/c =  1.0000   63

   1   rms: 0.3386E-01   max: -.1182E+00   D at   46  1
       a = 14.250      CL =  1.3857
      Cm =  0.0545     CD =  0.02990   =>   CDf =  0.00559    CDp =  0.02432

 Side 1  free  transition at x/c =  0.1273   45
 Side 2 forced transition at x/c =  1.0000   63

   2   rms: 0.3028E-02   max: -.1705E-01   D at   91  1
       a = 14.250      CL =  1.3864
      Cm =  0.0544     CD =  0.02997   =>   CDf =  0.00564    CDp =  0.02433

 Side 1  free  transition at x/c =  0.1272   45
 Side 2 forced transition at x/c =  1.0000   63

   3   rms: 0.2025E-03   max: -.7884E-03   D at   90  1
       a = 14.250      CL =  1.3866
      Cm =  0.0544     CD =  0.02998   =>   CDf =  0.00565    CDp =  0.02433

 Side 1  free  transition at x/c =  0.1272   45
 Side 2 forced transition at x/c =  1.0000   63

   4   rms: 0.2142E-05   max: -.8909E-05   D at   62  2
       a = 14.250      CL =  1.3866
      Cm =  0.0544     CD =  0.02998   =>   CDf =  0.00565    CDp =  0.02433
 plradd ia,ip,cpol           46           0 -1.28615194E-03

 Point added to stored polar  1
 Point written to save file  marske3_Re300k.base.pol                         
 Dump file unspecified or not available
 Calculating wake trajectory ...
 Calculating source influence matrix ...

 Solving BL system ...

 Side 1  free  transition at x/c =  0.1272   45
 Side 2 forced transition at x/c =  1.0000   63

   1   rms: 0.3700E-01   max: 0.1645E+00   T at   45  1
       a = 14.500      CL =  1.3970
      Cm =  0.0554     CD =  0.03139   =>   CDf =  0.00565    CDp =  0.02573

 Side 1  free  transition at x/c =  0.1233   44
 Side 2 forced transition at x/c =  1.0000   63

   2   rms: 0.2316E-01   max: -.1872E+00   D at   44  1
       a = 14.500      CL =  1.3854
      Cm =  0.0557     CD =  0.03149   =>   CDf =  0.00549    CDp =  0.02600

 Side 1  free  transition at x/c =  0.1247   44
 Side 2 forced transition at x/c =  1.0000   63

   3   rms: 0.2285E-02   max: 0.1288E-01   D at   86  1
       a = 14.500      CL =  1.3871
      Cm =  0.0555     CD =  0.03145   =>   CDf =  0.00545    CDp =  0.02599

 Side 1  free  transition at x/c =  0.1245   44
 Side 2 forced transition at x/c =  1.0000   63

   4   rms: 0.3609E-04   max: 0.1587E-03   D at   85  1
       a = 14.500      CL =  1.3871
      Cm =  0.0555     CD =  0.03145   =>   CDf =  0.00545    CDp =  0.02600
 plradd ia,ip,cpol           47           0 -1.28615194E-03

 Point added to stored polar  1
 Point written to save file  marske3_Re300k.base.pol                         
 Dump file unspecified or not available
 Calculating wake trajectory ...
 Calculating source influence matrix ...

 Solving BL system ...

 Side 1  free  transition at x/c =  0.1245   44
 Side 2 forced transition at x/c =  1.0000   63

   1   rms: 0.3730E-01   max: 0.1241E+00   T at   44  1
       a = 14.750      CL =  1.3894
      Cm =  0.0561     CD =  0.03310   =>   CDf =  0.00545    CDp =  0.02765

 Side 1  free  transition at x/c =  0.1212   44
 Side 2 forced transition at x/c =  1.0000   63

   2   rms: 0.1921E-02   max: 0.2184E-01   D at   83  1
       a = 14.750      CL =  1.3892
      Cm =  0.0560     CD =  0.03302   =>   CDf =  0.00531    CDp =  0.02771

 Side 1  free  transition at x/c =  0.1214   44
 Side 2 forced transition at x/c =  1.0000   63

   3   rms: 0.1181E-03   max: -.6339E-03   D at   83  1
       a = 14.750      CL =  1.3893
      Cm =  0.0560     CD =  0.03301   =>   CDf =  0.00530    CDp =  0.02771

 Side 1  free  transition at x/c =  0.1214   44
 Side 2 forced transition at x/c =  1.0000   63

   4   rms: 0.4559E-05   max: -.1644E-04   D at   77  2
       a = 14.750      CL =  1.3893
      Cm =  0.0560     CD =  0.03301   =>   CDf =  0.00530    CDp =  0.02771
 plradd ia,ip,cpol           48           0 -1.28615194E-03

 Point added to stored polar  1
 Point written to save file  marske3_Re300k.base.pol                         
 Dump file unspecified or not available
 Calculating wake trajectory ...
 Calculating source influence matrix ...

 Solving BL system ...

 Side 1  free  transition at x/c =  0.1214   44
 Side 2 forced transition at x/c =  1.0000   63

   1   rms: 0.3734E-01   max: 0.1250E+00   T at   44  1
       a = 15.000      CL =  1.3928
      Cm =  0.0561     CD =  0.03484   =>   CDf =  0.00530    CDp =  0.02954

 Side 1  free  transition at x/c =  0.1180   44
 Side 2 forced transition at x/c =  1.0000   63

   2   rms: 0.3093E-02   max: -.3015E-01   D at   44  1
       a = 15.000      CL =  1.3915
      Cm =  0.0561     CD =  0.03476   =>   CDf =  0.00524    CDp =  0.02951

 Side 1  free  transition at x/c =  0.1183   44
 Side 2 forced transition at x/c =  1.0000   63

   3   rms: 0.3785E-03   max: -.1771E-02   D at   80  1
       a = 15.000      CL =  1.3918
      Cm =  0.0561     CD =  0.03473   =>   CDf =  0.00523    CDp =  0.02950

 Side 1  free  transition at x/c =  0.1183   44
 Side 2 forced transition at x/c =  1.0000   63

   4   rms: 0.2248E-04   max: 0.9389E-04   C at   63  2
       a = 15.000      CL =  1.3918
      Cm =  0.0561     CD =  0.03473   =>   CDf =  0.00523    CDp =  0.02950
 plradd ia,ip,cpol           49           0 -1.28615194E-03

 Point added to stored polar  1
 Point written to save file  marske3_Re300k.base.pol                         
 Dump file unspecified or not available
 Calculating wake trajectory ...
 Calculating source influence matrix ...

 Solving BL system ...

 Side 1  free  transition at x/c =  0.1183   44
 Side 2 forced transition at x/c =  1.0000   63

   1   rms: 0.3672E-01   max: 0.1073E+00   D at   77  1   RLX: 0.969
       a = 15.250      CL =  1.3958
      Cm =  0.0560     CD =  0.03666   =>   CDf =  0.00523    CDp =  0.03143

 Side 1  free  transition at x/c =  0.1152   44
 Side 2 forced transition at x/c =  1.0000   63

   2   rms: 0.2415E-02   max: 0.1638E-01   D at   78  1
       a = 15.250      CL =  1.3938
      Cm =  0.0562     CD =  0.03663   =>   CDf =  0.00527    CDp =  0.03136

 Side 1  free  transition at x/c =  0.1154   44
 Side 2 forced transition at x/c =  1.0000   63

   3   rms: 0.2573E-03   max: -.1289E-02   D at   78  1
       a = 15.250      CL =  1.3940
      Cm =  0.0562     CD =  0.03662   =>   CDf =  0.00526    CDp =  0.03136

 Side 1  free  transition at x/c =  0.1154   44
 Side 2 forced transition at x/c =  1.0000   63

   4   rms: 0.1184E-04   max: 0.7024E-04   C at   63  2
       a = 15.250      CL =  1.3940
      Cm =  0.0562     CD =  0.03662   =>   CDf =  0.00526    CDp =  0.03136
 plradd ia,ip,cpol           50           0 -1.28615194E-03

 Point added to stored polar  1
 Point written to save file  marske3_Re300k.base.pol                         
 Dump file unspecified or not available
 Calculating wake trajectory ...
 Calculating source influence matrix ...

 Solving BL system ...

 Side 1  free  transition at x/c =  0.1154   44
 Side 2 forced transition at x/c =  1.0000   63

   1   rms: 0.3514E-01   max: -.9634E-01   D at   45  1   RLX: 0.922
       a = 15.500      CL =  1.3982
      Cm =  0.0564     CD =  0.03850   =>   CDf =  0.00526    CDp =  0.03323

 Side 1  free  transition at x/c =  0.1126   43
 Side 2 forced transition at x/c =  1.0000   63

   2   rms: 0.1642E-01   max: -.1170E+00   D at   43  1
       a = 15.500      CL =  1.3916
      Cm =  0.0556     CD =  0.03929   =>   CDf =  0.00514    CDp =  0.03415

 Side 1  free  transition at x/c =  0.1130   43
 Side 2 forced transition at x/c =  1.0000   63

   3   rms: 0.1221E-02   max: -.9091E-02   D at   77  1
       a = 15.500      CL =  1.3920
      Cm =  0.0558     CD =  0.03911   =>   CDf =  0.00508    CDp =  0.03403

 Side 1  free  transition at x/c =  0.1129   43
 Side 2 forced transition at x/c =  1.0000   63

   4   rms: 0.3680E-04   max: 0.4693E-03   C at   63  2
       a = 15.500      CL =  1.3921
      Cm =  0.0557     CD =  0.03912   =>   CDf =  0.00508    CDp =  0.03405
 plradd ia,ip,cpol           51           0 -1.47699844E-03

 Point added to stored polar  1
 Point written to save file  marske3_Re300k.base.pol                         
 Dump file unspecified or not available
 Calculating wake trajectory ...
 Calculating source influence matrix ...

 Solving BL system ...

 Side 1  free  transition at x/c =  0.1128   43
 Side 2 forced transition at x/c =  1.0000   63

   1   rms: 0.4096E-01   max: 0.1434E+00   D at   73  1   RLX: 0.864
       a = 15.750      CL =  1.3917
      Cm =  0.0549     CD =  0.04172   =>   CDf =  0.00508    CDp =  0.03664

 Side 1  free  transition at x/c =  0.1100   43
 Side 2 forced transition at x/c =  1.0000   63

   2   rms: 0.6625E-02   max: 0.4506E-01   D at   74  1
       a = 15.750      CL =  1.3895
      Cm =  0.0549     CD =  0.04194   =>   CDf =  0.00495    CDp =  0.03699

 Side 1  free  transition at x/c =  0.1099   43
 Side 2 forced transition at x/c =  1.0000   63

   3   rms: 0.4975E-03   max: 0.3891E-02   D at   73  1
       a = 15.750      CL =  1.3892
      Cm =  0.0549     CD =  0.04189   =>   CDf =  0.00492    CDp =  0.03697

 Side 1  free  transition at x/c =  0.1099   43
 Side 2 forced transition at x/c =  1.0000   63

   4   rms: 0.2168E-04   max: 0.1147E-03   D at   74  2
       a = 15.750      CL =  1.3891
      Cm =  0.0549     CD =  0.04188   =>   CDf =  0.00492    CDp =  0.03696
 plradd ia,ip,cpol           52           0 -1.28615194E-03

 Point added to stored polar  1
 Point written to save file  marske3_Re300k.base.pol                         
 Dump file unspecified or not available
 Calculating wake trajectory ...
 Calculating source influence matrix ...

 Solving BL system ...

 Side 1  free  transition at x/c =  0.1099   43
 Side 2 forced transition at x/c =  1.0000   63

   1   rms: 0.3907E-01   max: 0.1394E+00   D at   71  1   RLX: 0.820
       a = 16.000      CL =  1.3891
      Cm =  0.0539     CD =  0.04448   =>   CDf =  0.00492    CDp =  0.03955

 Side 1  free  transition at x/c =  0.1073   43
 Side 2 forced transition at x/c =  1.0000   63

   2   rms: 0.8945E-02   max: 0.5140E-01   D at   72  1
       a = 16.000      CL =  1.3860
      Cm =  0.0539     CD =  0.04493   =>   CDf =  0.00486    CDp =  0.04007

 Side 1  free  transition at x/c =  0.1072   43
 Side 2 forced transition at x/c =  1.0000   63

   3   rms: 0.7986E-03   max: 0.6729E-02   D at   71  1
       a = 16.000      CL =  1.3854
      Cm =  0.0539     CD =  0.04484   =>   CDf =  0.00483    CDp =  0.04001

 Side 1  free  transition at x/c =  0.1072   43
 Side 2 forced transition at x/c =  1.0000   63

   4   rms: 0.4924E-04   max: 0.1996E-03   D at   74  2
       a = 16.000      CL =  1.3854
      Cm =  0.0539     CD =  0.04484   =>   CDf =  0.00483    CDp =  0.04001
 plradd ia,ip,cpol           53           0 -1.28615194E-03

 Point added to stored polar  1
 Point written to save file  marske3_Re300k.base.pol                         
 Dump file unspecified or not available

.OPERva   c>  
 Polar accumulation disabled

.OPERv   c>  
 XFOIL   c>  
 XFOIL   c>  