
 ===================================================
  XFOIL Version 6.99
  Copyright (C) 2000   Mark Drela, Harold Youngren

  This software comes with ABSOLUTELY NO WARRANTY,
    subject to the GNU General Public License.

  Caveat computor
 ===================================================

 File  xfoil.def  not found

   QUIT    Exit program

  .OPER    Direct operating point(s)
  .MDES    Complex mapping design routine
  .QDES    Surface speed design routine
  .GDES    Geometry design routine

   SAVE f  Write airfoil to labeled coordinate file
   PSAV f  Write airfoil to plain coordinate file
   ISAV f  Write airfoil to ISES coordinate file
   MSAV f  Write airfoil to MSES coordinate file
   REVE    Reverse written-airfoil node ordering

   LOAD f  Read buffer airfoil from coordinate file
   NACA i  Set NACA 4,5-digit airfoil and buffer airfoil
   INTE    Set buffer airfoil by interpolating two airfoils
   NORM    Buffer airfoil normalization toggle
   XYCM rr Change CM reference location, currently  0.25000 0.00000

   BEND    Display structural properties of current airfoil

   PCOP    Set current-airfoil panel nodes directly from buffer airfoil points
   PANE    Set current-airfoil panel nodes ( 160 ) based on curvature
  .PPAR    Show/change paneling

  .PLOP    Plotting options

   WDEF f  Write  current-settings file
   RDEF f  Reread current-settings file
   NAME s  Specify new airfoil name
   NINC    Increment name version number

   Z       Zoom    | (available in all menus)
   U       Unzoom  | 

 XFOIL   c>  
 Labeled airfoil file.  Name:  MARSKE MONARCH AIRFOIL (NACA 43012A)            

 Number of input coordinate points:  33
 Counterclockwise ordering
 Max thickness =     0.122157  at x =   0.201
 Max camber    =     0.026713  at x =   0.149

  LE  x,y  =  -0.00243   0.00840  |   Chord =   1.00246
  TE  x,y  =   1.00000   0.00000  |

 Current airfoil nodes set from buffer airfoil nodes (  33 )

 WARNING: Poor input coordinate distribution
          Excessive panel angle   74.2  at i =  17
          Repaneling with PANE and/or PPAR suggested
           (doing GDES,CADD before repaneling _may_
            improve excessively coarse LE spacing

 XFOIL   c>  
 XFOIL   c>  
 Sharp trailing edge

 Paneling parameters used...
   Number of panel nodes       160
   Panel bunching parameter    1.000
   TE/LE panel density ratio   0.150
   Refined-area/LE panel density ratio    0.200
   Top    side refined area x/c limits  1.000 1.000
   Bottom side refined area x/c limits  1.000 1.000

 XFOIL   c>  
.OPERi   c>  
 Xtr/c     =  1.0000    top    side
 Xtr/c     =  1.0000    bottom side
 Ncrit     =    9.00   ( 0.070 % turb. level )
 Vacc      =  0.0100

 Klag  =  5.6000     Uxwt  =    1.00
 A     =  6.7000     B     =  0.7500       KCt = 0.01485
 CtiniK=  1.8000     CtiniX=  3.3000

..VPAR   c>  
..VPAR   c>  
.OPERi   c>  
 M  =    0.0000
 Re =    200000

.OPERv   c>  
.OPERv   c>  
.OPERv   c>  
 Polar  1 newly created for accumulation
 Airfoil archived with polar: MARSKE MONARCH AIRFOIL (NACA 43012A)            

Enter  polar save filename  OR  <return> for no file   s>  
 New polar save file available

Enter  polar dump filename  OR  <return> for no file   s>  
 Polar dump file will NOT be written

 Polar accumulation enabled

.OPERva   c>   Calculating unit vorticity distributions ...
 Calculating wake trajectory ...
 Calculating source influence matrix ...

 Solving BL system ...

 Initializing BL ...
    side            1  ...
 MRCHUE: Inverse mode at  42     Hk =   3.800
 MRCHUE: Inverse mode at  46     Hk =   3.800
 MRCHUE: Inverse mode at  47     Hk =   4.516
 MRCHUE: Inverse mode at  48     Hk =   5.244
 MRCHUE: Convergence failed at  49  side 1    Res =  0.2744E+01
 MRCHUE: Inverse mode at  50     Hk =   6.047
 MRCHUE: Inverse mode at  51     Hk =   6.877
 MRCHUE: Inverse mode at  52     Hk =   7.719
 MRCHUE: Inverse mode at  53     Hk =   7.859
 MRCHUE: Inverse mode at  54     Hk =   3.918
 MRCHUE: Inverse mode at  55     Hk =   2.500
 MRCHUE: Inverse mode at  56     Hk =   2.500
 MRCHUE: Inverse mode at  57     Hk =   2.500
 MRCHUE: Inverse mode at  91     Hk =   2.500
 MRCHUE: Inverse mode at  92     Hk =   2.500
 MRCHUE: Inverse mode at  93     Hk =   2.500
 MRCHUE: Inverse mode at  94     Hk =   2.500
 MRCHUE: Inverse mode at  95     Hk =   2.500
 MRCHUE: Inverse mode at  96     Hk =   2.500
 MRCHUE: Inverse mode at  97     Hk =   2.500
 MRCHUE: Inverse mode at  98     Hk =   2.500
 MRCHUE: Inverse mode at  99     Hk =   2.500
 MRCHUE: Convergence failed at 100  side 1    Res =  0.7034E+01
    side            2  ...
 MRCHUE: Inverse mode at  56     Hk =   3.800
 MRCHUE: Inverse mode at  57     Hk =   4.120
 MRCHUE: Inverse mode at  58     Hk =   4.407
 MRCHUE: Inverse mode at  59     Hk =   4.666
 MRCHUE: Inverse mode at  60     Hk =   4.902
 MRCHUE: Convergence failed at  61  side 2    Res =  0.2943E+01
 MRCHUE: Inverse mode at  62     Hk =   5.038

 MRCHDU: Convergence failed at  80  side 1    Res =  0.4612E+01
 MRCHDU: Convergence failed at  81  side 1    Res =  0.3988E+01
 MRCHDU: Convergence failed at  82  side 1    Res =  0.3799E+01
 MRCHDU: Convergence failed at  83  side 1    Res =  0.3527E+01
 MRCHDU: Convergence failed at  84  side 1    Res =  0.3472E+01
 MRCHDU: Convergence failed at  85  side 1    Res =  0.3380E+01
 MRCHDU: Convergence failed at  86  side 1    Res =  0.3220E+01
 MRCHDU: Convergence failed at  87  side 1    Res =  0.2943E+01
 MRCHDU: Convergence failed at  88  side 1    Res =  0.2502E+01
 MRCHDU: Convergence failed at  89  side 1    Res =  0.2026E+01
 MRCHDU: Convergence failed at  90  side 1    Res =  0.1855E+01
 MRCHDU: Convergence failed at  91  side 1    Res =  0.2139E+01
 MRCHDU: Convergence failed at  92  side 1    Res =  0.2207E+01
 MRCHDU: Convergence failed at  93  side 1    Res =  0.2279E+01
 MRCHDU: Convergence failed at  94  side 1    Res =  0.2377E+01
 MRCHDU: Convergence failed at  95  side 1    Res =  0.2447E+01
 MRCHDU: Convergence failed at  96  side 1    Res =  0.2512E+01
 MRCHDU: Convergence failed at  97  side 1    Res =  0.2573E+01
 MRCHDU: Convergence failed at  98  side 1    Res =  0.2629E+01
 MRCHDU: Convergence failed at  99  side 1    Res =  0.2681E+01
 MRCHDU: Convergence failed at 100  side 1    Res =  0.3006E+02
 MRCHDU: Convergence failed at  61  side 2    Res =  0.2824E+01
 MRCHDU: Convergence failed at  62  side 2    Res =  0.1850E+01
 Side 1  free  transition at x/c =  0.2012   53
 Side 2 forced transition at x/c =  1.0000   62

   1   rms: 0.1267E+01   max: -.4745E+01   D at   71  1   RLX: 0.105
       a = 12.000      CL =  1.7775
      Cm = -0.0299     CD =  0.00893   =>   CDf =  0.00495    CDp =  0.00398

 Side 1  free  transition at x/c =  0.2036   54
 Side 2 forced transition at x/c =  1.0000   62

   2   rms: 0.6882E+00   max: -.2689E+01   D at   68  1   RLX: 0.186
       a = 12.000      CL =  1.7317
      Cm = -0.0117     CD =  0.00940   =>   CDf =  0.00555    CDp =  0.00385

 Side 1  free  transition at x/c =  0.2009   53
 Side 2 forced transition at x/c =  1.0000   62
 idif Ue xi dudx           1  9.63049158E-02  7.17997551E-03   13.412987    
 Uenew xinew           2  2.61045005E-02  1.94621086E-03

   3   rms: 0.1536E+01   max: 0.5366E+01   D at   64  2   RLX: 0.201
       a = 12.000      CL =  1.6441
      Cm = -0.0243     CD =  0.01983   =>   CDf =  0.00605    CDp =  0.01378

 Side 1  free  transition at x/c =  0.1866   52
 Side 2 forced transition at x/c =  1.0000   63

   4   rms: 0.2546E+00   max: 0.1163E+01   T at   52  1   RLX: 0.714
       a = 12.000      CL =  1.4475
      Cm =  0.0223     CD =  0.02628   =>   CDf =  0.00627    CDp =  0.02001

 MRCHDU: Convergence failed at  52  side 1    Res =  0.8709E+01
 MRCHDU: Convergence failed at  53  side 1    Res =  0.2741E+02
 MRCHDU: Convergence failed at  54  side 1    Res =  0.3057E+02
 MRCHDU: Convergence failed at  55  side 1    Res =  0.5004E+02
 MRCHDU: Convergence failed at  56  side 1    Res =  0.7674E+02
 MRCHDU: Convergence failed at  57  side 1    Res =  0.1075E+03
 MRCHDU: Convergence failed at  58  side 1    Res =  0.4590E+02
 MRCHDU: Convergence failed at  59  side 1    Res =  0.4001E+02
 MRCHDU: Convergence failed at  60  side 1    Res =  0.5004E+02
 MRCHDU: Convergence failed at  61  side 1    Res =  0.5461E+02
 MRCHDU: Convergence failed at  62  side 1    Res =  0.6716E+02
 MRCHDU: Convergence failed at  63  side 1    Res =  0.1082E+03
 MRCHDU: Convergence failed at  64  side 1    Res =  0.9298E+02
 MRCHDU: Convergence failed at  65  side 1    Res =  0.1087E+03
 MRCHDU: Convergence failed at  66  side 1    Res =  0.4468E+02
 MRCHDU: Convergence failed at  67  side 1    Res =  0.1288E+03
 MRCHDU: Convergence failed at  68  side 1    Res =  0.2091E+03
 MRCHDU: Convergence failed at  69  side 1    Res =  0.1325E+03
 MRCHDU: Convergence failed at  70  side 1    Res =  0.9407E+02
 MRCHDU: Convergence failed at  71  side 1    Res =  0.1204E+03
 MRCHDU: Convergence failed at  72  side 1    Res =  0.5169E+02
 MRCHDU: Convergence failed at  73  side 1    Res =  0.4271E+02
 MRCHDU: Convergence failed at  74  side 1    Res =  0.4254E+02
 MRCHDU: Convergence failed at  75  side 1    Res =  0.3195E+03
 MRCHDU: Convergence failed at  76  side 1    Res =  0.2861E+02
 MRCHDU: Convergence failed at  77  side 1    Res =  0.3057E+02
 MRCHDU: Convergence failed at  78  side 1    Res =  0.4246E+02
 MRCHDU: Convergence failed at  79  side 1    Res =  0.4765E+02
 MRCHDU: Convergence failed at  80  side 1    Res =  0.5291E+02
 MRCHDU: Convergence failed at  81  side 1    Res =  0.5828E+02
 MRCHDU: Convergence failed at  82  side 1    Res =  0.5467E+02
 MRCHDU: Convergence failed at  83  side 1    Res =  0.1687E+03
 MRCHDU: Convergence failed at  84  side 1    Res =  0.2249E+03
 MRCHDU: Convergence failed at  85  side 1    Res =  0.3255E+03
 MRCHDU: Convergence failed at  86  side 1    Res =  0.3184E+03
 MRCHDU: Convergence failed at  87  side 1    Res =  0.9329E+02
 MRCHDU: Convergence failed at  88  side 1    Res =  0.1026E+03
 MRCHDU: Convergence failed at  89  side 1    Res =  0.1129E+03
 MRCHDU: Convergence failed at  90  side 1    Res =  0.7414E+02
 MRCHDU: Convergence failed at  91  side 1    Res =  0.8602E+02
 MRCHDU: Convergence failed at  92  side 1    Res =  0.1016E+03
 MRCHDU: Convergence failed at  93  side 1    Res =  0.1205E+03
 MRCHDU: Convergence failed at  94  side 1    Res =  0.1433E+03
 MRCHDU: Convergence failed at  95  side 1    Res =  0.1709E+03
 MRCHDU: Convergence failed at  96  side 1    Res =  0.2057E+03
 MRCHDU: Convergence failed at  97  side 1    Res =  0.2516E+03
 MRCHDU: Convergence failed at  98  side 1    Res =  0.1444E+03
 MRCHDU: Convergence failed at  99  side 1    Res =  0.2847E+03
 Side 1  free  transition at x/c =  0.1820   51
 Side 2 forced transition at x/c =  1.0000   63
 idif Ue xi dudx           1  8.86081532E-02  6.02602959E-03   14.704235    
 Uenew xinew           2  2.18233746E-02  1.48415565E-03

   5   rms: 0.2414E+01   max: 0.1550E+02   D at   65  2   RLX: 0.097
       a = 12.000      CL =  3.1298
      Cm = -0.6822     CD =  0.00568   =>   CDf =  0.00452    CDp =  0.00116

 MRCHDU: Convergence failed at  67  side 2    Res =  0.9642E+01
 MRCHDU: Convergence failed at  68  side 2    Res =  0.1943E+01
 Side 1  free  transition at x/c =  0.1756   50
 Side 2 forced transition at x/c =  1.0000   64

   6   rms: 0.5493E+00   max: 0.3124E+01   C at   64  2   RLX: 0.375
       a = 12.000      CL =  2.1273
      Cm = -0.2720     CD =  0.03107   =>   CDf =  0.00449    CDp =  0.02657

 Side 1  free  transition at x/c =  0.1688   50
 Side 2 forced transition at x/c =  1.0000   63

   7   rms: 0.8924E+00   max: 0.8425E+01   T at   50  1   RLX: 0.117
       a = 12.000      CL =  2.1190
      Cm = -0.2880     CD =  0.04934   =>   CDf =  0.00452    CDp =  0.04481

 Side 1  free  transition at x/c =  0.1581   50
 Side 2 forced transition at x/c =  1.0000   63
 idif Ue xi dudx           2  0.17378733      1.10040903E-02   15.792975    
 Uenew xinew           3  0.10205762      6.46221638E-03

   8   rms: 0.6384E+00   max: 0.1155E+01   D at   77  2   RLX: 0.421
       a = 12.000      CL =  1.5983
      Cm = -0.1644     CD =  0.06348   =>   CDf =  0.00509    CDp =  0.05839

 Side 1  free  transition at x/c =  0.1582   48
 Side 2 forced transition at x/c =  1.0000   65
 idif Ue xi dudx           2  0.15683804      7.56084919E-03   20.743443    
 Uenew xinew           3  8.27971324E-02  3.99148464E-03

   9   rms: 0.5747E+00   max: -.1435E+01   D at    2  2   RLX: 0.348
       a = 12.000      CL =  1.2584
      Cm = -0.0909     CD =  0.08282   =>   CDf =  0.00550    CDp =  0.07732

 Side 1  free  transition at x/c =  0.1588   46
 Side 2 forced transition at x/c =  1.0000   67

  10   rms: 0.4133E+00   max: -.3089E+01   T at    2  2   RLX: 0.162
       a = 12.000      CL =  1.1516
      Cm = -0.0672     CD =  0.09064   =>   CDf =  0.00518    CDp =  0.08546

 Side 1  free  transition at x/c =  0.1588   46
 Side 2 forced transition at x/c =  1.0000   67
 idif Ue xi dudx           2  0.27713329      8.24368000E-03   33.617668    
 Uenew xinew           3  0.17523763      5.21266460E-03

  11   rms: 0.3274E+00   max: 0.3936E+00   D at   86  2   RLX: 0.957
       a = 12.000      CL =  0.6929
      Cm =  0.0164     CD =  0.11202   =>   CDf =  0.00567    CDp =  0.10635

 Side 1  free  transition at x/c =  0.1649   44
 Side 2 forced transition at x/c =  1.0000   69

  12   rms: 0.7075E+00   max: 0.2805E+01   T at   44  1   RLX: 0.318
       a = 12.000      CL =  0.7703
      Cm =  0.0488     CD =  0.07729   =>   CDf =  0.00522    CDp =  0.07207

 MRCHDU: Convergence failed at  46  side 1    Res =  0.9583E+01
 MRCHDU: Convergence failed at  47  side 1    Res =  0.3211E+02
 MRCHDU: Convergence failed at  48  side 1    Res =  0.3558E+02
 MRCHDU: Convergence failed at  49  side 1    Res =  0.6024E+02
 MRCHDU: Convergence failed at  50  side 1    Res =  0.8996E+03
 MRCHDU: Convergence failed at  51  side 1    Res =  0.1107E+03
 MRCHDU: Convergence failed at  52  side 1    Res =  0.5260E+02
 MRCHDU: Convergence failed at  53  side 1    Res =  0.3463E+02
 MRCHDU: Convergence failed at  54  side 1    Res =  0.2801E+02
 MRCHDU: Convergence failed at  55  side 1    Res =  0.2329E+02
 MRCHDU: Convergence failed at  56  side 1    Res =  0.1492E+02
 MRCHDU: Convergence failed at  57  side 1    Res =  0.1781E+02
 MRCHDU: Convergence failed at  58  side 1    Res =  0.2229E+02
 MRCHDU: Convergence failed at  59  side 1    Res =  0.2183E+02
 MRCHDU: Convergence failed at  60  side 1    Res =  0.2839E+02
 MRCHDU: Convergence failed at  61  side 1    Res =  0.2517E+02
 MRCHDU: Convergence failed at  62  side 1    Res =  0.3206E+02
 MRCHDU: Convergence failed at  63  side 1    Res =  0.4164E+02
 MRCHDU: Convergence failed at  64  side 1    Res =  0.2231E+03
 MRCHDU: Convergence failed at  65  side 1    Res =  0.9874E+02
 MRCHDU: Convergence failed at  66  side 1    Res =  0.1877E+03
 MRCHDU: Convergence failed at  67  side 1    Res =  0.9465E+03
 MRCHDU: Convergence failed at  68  side 1    Res =  0.4357E+02
 MRCHDU: Convergence failed at  69  side 1    Res =  0.7385E+02
 MRCHDU: Convergence failed at  70  side 1    Res =  0.5530E+02
 MRCHDU: Convergence failed at  71  side 1    Res =  0.3500E+02
 MRCHDU: Convergence failed at  72  side 1    Res =  0.4901E+02
 MRCHDU: Convergence failed at  73  side 1    Res =  0.5745E+02
 MRCHDU: Convergence failed at  74  side 1    Res =  0.2609E+02
 MRCHDU: Convergence failed at  75  side 1    Res =  0.2649E+02
 MRCHDU: Convergence failed at  76  side 1    Res =  0.1970E+02
 MRCHDU: Convergence failed at  77  side 1    Res =  0.2202E+02
 MRCHDU: Convergence failed at  78  side 1    Res =  0.2952E+02
 MRCHDU: Convergence failed at  79  side 1    Res =  0.3331E+02
 MRCHDU: Convergence failed at  80  side 1    Res =  0.6533E+02
 MRCHDU: Convergence failed at  81  side 1    Res =  0.1265E+03
 MRCHDU: Convergence failed at  82  side 1    Res =  0.1503E+03
 MRCHDU: Convergence failed at  83  side 1    Res =  0.1928E+03
 MRCHDU: Convergence failed at  84  side 1    Res =  0.2676E+03
 MRCHDU: Convergence failed at  85  side 1    Res =  0.3829E+03
 MRCHDU: Convergence failed at  86  side 1    Res =  0.8285E+05
 MRCHDU: Convergence failed at  87  side 1    Res =  0.1110E+04
 MRCHDU: Convergence failed at  88  side 1    Res =  0.5835E+03
 MRCHDU: Convergence failed at  89  side 1    Res =  0.5070E+03
 MRCHDU: Convergence failed at  90  side 1    Res =  0.2689E+03
 MRCHDU: Convergence failed at  91  side 1    Res =  0.3547E+03
 MRCHDU: Convergence failed at  92  side 1    Res =  0.5132E+03
 MRCHDU: Convergence failed at  93  side 1    Res =  0.8625E+03
 MRCHDU: Convergence failed at  94  side 1    Res =  0.8921E+03
 MRCHDU: Convergence failed at  80  side 2    Res =  0.5598E+01
 MRCHDU: Convergence failed at  81  side 2    Res =  0.8147E+01
 Side 1  free  transition at x/c =  0.1739   46
 Side 2 forced transition at x/c =  1.0000   68

  13   rms: 0.2295E+01   max: 0.1090E+02   D at   78  2   RLX: 0.138
       a = 12.000      CL =  1.8072
      Cm = -0.3546     CD =  0.01432   =>   CDf =  0.00512    CDp =  0.00919

 MRCHDU: Convergence failed at  78  side 2    Res =  0.4557E+01
 MRCHDU: Convergence failed at  79  side 2    Res =  0.3035E+01
 Side 1  free  transition at x/c =  0.1713   45
 Side 2 forced transition at x/c =  1.0000   68

  14   rms: 0.5221E+00   max: 0.2675E+01   T at   46  1   RLX: 0.319
       a = 12.000      CL =  1.1692
      Cm = -0.0977     CD =  0.09020   =>   CDf =  0.00554    CDp =  0.08466

 Side 1  free  transition at x/c =  0.1798   46
 Side 2 forced transition at x/c =  1.0000   68

  15   rms: 0.2569E+00   max: 0.1682E+01   D at   46  1   RLX: 0.892
       a = 12.000      CL =  0.8042
      Cm =  0.0263     CD =  0.07792   =>   CDf =  0.00570    CDp =  0.07222

 Side 1  free  transition at x/c =  0.1715   46
 Side 2 forced transition at x/c =  1.0000   68

  16   rms: 0.1881E+00   max: 0.5745E+00   T at   46  1   RLX: 0.897
       a = 12.000      CL =  0.8524
      Cm =  0.0397     CD =  0.07562   =>   CDf =  0.00561    CDp =  0.07002

 Side 1  free  transition at x/c =  0.1704   45
 Side 2 forced transition at x/c =  1.0000   68

  17   rms: 0.6081E+00   max: 0.9713E+00   T at   80  2   RLX: 0.529
       a = 12.000      CL =  1.1333
      Cm =  0.0399     CD =  0.04400   =>   CDf =  0.00675    CDp =  0.03725

 Side 1  free  transition at x/c =  0.1661   48
 Side 2 forced transition at x/c =  1.0000   65

  18   rms: 0.6537E+00   max: 0.1031E+02   T at    2  1   RLX: 0.105
       a = 12.000      CL =  1.1552
      Cm =  0.0396     CD =  0.04885   =>   CDf =  0.00663    CDp =  0.04222

 Side 1  free  transition at x/c =  0.1657   48
 Side 2 forced transition at x/c =  1.0000   65

  19   rms: 0.1790E+00   max: 0.9542E+00   D at   83  1
       a = 12.000      CL =  1.2466
      Cm =  0.0409     CD =  0.05260   =>   CDf =  0.00647    CDp =  0.04612

 MRCHDU: Convergence failed at  80  side 1    Res =  0.9291E+00
 MRCHDU: Convergence failed at  81  side 1    Res =  0.1010E+01
 MRCHDU: Convergence failed at  82  side 1    Res =  0.1102E+01
 MRCHDU: Convergence failed at  83  side 1    Res =  0.1478E+01
 MRCHDU: Convergence failed at  84  side 1    Res =  0.1361E+01
 MRCHDU: Convergence failed at  85  side 1    Res =  0.1409E+01
 MRCHDU: Convergence failed at  86  side 1    Res =  0.1540E+01
 MRCHDU: Convergence failed at  87  side 1    Res =  0.1822E+01
 MRCHDU: Convergence failed at  88  side 1    Res =  0.1999E+01
 MRCHDU: Convergence failed at  89  side 1    Res =  0.2222E+01
 MRCHDU: Convergence failed at  90  side 1    Res =  0.2467E+01
 MRCHDU: Convergence failed at  91  side 1    Res =  0.2762E+01
 MRCHDU: Convergence failed at  92  side 1    Res =  0.3123E+01
 MRCHDU: Convergence failed at  93  side 1    Res =  0.3511E+01
 MRCHDU: Convergence failed at  94  side 1    Res =  0.4039E+01
 MRCHDU: Convergence failed at  95  side 1    Res =  0.4606E+01
 MRCHDU: Convergence failed at  96  side 1    Res =  0.5390E+01
 MRCHDU: Convergence failed at  97  side 1    Res =  0.7023E+01
 Side 1  free  transition at x/c =  0.1656   48
 Side 2 forced transition at x/c =  1.0000   65
 idif Ue xi dudx           1  0.12320288      5.49030304E-03   22.440088    
 Uenew xinew           2  4.31060307E-02  1.92093849E-03

  20   rms: 0.1700E+01   max: 0.4655E+01   D at   66  1   RLX: 0.262
       a = 12.000      CL =  1.1584
      Cm = -0.0264     CD =  0.06667   =>   CDf =  0.00553    CDp =  0.06114

 Side 1  free  transition at x/c =  0.1590   47
 Side 2 forced transition at x/c =  1.0000   66
 idif Ue xi dudx           2  0.23840165      9.01007652E-03   26.459448    
 Uenew xinew           3  0.15211503      5.74898720E-03

  21   rms: 0.1306E+01   max: 0.3124E+01   D at   64  1   RLX: 0.312
       a = 12.000      CL =  0.8760
      Cm = -0.0242     CD =  0.10638   =>   CDf =  0.00552    CDp =  0.10086

 Side 1  free  transition at x/c =  0.1616   45
 Side 2 forced transition at x/c =  1.0000   68

  22   rms: 0.5641E+00   max: 0.2563E+01   D at   93  1   RLX: 0.482
       a = 12.000      CL =  1.0899
      Cm = -0.0301     CD =  0.08436   =>   CDf =  0.00495    CDp =  0.07941

 MRCHDU: Convergence failed at  95  side 1    Res =  0.1646E+01
 MRCHDU: Convergence failed at  96  side 1    Res =  0.2756E+01
 Side 1  free  transition at x/c =  0.1554   46
 Side 2 forced transition at x/c =  1.0000   66
 idif Ue xi dudx           1  0.15898579      5.70690632E-03   27.858490    
 Uenew xinew           2  6.81367666E-02  2.44581699E-03

  23   rms: 0.4243E+00   max: 0.1668E+01   D at   96  1   RLX: 0.392
       a = 12.000      CL =  0.9732
      Cm = -0.0220     CD =  0.09295   =>   CDf =  0.00509    CDp =  0.08786

 Side 1  free  transition at x/c =  0.1569   45
 Side 2 forced transition at x/c =  1.0000   67
 idif Ue xi dudx           1  0.17610650      5.64134121E-03   31.217133    
 Uenew xinew           2  8.14868882E-02  2.61032581E-03

  24   rms: 0.1643E+00   max: -.5426E+00   D at   45  1   RLX: 0.921
       a = 12.000      CL =  0.7750
      Cm =  0.0351     CD =  0.09244   =>   CDf =  0.00520    CDp =  0.08724

 Side 1  free  transition at x/c =  0.1666   45
 Side 2 forced transition at x/c =  1.0000   68

  25   rms: 0.7940E+00   max: -.1170E+01   D at   81  2   RLX: 0.414
       a = 12.000      CL =  1.0653
      Cm =  0.0309     CD =  0.03335   =>   CDf =  0.00840    CDp =  0.02495

 Side 1  free  transition at x/c =  0.1658   47
 Side 2 forced transition at x/c =  1.0000   66

  26   rms: 0.7392E+00   max: 0.1586E+01   T at   67  2   RLX: 0.442
       a = 12.000      CL =  1.4201
      Cm = -0.0119     CD =  0.04101   =>   CDf =  0.00733    CDp =  0.03368

 MRCHDU: Convergence failed at  90  side 1    Res =  0.1051E+01
 MRCHDU: Convergence failed at  91  side 1    Res =  0.1354E+01
 MRCHDU: Convergence failed at  92  side 1    Res =  0.1849E+01
 MRCHDU: Convergence failed at  93  side 1    Res =  0.2381E+01
 MRCHDU: Convergence failed at  94  side 1    Res =  0.2851E+01
 MRCHDU: Convergence failed at  95  side 1    Res =  0.3160E+01
 MRCHDU: Convergence failed at  96  side 1    Res =  0.3152E+01
 MRCHDU: Convergence failed at  97  side 1    Res =  0.2870E+01
 MRCHDU: Convergence failed at  98  side 1    Res =  0.2878E+01
 Side 1  free  transition at x/c =  0.1603   49
 Side 2 forced transition at x/c =  1.0000   64

  27   rms: 0.3701E+00   max: 0.1339E+01   D at   67  2
       a = 12.000      CL =  1.4873
      Cm =  0.0022     CD =  0.03354   =>   CDf =  0.00657    CDp =  0.02697

 MRCHDU: Convergence failed at  90  side 1    Res =  0.3328E+01
 MRCHDU: Convergence failed at  91  side 1    Res =  0.3050E+01
 MRCHDU: Convergence failed at  92  side 1    Res =  0.2904E+01
 MRCHDU: Convergence failed at  93  side 1    Res =  0.2903E+01
 MRCHDU: Convergence failed at  94  side 1    Res =  0.2931E+01
 MRCHDU: Convergence failed at  95  side 1    Res =  0.3014E+01
 MRCHDU: Convergence failed at  96  side 1    Res =  0.3141E+01
 MRCHDU: Convergence failed at  97  side 1    Res =  0.3322E+01
 MRCHDU: Convergence failed at  98  side 1    Res =  0.3574E+01
 MRCHDU: Convergence failed at  99  side 1    Res =  0.4410E+01
 Side 1  free  transition at x/c =  0.1614   50
 Side 2 forced transition at x/c =  1.0000   63
 idif Ue xi dudx           1  0.11683640      7.68530369E-03   15.202574    
 Uenew xinew           2  4.77882214E-02  3.14342976E-03

  28   rms: 0.5942E+00   max: 0.1494E+01   D at   75  2   RLX: 0.344
       a = 12.000      CL =  1.3383
      Cm = -0.0029     CD =  0.04238   =>   CDf =  0.00533    CDp =  0.03705

 Side 1  free  transition at x/c =  0.1621   49
 Side 2 forced transition at x/c =  1.0000   64

  29   rms: 0.2184E+01   max: -.5468E+01   D at   70  1   RLX: 0.091
       a = 12.000      CL =  1.4680
      Cm =  0.0033     CD =  0.03079   =>   CDf =  0.00466    CDp =  0.02613

 Side 1  free  transition at x/c =  0.1649   50
 Side 2 forced transition at x/c =  1.0000   63
 idif Ue xi dudx           2  0.15434156      9.88852978E-03   15.608141    
 Uenew xinew           3  8.34513605E-02  5.34665585E-03

  30   rms: 0.4565E+00   max: 0.1224E+01   D at   65  2   RLX: 0.559
       a = 12.000      CL =  1.2373
      Cm =  0.0221     CD =  0.04662   =>   CDf =  0.00593    CDp =  0.04069

 Side 1  free  transition at x/c =  0.1661   48
 Side 2 forced transition at x/c =  1.0000   65

  31   rms: 0.2465E+00   max: -.8549E+00   D at   67  1   RLX: 0.585
       a = 12.000      CL =  1.2592
      Cm =  0.0439     CD =  0.03896   =>   CDf =  0.00496    CDp =  0.03400

 Side 1  free  transition at x/c =  0.1708   49
 Side 2 forced transition at x/c =  1.0000   64
 idif Ue xi dudx           1  6.90633133E-02  4.14633751E-03   16.656462    
 Uenew xinew           2  2.67063873E-03  1.60336494E-04

  32   rms: 0.6571E+00   max: -.1070E+02   T at    2  1   RLX: 0.047
       a = 12.000      CL =  1.2707
      Cm =  0.0331     CD =  0.04425   =>   CDf =  0.00603    CDp =  0.03822

 Side 1  free  transition at x/c =  0.1707   48
 Side 2 forced transition at x/c =  1.0000   65

  33   rms: 0.4274E+00   max: -.6215E+01   T at    2  2   RLX: 0.080
       a = 12.000      CL =  1.2526
      Cm =  0.0345     CD =  0.04535   =>   CDf =  0.00571    CDp =  0.03964

 Side 1  free  transition at x/c =  0.1706   48
 Side 2 forced transition at x/c =  1.0000   65
 idif Ue xi dudx           1  0.12554339      5.56123257E-03   22.574741    
 Uenew xinew           2  4.49659042E-02  1.99186802E-03

  34   rms: 0.2210E+00   max: 0.6024E+00   D at   67  2
       a = 12.000      CL =  1.0332
      Cm =  0.0538     CD =  0.05914   =>   CDf =  0.00598    CDp =  0.05316

 Side 1  free  transition at x/c =  0.1700   47
 Side 2 forced transition at x/c =  1.0000   66

  35   rms: 0.3514E-01   max: -.1428E+00   D at   63  1
       a = 12.000      CL =  1.0432
      Cm =  0.0558     CD =  0.05640   =>   CDf =  0.00553    CDp =  0.05087

 Side 1  free  transition at x/c =  0.1710   47
 Side 2 forced transition at x/c =  1.0000   66

  36   rms: 0.9558E-01   max: -.2544E+00   D at   69  1
       a = 12.000      CL =  1.1126
      Cm =  0.0568     CD =  0.05003   =>   CDf =  0.00536    CDp =  0.04467

 Side 1  free  transition at x/c =  0.1710   48
 Side 2 forced transition at x/c =  1.0000   65
 idif Ue xi dudx           1  0.11045381      4.83047962E-03   22.866014    
 Uenew xinew           2  2.88366750E-02  1.26111507E-03

  37   rms: 0.7611E-01   max: -.3705E+00   D at    2  1
       a = 12.000      CL =  1.0546
      Cm =  0.0565     CD =  0.05646   =>   CDf =  0.00608    CDp =  0.05038

 Side 1  free  transition at x/c =  0.1708   47
 Side 2 forced transition at x/c =  1.0000   66

  38   rms: 0.1701E+00   max: -.4356E+00   D at   70  1
       a = 12.000      CL =  1.1830
      Cm =  0.0570     CD =  0.04399   =>   CDf =  0.00537    CDp =  0.03862

 Side 1  free  transition at x/c =  0.1712   48
 Side 2 forced transition at x/c =  1.0000   65
 idif Ue xi dudx           1  8.76461789E-02  3.84485722E-03   22.795691    
 Uenew xinew           2  6.28004549E-03  2.75492668E-04

  39   rms: 0.1117E+00   max: 0.2776E+00   D at   93  1
       a = 12.000      CL =  1.0953
      Cm =  0.0542     CD =  0.05485   =>   CDf =  0.00624    CDp =  0.04862

 Side 1  free  transition at x/c =  0.1705   47
 Side 2 forced transition at x/c =  1.0000   66

  40   rms: 0.2058E+00   max: -.8680E+00   T at    2  2   RLX: 0.576
       a = 12.000      CL =  1.0101
      Cm =  0.0542     CD =  0.06017   =>   CDf =  0.00563    CDp =  0.05454

 Side 1  free  transition at x/c =  0.1706   47
 Side 2 forced transition at x/c =  1.0000   66

  41   rms: 0.5181E-01   max: -.1620E+00   D at   65  1
       a = 12.000      CL =  1.0455
      Cm =  0.0557     CD =  0.05594   =>   CDf =  0.00556    CDp =  0.05038

 Side 1  free  transition at x/c =  0.1709   47
 Side 2 forced transition at x/c =  1.0000   66

  42   rms: 0.1135E+00   max: -.2950E+00   D at   69  1
       a = 12.000      CL =  1.1289
      Cm =  0.0569     CD =  0.04858   =>   CDf =  0.00537    CDp =  0.04322

 Side 1  free  transition at x/c =  0.1710   48
 Side 2 forced transition at x/c =  1.0000   65
 idif Ue xi dudx           1  0.10205596      4.47285175E-03   22.816753    
 Uenew xinew           2  2.06146445E-02  9.03487206E-04

  43   rms: 0.7364E-01   max: 0.1904E+00   D at   87  1
       a = 12.000      CL =  1.0685
      Cm =  0.0568     CD =  0.05530   =>   CDf =  0.00612    CDp =  0.04918

 Side 1  free  transition at x/c =  0.1708   47
 Side 2 forced transition at x/c =  1.0000   66
 idif Ue xi dudx           2  0.22002856      8.18359852E-03   26.886530    
 Uenew xinew           3  0.13234919      4.92250919E-03

  44   rms: 0.4936E+00   max: 0.1191E+01   D at   78  1   RLX: 0.837
       a = 12.000      CL =  0.7703
      Cm =  0.0544     CD =  0.08275   =>   CDf =  0.00623    CDp =  0.07652

 Side 1  free  transition at x/c =  0.1708   45
 Side 2 forced transition at x/c =  1.0000   68

  45   rms: 0.2415E+00   max: -.6064E+00   D at   85  2   RLX: 0.825
       a = 12.000      CL =  0.9473
      Cm =  0.0571     CD =  0.05998   =>   CDf =  0.00551    CDp =  0.05447

 Side 1  free  transition at x/c =  0.1713   46
 Side 2 forced transition at x/c =  1.0000   67

  46   rms: 0.1386E+00   max: -.4552E+00   D at   83  2
       a = 12.000      CL =  1.0599
      Cm =  0.0556     CD =  0.05240   =>   CDf =  0.00548    CDp =  0.04693

 Side 1  free  transition at x/c =  0.1710   47
 Side 2 forced transition at x/c =  1.0000   66

  47   rms: 0.1854E+01   max: -.4688E+01   D at   70  1   RLX: 0.107
       a = 12.000      CL =  1.2059
      Cm =  0.0592     CD =  0.04306   =>   CDf =  0.00544    CDp =  0.03762

 Side 1  free  transition at x/c =  0.1714   48
 Side 2 forced transition at x/c =  1.0000   65

  48   rms: 0.1149E+00   max: 0.2867E+00   D at   95  1
       a = 12.000      CL =  1.1205
      Cm =  0.0528     CD =  0.05351   =>   CDf =  0.00612    CDp =  0.04739

 Side 1  free  transition at x/c =  0.1705   48
 Side 2 forced transition at x/c =  1.0000   65
 idif Ue xi dudx           1  0.11921860      5.26285172E-03   22.652853    
 Uenew xinew           2  3.83623168E-02  1.69348717E-03

  49   rms: 0.9644E-01   max: 0.2748E+00   D at   94  1
       a = 12.000      CL =  1.0389
      Cm =  0.0578     CD =  0.05704   =>   CDf =  0.00592    CDp =  0.05111

 Side 1  free  transition at x/c =  0.1708   47
 Side 2 forced transition at x/c =  1.0000   66

  50   rms: 0.1055E+00   max: -.2605E+00   D at   71  1
       a = 12.000      CL =  1.1213
      Cm =  0.0568     CD =  0.04931   =>   CDf =  0.00539    CDp =  0.04392

 Side 1  free  transition at x/c =  0.1710   48
 Side 2 forced transition at x/c =  1.0000   65
 idif Ue xi dudx           1  0.10475111      4.58705425E-03   22.836248    
 Uenew xinew           2  2.32402142E-02  1.01768970E-03

  51   rms: 0.7212E-01   max: 0.1909E+00   D at   86  1
       a = 12.000      CL =  1.0641
      Cm =  0.0567     CD =  0.05569   =>   CDf =  0.00611    CDp =  0.04957

 Side 1  free  transition at x/c =  0.1708   47
 Side 2 forced transition at x/c =  1.0000   66

  52   rms: 0.1271E+01   max: -.3134E+01   D at   71  1   RLX: 0.160
       a = 12.000      CL =  1.2196
      Cm =  0.0559     CD =  0.04135   =>   CDf =  0.00539    CDp =  0.03596

 Side 1  free  transition at x/c =  0.1713   48
 Side 2 forced transition at x/c =  1.0000   65

  53   rms: 0.1316E+00   max: 0.3740E+00   D at   67  2
       a = 12.000      CL =  1.1153
      Cm =  0.0524     CD =  0.05383   =>   CDf =  0.00601    CDp =  0.04782

 Side 1  free  transition at x/c =  0.1704   48
 Side 2 forced transition at x/c =  1.0000   65
 idif Ue xi dudx           1  0.12774304      5.66685200E-03   22.542150    
 Uenew xinew           2  4.72818762E-02  2.09748745E-03

  54   rms: 0.1076E+00   max: 0.2981E+00   D at   93  1
       a = 12.000      CL =  1.0244
      Cm =  0.0578     CD =  0.05823   =>   CDf =  0.00590    CDp =  0.05232

 Side 1  free  transition at x/c =  0.1709   47
 Side 2 forced transition at x/c =  1.0000   66

  55   rms: 0.7500E-01   max: -.1836E+00   D at   69  1
       a = 12.000      CL =  1.0844
      Cm =  0.0564     CD =  0.05257   =>   CDf =  0.00564    CDp =  0.04692

 Side 1  free  transition at x/c =  0.1710   47
 Side 2 forced transition at x/c =  1.0000   66

  56   rms: 0.1021E+00   max: 0.2664E+00   D at   81  1
       a = 12.000      CL =  1.0074
      Cm =  0.0559     CD =  0.06062   =>   CDf =  0.00574    CDp =  0.05487

 Side 1  free  transition at x/c =  0.1707   47
 Side 2 forced transition at x/c =  1.0000   66

  57   rms: 0.5794E-01   max: -.1671E+00   D at   66  1
       a = 12.000      CL =  1.0524
      Cm =  0.0558     CD =  0.05530   =>   CDf =  0.00557    CDp =  0.04973

 Side 1  free  transition at x/c =  0.1709   47
 Side 2 forced transition at x/c =  1.0000   66

  58   rms: 0.1743E+00   max: -.4454E+00   D at   70  1
       a = 12.000      CL =  1.1815
      Cm =  0.0575     CD =  0.04384   =>   CDf =  0.00538    CDp =  0.03846

 Side 1  free  transition at x/c =  0.1712   48
 Side 2 forced transition at x/c =  1.0000   65
 idif Ue xi dudx           1  8.74696970E-02  3.83961201E-03   22.780869    
 Uenew xinew           2  6.15647202E-03  2.70247459E-04

  59   rms: 0.1095E+00   max: 0.2756E+00   D at   92  1
       a = 12.000      CL =  1.0953
      Cm =  0.0543     CD =  0.05489   =>   CDf =  0.00625    CDp =  0.04865

 Side 1  free  transition at x/c =  0.1705   47
 Side 2 forced transition at x/c =  1.0000   66

  60   rms: 0.2047E+00   max: -.8732E+00   T at    2  2   RLX: 0.573
       a = 12.000      CL =  1.0112
      Cm =  0.0542     CD =  0.06009   =>   CDf =  0.00563    CDp =  0.05446

 Side 1  free  transition at x/c =  0.1706   47
 Side 2 forced transition at x/c =  1.0000   66

  61   rms: 0.5145E-01   max: -.1615E+00   D at   65  1
       a = 12.000      CL =  1.0461
      Cm =  0.0557     CD =  0.05589   =>   CDf =  0.00556    CDp =  0.05033

 Side 1  free  transition at x/c =  0.1709   47
 Side 2 forced transition at x/c =  1.0000   66

  62   rms: 0.1164E+00   max: -.3025E+00   D at   69  1
       a = 12.000      CL =  1.1318
      Cm =  0.0569     CD =  0.04832   =>   CDf =  0.00537    CDp =  0.04295

 Side 1  free  transition at x/c =  0.1710   48
 Side 2 forced transition at x/c =  1.0000   65
 idif Ue xi dudx           1  0.10073774      4.41622734E-03   22.810812    
 Uenew xinew           2  1.93176288E-02  8.46862793E-04

  63   rms: 0.7404E-01   max: 0.1916E+00   D at   87  1
       a = 12.000      CL =  1.0707
      Cm =  0.0568     CD =  0.05510   =>   CDf =  0.00613    CDp =  0.04898

 Side 1  free  transition at x/c =  0.1708   47
 Side 2 forced transition at x/c =  1.0000   66
 idif Ue xi dudx           2  0.19529086      7.33137131E-03   26.637699    
 Uenew xinew           3  0.10842295      4.07028198E-03

  64   rms: 0.3648E+00   max: 0.8846E+00   D at   82  1
       a = 12.000      CL =  0.8071
      Cm =  0.0549     CD =  0.07926   =>   CDf =  0.00624    CDp =  0.07302

 Side 1  free  transition at x/c =  0.1707   45
 Side 2 forced transition at x/c =  1.0000   68

  65   rms: 0.2074E+00   max: 0.5669E+00   D at    2  2   RLX: 0.971
       a = 12.000      CL =  0.9863
      Cm =  0.0541     CD =  0.05686   =>   CDf =  0.00521    CDp =  0.05165

 Side 1  free  transition at x/c =  0.1713   47
 Side 2 forced transition at x/c =  1.0000   66

  66   rms: 0.1551E+00   max: 0.1721E+01   D at    2  1   RLX: 0.605
       a = 12.000      CL =  1.0324
      Cm =  0.0593     CD =  0.05701   =>   CDf =  0.00570    CDp =  0.05130

 Side 1  free  transition at x/c =  0.1711   47
 Side 2 forced transition at x/c =  1.0000   66

  67   rms: 0.1577E+00   max: -.4127E+00   D at   72  1
       a = 12.000      CL =  1.1552
      Cm =  0.0576     CD =  0.04548   =>   CDf =  0.00543    CDp =  0.04005

 Side 1  free  transition at x/c =  0.1711   48
 Side 2 forced transition at x/c =  1.0000   65
 idif Ue xi dudx           1  9.15241614E-02  4.01711464E-03   22.783558    
 Uenew xinew           2  1.02013405E-02  4.47750092E-04

  68   rms: 0.8069E-01   max: 0.2074E+00   D at   89  1
       a = 12.000      CL =  1.0862
      Cm =  0.0569     CD =  0.05405   =>   CDf =  0.00621    CDp =  0.04784

 Side 1  free  transition at x/c =  0.1708   47
 Side 2 forced transition at x/c =  1.0000   66

  69   rms: 0.1092E+00   max: 0.2962E+00   D at   88  1
       a = 12.000      CL =  1.0070
      Cm =  0.0565     CD =  0.06042   =>   CDf =  0.00572    CDp =  0.05470

 Side 1  free  transition at x/c =  0.1707   47
 Side 2 forced transition at x/c =  1.0000   66

  70   rms: 0.5979E-01   max: -.1651E+00   D at   66  1
       a = 12.000      CL =  1.0546
      Cm =  0.0559     CD =  0.05514   =>   CDf =  0.00558    CDp =  0.04956

 Side 1  free  transition at x/c =  0.1709   47
 Side 2 forced transition at x/c =  1.0000   66

  71   rms: 0.2213E+00   max: -.5605E+00   D at   70  1   RLX: 0.892
       a = 12.000      CL =  1.2015
      Cm =  0.0577     CD =  0.04212   =>   CDf =  0.00539    CDp =  0.03673

 Side 1  free  transition at x/c =  0.1713   48
 Side 2 forced transition at x/c =  1.0000   65
 idif Ue xi dudx           1  8.13360140E-02  3.58152390E-03   22.709890    
 Uenew xinew           2  2.76137464E-04  1.21593475E-05

  72   rms: 0.1209E+00   max: 0.3198E+00   D at   67  2
       a = 12.000      CL =  1.1064
      Cm =  0.0532     CD =  0.05424   =>   CDf =  0.00629    CDp =  0.04795

 Side 1  free  transition at x/c =  0.1705   47
 Side 2 forced transition at x/c =  1.0000   66

  73   rms: 0.6743E+00   max: -.1174E+02   D at    2  2   RLX: 0.043
       a = 12.000      CL =  1.1104
      Cm =  0.0491     CD =  0.05219   =>   CDf =  0.00563    CDp =  0.04657

 Side 1  free  transition at x/c =  0.1705   47
 Side 2 forced transition at x/c =  1.0000   66
 idif Ue xi dudx           1  8.23817179E-02  3.47626209E-03   23.698362    
 Uenew xinew           2  5.09924209E-03  2.15172768E-04

  74   rms: 0.1593E+00   max: 0.4093E+00   D at   90  1
       a = 12.000      CL =  0.9761
      Cm =  0.0572     CD =  0.06257   =>   CDf =  0.00590    CDp =  0.05667

 Side 1  free  transition at x/c =  0.1708   46
 Side 2 forced transition at x/c =  1.0000   67

  75   rms: 0.9426E-01   max: 0.1059E+01   T at    2  2   RLX: 0.974
       a = 12.000      CL =  1.0337
      Cm =  0.0555     CD =  0.05664   =>   CDf =  0.00533    CDp =  0.05131

 Side 1  free  transition at x/c =  0.1710   47
 Side 2 forced transition at x/c =  1.0000   66

  76   rms: 0.9093E-01   max: -.2245E+00   D at   68  1
       a = 12.000      CL =  1.0997
      Cm =  0.0566     CD =  0.05107   =>   CDf =  0.00564    CDp =  0.04543

 Side 1  free  transition at x/c =  0.1710   47
 Side 2 forced transition at x/c =  1.0000   66

  77   rms: 0.7813E-01   max: 0.2065E+00   D at   82  1
       a = 12.000      CL =  1.0381
      Cm =  0.0563     CD =  0.05780   =>   CDf =  0.00577    CDp =  0.05203

 Side 1  free  transition at x/c =  0.1708   47
 Side 2 forced transition at x/c =  1.0000   66

  78   rms: 0.7426E-01   max: -.2029E+00   D at   69  1
       a = 12.000      CL =  1.0945
      Cm =  0.0564     CD =  0.05182   =>   CDf =  0.00562    CDp =  0.04620

 Side 1  free  transition at x/c =  0.1710   47
 Side 2 forced transition at x/c =  1.0000   66

  79   rms: 0.8110E-01   max: 0.2129E+00   D at   82  1
       a = 12.000      CL =  1.0321
      Cm =  0.0562     CD =  0.05835   =>   CDf =  0.00576    CDp =  0.05259

 Side 1  free  transition at x/c =  0.1708   47
 Side 2 forced transition at x/c =  1.0000   66

  80   rms: 0.6528E-01   max: -.1815E+00   D at   68  1
       a = 12.000      CL =  1.0817
      Cm =  0.0562     CD =  0.05292   =>   CDf =  0.00561    CDp =  0.04732

 Side 1  free  transition at x/c =  0.1710   47
 Side 2 forced transition at x/c =  1.0000   66

  81   rms: 0.1184E+00   max: 0.3023E+00   D at   80  1
       a = 12.000      CL =  0.9931
      Cm =  0.0557     CD =  0.06196   =>   CDf =  0.00573    CDp =  0.05623

 Side 1  free  transition at x/c =  0.1707   47
 Side 2 forced transition at x/c =  1.0000   66

  82   rms: 0.6088E-01   max: -.1742E+00   D at   64  1
       a = 12.000      CL =  1.0411
      Cm =  0.0555     CD =  0.05621   =>   CDf =  0.00556    CDp =  0.05065

 Side 1  free  transition at x/c =  0.1709   47
 Side 2 forced transition at x/c =  1.0000   66

  83   rms: 0.9568E-01   max: -.2499E+00   D at   68  1
       a = 12.000      CL =  1.1108
      Cm =  0.0567     CD =  0.05018   =>   CDf =  0.00536    CDp =  0.04482

 Side 1  free  transition at x/c =  0.1710   48
 Side 2 forced transition at x/c =  1.0000   65
 idif Ue xi dudx           1  0.11181881      4.88364697E-03   22.896578    
 Uenew xinew           2  3.00925691E-02  1.31428242E-03

  84   rms: 0.7853E-01   max: -.4772E+00   T at    2  1
       a = 12.000      CL =  1.0524
      Cm =  0.0564     CD =  0.05666   =>   CDf =  0.00607    CDp =  0.05059

 Side 1  free  transition at x/c =  0.1708   47
 Side 2 forced transition at x/c =  1.0000   66

  85   rms: 0.1354E+00   max: -.3517E+00   D at   70  1
       a = 12.000      CL =  1.1543
      Cm =  0.0569     CD =  0.04652   =>   CDf =  0.00537    CDp =  0.04115

 Side 1  free  transition at x/c =  0.1711   48
 Side 2 forced transition at x/c =  1.0000   65
 idif Ue xi dudx           1  9.25267711E-02  4.05764580E-03   22.803068    
 Uenew xinew           2  1.11343106E-02  4.88281250E-04

  86   rms: 0.8217E-01   max: 0.2043E+00   D at   89  1
       a = 12.000      CL =  1.0846
      Cm =  0.0570     CD =  0.05416   =>   CDf =  0.00618    CDp =  0.04798

 Side 1  free  transition at x/c =  0.1708   47
 Side 2 forced transition at x/c =  1.0000   66

  87   rms: 0.1111E+00   max: 0.2977E+00   D at   88  1
       a = 12.000      CL =  1.0042
      Cm =  0.0564     CD =  0.06068   =>   CDf =  0.00572    CDp =  0.05496

 Side 1  free  transition at x/c =  0.1707   47
 Side 2 forced transition at x/c =  1.0000   66

  88   rms: 0.6015E-01   max: -.1666E+00   D at   66  1
       a = 12.000      CL =  1.0522
      Cm =  0.0558     CD =  0.05533   =>   CDf =  0.00558    CDp =  0.04975

 Side 1  free  transition at x/c =  0.1709   47
 Side 2 forced transition at x/c =  1.0000   66

  89   rms: 0.1790E+00   max: -.4554E+00   D at   70  1
       a = 12.000      CL =  1.1850
      Cm =  0.0575     CD =  0.04352   =>   CDf =  0.00538    CDp =  0.03813

 Side 1  free  transition at x/c =  0.1712   48
 Side 2 forced transition at x/c =  1.0000   65
 idif Ue xi dudx           1  8.65379348E-02  3.80396843E-03   22.749384    
 Uenew xinew           2  5.33709396E-03  2.34603882E-04

  90   rms: 0.1114E+00   max: 0.2806E+00   D at   93  1
       a = 12.000      CL =  1.0968
      Cm =  0.0542     CD =  0.05468   =>   CDf =  0.00625    CDp =  0.04843

 Side 1  free  transition at x/c =  0.1705   47
 Side 2 forced transition at x/c =  1.0000   66

  91   rms: 0.1837E+00   max: -.9247E+00   T at    2  2   RLX: 0.541
       a = 12.000      CL =  1.0269
      Cm =  0.0539     CD =  0.05873   =>   CDf =  0.00563    CDp =  0.05310

 Side 1  free  transition at x/c =  0.1706   47
 Side 2 forced transition at x/c =  1.0000   66

  92   rms: 0.4825E-01   max: -.1562E+00   D at   67  1
       a = 12.000      CL =  1.0578
      Cm =  0.0560     CD =  0.05496   =>   CDf =  0.00557    CDp =  0.04940

 Side 1  free  transition at x/c =  0.1709   47
 Side 2 forced transition at x/c =  1.0000   66

  93   rms: 0.3047E+00   max: -.7711E+00   D at   71  1   RLX: 0.648
       a = 12.000      CL =  1.2055
      Cm =  0.0575     CD =  0.04198   =>   CDf =  0.00539    CDp =  0.03659

 Side 1  free  transition at x/c =  0.1713   48
 Side 2 forced transition at x/c =  1.0000   65

  94   rms: 0.1217E+00   max: 0.3268E+00   D at   67  2
       a = 12.000      CL =  1.1097
      Cm =  0.0530     CD =  0.05405   =>   CDf =  0.00600    CDp =  0.04805

 Side 1  free  transition at x/c =  0.1705   48
 Side 2 forced transition at x/c =  1.0000   65
 idif Ue xi dudx           1  0.13320732      5.90658188E-03   22.552353    
 Uenew xinew           2  5.27097508E-02  2.33721733E-03

  95   rms: 0.1147E+00   max: 0.3135E+00   D at   92  1
       a = 12.000      CL =  1.0155
      Cm =  0.0576     CD =  0.05909   =>   CDf =  0.00591    CDp =  0.05318

 Side 1  free  transition at x/c =  0.1708   47
 Side 2 forced transition at x/c =  1.0000   66

  96   rms: 0.6725E-01   max: -.1663E+00   D at   68  1
       a = 12.000      CL =  1.0697
      Cm =  0.0562     CD =  0.05381   =>   CDf =  0.00563    CDp =  0.04818

 Side 1  free  transition at x/c =  0.1709   47
 Side 2 forced transition at x/c =  1.0000   66
 idif Ue xi dudx           1  0.14866793      5.77592850E-03   25.739227    
 Uenew xinew           2  6.47300184E-02  2.51483917E-03

  97   rms: 0.2617E+00   max: 0.6552E+00   D at   79  1
       a = 12.000      CL =  0.8774
      Cm =  0.0542     CD =  0.07278   =>   CDf =  0.00598    CDp =  0.06680

 Side 1  free  transition at x/c =  0.1707   46
 Side 2 forced transition at x/c =  1.0000   67

  98   rms: 0.1393E+00   max: -.3392E+00   D at   83  2
       a = 12.000      CL =  0.9994
      Cm =  0.0540     CD =  0.05796   =>   CDf =  0.00535    CDp =  0.05261

 Side 1  free  transition at x/c =  0.1711   47
 Side 2 forced transition at x/c =  1.0000   66

  99   rms: 0.9444E-01   max: 0.8563E+00   T at    2  1
       a = 12.000      CL =  1.0555
      Cm =  0.0558     CD =  0.05440   =>   CDf =  0.00561    CDp =  0.04879

 Side 1  free  transition at x/c =  0.1709   47
 Side 2 forced transition at x/c =  1.0000   66

 100   rms: 0.1997E+00   max: -.5089E+00   D at   71  1   RLX: 0.982
       a = 12.000      CL =  1.1997
      Cm =  0.0577     CD =  0.04207   =>   CDf =  0.00539    CDp =  0.03668

 Side 1  free  transition at x/c =  0.1713   48
 Side 2 forced transition at x/c =  1.0000   65
 idif Ue xi dudx           1  8.21224153E-02  3.61585617E-03   22.711748    
 Uenew xinew           2  1.05590606E-03  4.64916229E-05

 101   rms: 0.1205E+00   max: 0.3167E+00   D at   67  2
       a = 12.000      CL =  1.1050
      Cm =  0.0533     CD =  0.05439   =>   CDf =  0.00628    CDp =  0.04811

 Side 1  free  transition at x/c =  0.1704   47
 Side 2 forced transition at x/c =  1.0000   66

 102   rms: 0.2548E+00   max: -.3768E+01   T at    2  2   RLX: 0.133
       a = 12.000      CL =  1.0983
      Cm =  0.0499     CD =  0.05310   =>   CDf =  0.00562    CDp =  0.04748

 Side 1  free  transition at x/c =  0.1705   47
 Side 2 forced transition at x/c =  1.0000   66
 idif Ue xi dudx           2  0.20825028      7.76624680E-03   26.814791    
 Uenew xinew           3  0.12080485      4.50515747E-03

 103   rms: 0.8679E+00   max: 0.2022E+01   D at   80  1   RLX: 0.473
       a = 12.000      CL =  0.7929
      Cm =  0.0525     CD =  0.07943   =>   CDf =  0.00616    CDp =  0.07327

 Side 1  free  transition at x/c =  0.1708   45
 Side 2 forced transition at x/c =  1.0000   68

 104   rms: 0.2227E+00   max: -.5800E+00   D at   85  2   RLX: 0.862
       a = 12.000      CL =  0.9581
      Cm =  0.0560     CD =  0.05934   =>   CDf =  0.00551    CDp =  0.05384

 Side 1  free  transition at x/c =  0.1712   46
 Side 2 forced transition at x/c =  1.0000   67

 105   rms: 0.1243E+00   max: -.4231E+00   D at   83  2
       a = 12.000      CL =  1.0556
      Cm =  0.0556     CD =  0.05316   =>   CDf =  0.00545    CDp =  0.04771

 Side 1  free  transition at x/c =  0.1709   47
 Side 2 forced transition at x/c =  1.0000   66

 106   rms: 0.2130E+00   max: -.5582E+00   D at   71  1   RLX: 0.896
       a = 12.000      CL =  1.1940
      Cm =  0.0578     CD =  0.04252   =>   CDf =  0.00541    CDp =  0.03711

 Side 1  free  transition at x/c =  0.1712   48
 Side 2 forced transition at x/c =  1.0000   65
 idif Ue xi dudx           1  8.35469812E-02  3.67653370E-03   22.724388    
 Uenew xinew           2  2.43535335E-03  1.07169151E-04

 107   rms: 0.1163E+00   max: 0.2974E+00   D at   68  2
       a = 12.000      CL =  1.1024
      Cm =  0.0536     CD =  0.05449   =>   CDf =  0.00628    CDp =  0.04821

 Side 1  free  transition at x/c =  0.1705   47
 Side 2 forced transition at x/c =  1.0000   66

 108   rms: 0.1742E+00   max: -.1756E+01   D at    2  2   RLX: 0.285
       a = 12.000      CL =  1.0768
      Cm =  0.0514     CD =  0.05474   =>   CDf =  0.00562    CDp =  0.04912

 Side 1  free  transition at x/c =  0.1705   47
 Side 2 forced transition at x/c =  1.0000   66

 109   rms: 0.1090E+00   max: -.3231E+00   D at   69  1
       a = 12.000      CL =  1.1460
      Cm =  0.0567     CD =  0.04765   =>   CDf =  0.00531    CDp =  0.04233

 Side 1  free  transition at x/c =  0.1711   48
 Side 2 forced transition at x/c =  1.0000   65
 idif Ue xi dudx           1  9.60786492E-02  4.21488285E-03   22.795094    
 Uenew xinew           2  1.47146499E-02  6.45518303E-04

 110   rms: 0.8051E-01   max: 0.2017E+00   D at   89  1
       a = 12.000      CL =  1.0783
      Cm =  0.0572     CD =  0.05445   =>   CDf =  0.00614    CDp =  0.04832

 Side 1  free  transition at x/c =  0.1708   47
 Side 2 forced transition at x/c =  1.0000   66
 idif Ue xi dudx           1  8.14868957E-02  3.44204903E-03   23.673950    
 Uenew xinew           2  4.28403076E-03  1.80959702E-04

 111   rms: 0.1387E+00   max: 0.3606E+00   D at   87  1
       a = 12.000      CL =  0.9781
      Cm =  0.0561     CD =  0.06310   =>   CDf =  0.00600    CDp =  0.05710

 Side 1  free  transition at x/c =  0.1707   46
 Side 2 forced transition at x/c =  1.0000   67

 112   rms: 0.9819E-01   max: 0.1216E+01   D at    2  2   RLX: 0.856
       a = 12.000      CL =  1.0271
      Cm =  0.0552     CD =  0.05755   =>   CDf =  0.00530    CDp =  0.05225

 Side 1  free  transition at x/c =  0.1709   47
 Side 2 forced transition at x/c =  1.0000   66

 113   rms: 0.7251E-01   max: -.1855E+00   D at   67  1
       a = 12.000      CL =  1.0786
      Cm =  0.0562     CD =  0.05299   =>   CDf =  0.00562    CDp =  0.04738

 Side 1  free  transition at x/c =  0.1709   47
 Side 2 forced transition at x/c =  1.0000   66
 idif Ue xi dudx           1  8.35637599E-02  3.51691246E-03   23.760546    
 Uenew xinew           2  6.07849751E-03  2.55823135E-04

 114   rms: 0.1374E+00   max: 0.3529E+00   D at   79  1
       a = 12.000      CL =  0.9755
      Cm =  0.0554     CD =  0.06353   =>   CDf =  0.00600    CDp =  0.05753

 Side 1  free  transition at x/c =  0.1707   46
 Side 2 forced transition at x/c =  1.0000   67

 115   rms: 0.8454E-01   max: 0.8370E+00   T at    2  2
       a = 12.000      CL =  1.0311
      Cm =  0.0553     CD =  0.05686   =>   CDf =  0.00529    CDp =  0.05157

 Side 1  free  transition at x/c =  0.1709   47
 Side 2 forced transition at x/c =  1.0000   66

 116   rms: 0.7733E-01   max: -.2025E+00   D at   67  1
       a = 12.000      CL =  1.0862
      Cm =  0.0564     CD =  0.05232   =>   CDf =  0.00562    CDp =  0.04671

 Side 1  free  transition at x/c =  0.1709   47
 Side 2 forced transition at x/c =  1.0000   66

 117   rms: 0.1050E+00   max: 0.2731E+00   D at   80  1
       a = 12.000      CL =  1.0060
      Cm =  0.0558     CD =  0.06072   =>   CDf =  0.00573    CDp =  0.05499

 Side 1  free  transition at x/c =  0.1707   47
 Side 2 forced transition at x/c =  1.0000   66

 118   rms: 0.5834E-01   max: -.1667E+00   D at   66  1
       a = 12.000      CL =  1.0513
      Cm =  0.0558     CD =  0.05539   =>   CDf =  0.00557    CDp =  0.04981

 Side 1  free  transition at x/c =  0.1709   47
 Side 2 forced transition at x/c =  1.0000   66

 119   rms: 0.1678E+00   max: -.4283E+00   D at   70  1
       a = 12.000      CL =  1.1757
      Cm =  0.0574     CD =  0.04439   =>   CDf =  0.00538    CDp =  0.03901

 Side 1  free  transition at x/c =  0.1712   48
 Side 2 forced transition at x/c =  1.0000   65
 idif Ue xi dudx           1  8.87507722E-02  3.89325619E-03   22.796026    
 Uenew xinew           2  7.38344248E-03  3.23891640E-04

 120   rms: 0.1027E+00   max: 0.2575E+00   D at   92  1
       a = 12.000      CL =  1.0924
      Cm =  0.0552     CD =  0.05466   =>   CDf =  0.00623    CDp =  0.04843

 Side 1  free  transition at x/c =  0.1706   47
 Side 2 forced transition at x/c =  1.0000   66
 idif Ue xi dudx           1  7.58208409E-02  3.27634811E-03   23.141876    
 Uenew xinew           2  3.53117008E-04  1.52587891E-05

 121   rms: 0.1703E+00   max: -.5917E+00   D at    2  2   RLX: 0.845
       a = 12.000      CL =  0.9866
      Cm =  0.0560     CD =  0.06216   =>   CDf =  0.00594    CDp =  0.05622

 Side 1  free  transition at x/c =  0.1707   46
 Side 2 forced transition at x/c =  1.0000   67

 122   rms: 0.5873E+00   max: 0.1034E+02   D at    2  2   RLX: 0.115
       a = 12.000      CL =  0.9980
      Cm =  0.0543     CD =  0.06171   =>   CDf =  0.00531    CDp =  0.05641

 Side 1  free  transition at x/c =  0.1707   47
 Side 2 forced transition at x/c =  1.0000   66

 123   rms: 0.2100E+00   max: 0.3462E+01   D at    2  1   RLX: 0.307
       a = 12.000      CL =  1.0116
      Cm =  0.0548     CD =  0.06005   =>   CDf =  0.00558    CDp =  0.05448

 Side 1  free  transition at x/c =  0.1708   47
 Side 2 forced transition at x/c =  1.0000   66

 124   rms: 0.6393E-01   max: -.1640E+00   D at   65  1
       a = 12.000      CL =  1.0570
      Cm =  0.0559     CD =  0.05485   =>   CDf =  0.00559    CDp =  0.04925

 Side 1  free  transition at x/c =  0.1709   47
 Side 2 forced transition at x/c =  1.0000   66

 125   rms: 0.3005E+00   max: -.7576E+00   D at   71  1   RLX: 0.660
       a = 12.000      CL =  1.2050
      Cm =  0.0576     CD =  0.04198   =>   CDf =  0.00539    CDp =  0.03659

 Side 1  free  transition at x/c =  0.1713   48
 Side 2 forced transition at x/c =  1.0000   65

 126   rms: 0.1212E+00   max: 0.3210E+00   D at   67  2
       a = 12.000      CL =  1.1093
      Cm =  0.0531     CD =  0.05407   =>   CDf =  0.00600    CDp =  0.04807

 Side 1  free  transition at x/c =  0.1705   48
 Side 2 forced transition at x/c =  1.0000   65
 idif Ue xi dudx           1  0.13335989      5.91051579E-03   22.563156    
 Uenew xinew           2  5.28237596E-02  2.34115124E-03

 127   rms: 0.1148E+00   max: 0.3134E+00   D at   92  1
       a = 12.000      CL =  1.0153
      Cm =  0.0575     CD =  0.05911   =>   CDf =  0.00591    CDp =  0.05320

 Side 1  free  transition at x/c =  0.1708   47
 Side 2 forced transition at x/c =  1.0000   66

 128   rms: 0.6720E-01   max: -.1666E+00   D at   79  2
       a = 12.000      CL =  1.0694
      Cm =  0.0562     CD =  0.05383   =>   CDf =  0.00563    CDp =  0.04820

 Side 1  free  transition at x/c =  0.1709   47
 Side 2 forced transition at x/c =  1.0000   66
 idif Ue xi dudx           1  0.14947613      5.80501556E-03   25.749479    
 Uenew xinew           2  6.55047745E-02  2.54392624E-03

 129   rms: 0.2627E+00   max: 0.6575E+00   D at   78  1
       a = 12.000      CL =  0.8761
      Cm =  0.0543     CD =  0.07285   =>   CDf =  0.00598    CDp =  0.06687

 Side 1  free  transition at x/c =  0.1707   46
 Side 2 forced transition at x/c =  1.0000   67

 130   rms: 0.1400E+00   max: -.3398E+00   D at   83  2
       a = 12.000      CL =  0.9989
      Cm =  0.0540     CD =  0.05797   =>   CDf =  0.00536    CDp =  0.05262

 Side 1  free  transition at x/c =  0.1711   47
 Side 2 forced transition at x/c =  1.0000   66

 131   rms: 0.9665E-01   max: 0.9114E+00   T at    2  1
       a = 12.000      CL =  1.0555
      Cm =  0.0558     CD =  0.05439   =>   CDf =  0.00561    CDp =  0.04878

 Side 1  free  transition at x/c =  0.1709   47
 Side 2 forced transition at x/c =  1.0000   66

 132   rms: 0.1933E+00   max: -.4935E+00   D at   71  1
       a = 12.000      CL =  1.1973
      Cm =  0.0577     CD =  0.04224   =>   CDf =  0.00539    CDp =  0.03686

 Side 1  free  transition at x/c =  0.1713   48
 Side 2 forced transition at x/c =  1.0000   65
 idif Ue xi dudx           1  8.27593952E-02  3.64303589E-03   22.717150    
 Uenew xinew           2  1.67360285E-03  7.36713409E-05

 133   rms: 0.1189E+00   max: 0.3084E+00   D at   67  2
       a = 12.000      CL =  1.1038
      Cm =  0.0535     CD =  0.05441   =>   CDf =  0.00628    CDp =  0.04813

 Side 1  free  transition at x/c =  0.1705   47
 Side 2 forced transition at x/c =  1.0000   66

 134   rms: 0.1957E+00   max: -.2428E+01   D at    2  2   RLX: 0.206
       a = 12.000      CL =  1.0882
      Cm =  0.0507     CD =  0.05384   =>   CDf =  0.00563    CDp =  0.04822

 Side 1  free  transition at x/c =  0.1705   47
 Side 2 forced transition at x/c =  1.0000   66

 135   rms: 0.2473E+00   max: -.6582E+00   D at   70  1   RLX: 0.760
       a = 12.000      CL =  1.2184
      Cm =  0.0556     CD =  0.04161   =>   CDf =  0.00532    CDp =  0.03629

 Side 1  free  transition at x/c =  0.1712   48
 Side 2 forced transition at x/c =  1.0000   65

 136   rms: 0.1413E+00   max: 0.4121E+00   D at   67  2
       a = 12.000      CL =  1.1093
      Cm =  0.0521     CD =  0.05433   =>   CDf =  0.00595    CDp =  0.04838

 Side 1  free  transition at x/c =  0.1703   48
 Side 2 forced transition at x/c =  1.0000   65
 idif Ue xi dudx           1  0.14891464      6.63745403E-03   22.435505    
 Uenew xinew           2  6.88341334E-02  3.06808949E-03

 137   rms: 0.1458E+00   max: 0.3876E+00   D at   93  1
       a = 12.000      CL =  0.9889
      Cm =  0.0580     CD =  0.06116   =>   CDf =  0.00588    CDp =  0.05528

 Side 1  free  transition at x/c =  0.1709   47
 Side 2 forced transition at x/c =  1.0000   66

 138   rms: 0.7055E-01   max: -.1862E+00   D at   80  2
       a = 12.000      CL =  1.0475
      Cm =  0.0558     CD =  0.05550   =>   CDf =  0.00561    CDp =  0.04989

 Side 1  free  transition at x/c =  0.1709   47
 Side 2 forced transition at x/c =  1.0000   66

 139   rms: 0.1305E+00   max: -.3324E+00   D at   70  1
       a = 12.000      CL =  1.1438
      Cm =  0.0571     CD =  0.04720   =>   CDf =  0.00538    CDp =  0.04182

 Side 1  free  transition at x/c =  0.1711   48
 Side 2 forced transition at x/c =  1.0000   65
 idif Ue xi dudx           1  9.56806839E-02  4.20165062E-03   22.772165    
 Uenew xinew           2  1.43985227E-02  6.32286072E-04

 140   rms: 0.7669E-01   max: 0.1961E+00   D at   88  1
       a = 12.000      CL =  1.0790
      Cm =  0.0570     CD =  0.05450   =>   CDf =  0.00616    CDp =  0.04833

 Side 1  free  transition at x/c =  0.1708   47
 Side 2 forced transition at x/c =  1.0000   66
 idif Ue xi dudx           1  8.21213797E-02  3.46302986E-03   23.713737    
 Uenew xinew           2  4.78876475E-03  2.01940536E-04

 141   rms: 0.1400E+00   max: 0.3640E+00   D at   86  1
       a = 12.000      CL =  0.9772
      Cm =  0.0561     CD =  0.06316   =>   CDf =  0.00599    CDp =  0.05717

 Side 1  free  transition at x/c =  0.1707   46
 Side 2 forced transition at x/c =  1.0000   67

 142   rms: 0.9331E-01   max: 0.1086E+01   T at    2  2   RLX: 0.953
       a = 12.000      CL =  1.0312
      Cm =  0.0553     CD =  0.05698   =>   CDf =  0.00530    CDp =  0.05168

 Side 1  free  transition at x/c =  0.1709   47
 Side 2 forced transition at x/c =  1.0000   66

 143   rms: 0.7734E-01   max: -.2001E+00   D at   67  1
       a = 12.000      CL =  1.0865
      Cm =  0.0564     CD =  0.05231   =>   CDf =  0.00562    CDp =  0.04669

 Side 1  free  transition at x/c =  0.1709   47
 Side 2 forced transition at x/c =  1.0000   66

 144   rms: 0.1027E+00   max: 0.2674E+00   D at   80  1
       a = 12.000      CL =  1.0081
      Cm =  0.0559     CD =  0.06055   =>   CDf =  0.00574    CDp =  0.05481

 Side 1  free  transition at x/c =  0.1707   47
 Side 2 forced transition at x/c =  1.0000   66

 145   rms: 0.5770E-01   max: -.1657E+00   D at   66  1
       a = 12.000      CL =  1.0528
      Cm =  0.0558     CD =  0.05527   =>   CDf =  0.00557    CDp =  0.04969

 Side 1  free  transition at x/c =  0.1709   47
 Side 2 forced transition at x/c =  1.0000   66

 146   rms: 0.1816E+00   max: -.4632E+00   D at   70  1
       a = 12.000      CL =  1.1874
      Cm =  0.0575     CD =  0.04327   =>   CDf =  0.00538    CDp =  0.03789

 Side 1  free  transition at x/c =  0.1712   48
 Side 2 forced transition at x/c =  1.0000   65
 idif Ue xi dudx           1  8.57642516E-02  3.77166271E-03   22.739109    
 Uenew xinew           2  4.60008020E-03  2.02298164E-04

 147   rms: 0.1129E+00   max: 0.2836E+00   D at   93  1
       a = 12.000      CL =  1.0982
      Cm =  0.0541     CD =  0.05458   =>   CDf =  0.00626    CDp =  0.04833

 Side 1  free  transition at x/c =  0.1705   47
 Side 2 forced transition at x/c =  1.0000   66

 148   rms: 0.1779E+00   max: -.1040E+01   T at    2  2   RLX: 0.481
       a = 12.000      CL =  1.0398
      Cm =  0.0534     CD =  0.05767   =>   CDf =  0.00563    CDp =  0.05204

 Side 1  free  transition at x/c =  0.1706   47
 Side 2 forced transition at x/c =  1.0000   66

 149   rms: 0.4796E-01   max: -.1594E+00   D at   67  1
       a = 12.000      CL =  1.0687
      Cm =  0.0562     CD =  0.05412   =>   CDf =  0.00557    CDp =  0.04855

 Side 1  free  transition at x/c =  0.1709   47
 Side 2 forced transition at x/c =  1.0000   66
 idif Ue xi dudx           2  0.20725685      7.73298740E-03   26.801655    
 Uenew xinew           3  0.11985427      4.47189808E-03

 150   rms: 0.3827E+00   max: 0.9444E+00   D at   78  1
       a = 12.000      CL =  0.7905
      Cm =  0.0533     CD =  0.08113   =>   CDf =  0.00624    CDp =  0.07489

 Side 1  free  transition at x/c =  0.1708   45
 Side 2 forced transition at x/c =  1.0000   68

 151   rms: 0.2232E+00   max: -.5554E+00   D at   85  2   RLX: 0.900
       a = 12.000      CL =  0.9689
      Cm =  0.0553     CD =  0.05833   =>   CDf =  0.00548    CDp =  0.05285

 Side 1  free  transition at x/c =  0.1713   46
 Side 2 forced transition at x/c =  1.0000   67

 152   rms: 0.1278E+00   max: -.4292E+00   D at   83  2
       a = 12.000      CL =  1.0680
      Cm =  0.0558     CD =  0.05224   =>   CDf =  0.00546    CDp =  0.04678

 Side 1  free  transition at x/c =  0.1709   47
 Side 2 forced transition at x/c =  1.0000   66
 idif Ue xi dudx           2  0.22215319      8.26203823E-03   26.888424    
 Uenew xinew           3  0.13446763      5.00094891E-03

 153   rms: 0.5430E+00   max: 0.1387E+01   D at   76  1   RLX: 0.750
       a = 12.000      CL =  0.7697
      Cm =  0.0524     CD =  0.08439   =>   CDf =  0.00627    CDp =  0.07813

 Side 1  free  transition at x/c =  0.1709   45
 Side 2 forced transition at x/c =  1.0000   68

 154   rms: 0.2439E+00   max: -.6063E+00   D at   86  2   RLX: 0.825
       a = 12.000      CL =  0.9463
      Cm =  0.0569     CD =  0.06009   =>   CDf =  0.00550    CDp =  0.05458

 Side 1  free  transition at x/c =  0.1713   46
 Side 2 forced transition at x/c =  1.0000   67

 155   rms: 0.1470E+00   max: -.4703E+00   D at   84  2
       a = 12.000      CL =  1.0657
      Cm =  0.0556     CD =  0.05171   =>   CDf =  0.00548    CDp =  0.04622
 VISCAL:  Convergence failed
 Calculating wake trajectory ...
 Calculating source influence matrix ...

 Solving BL system ...

 Side 1  free  transition at x/c =  0.1710   47
 Side 2 forced transition at x/c =  1.0000   66
 idif Ue xi dudx           2  0.22400884      8.28218460E-03   27.047071    
 Uenew xinew           3  0.13580592      5.02109528E-03

   1   rms: 0.6295E+01   max: 0.1611E+02   D at   70  1   RLX: 0.065
       a = 12.250      CL =  0.7681
      Cm =  0.0530     CD =  0.08636   =>   CDf =  0.00628    CDp =  0.08008

 Side 1  free  transition at x/c =  0.1709   45
 Side 2 forced transition at x/c =  1.0000   68

   2   rms: 0.3341E+00   max: -.7844E+00   D at   86  2   RLX: 0.637
       a = 12.250      CL =  0.9416
      Cm =  0.0635     CD =  0.06094   =>   CDf =  0.00553    CDp =  0.05541

 Side 1  free  transition at x/c =  0.1714   46
 Side 2 forced transition at x/c =  1.0000   67

   3   rms: 0.3836E+00   max: -.9561E+00   D at   84  2   RLX: 0.523
       a = 12.250      CL =  1.0953
      Cm =  0.0677     CD =  0.04871   =>   CDf =  0.00527    CDp =  0.04343

 Side 1  free  transition at x/c =  0.1714   48
 Side 2 forced transition at x/c =  1.0000   65
 idif Ue xi dudx           1  8.90223682E-02  4.00102139E-03   22.249910    
 Uenew xinew           2  9.60432552E-03  4.31656837E-04

   4   rms: 0.2599E+00   max: -.2049E+01   T at    2  1   RLX: 0.244
       a = 12.250      CL =  1.0592
      Cm =  0.0645     CD =  0.06003   =>   CDf =  0.00631    CDp =  0.05373

 Side 1  free  transition at x/c =  0.1710   47
 Side 2 forced transition at x/c =  1.0000   66

   5   rms: 0.4906E+01   max: -.3218E+02   T at    2  2   RLX: 0.016
       a = 12.250      CL =  1.0115
      Cm =  0.0616     CD =  0.06488   =>   CDf =  0.00581    CDp =  0.05908

 Side 1  free  transition at x/c =  0.1709   47
 Side 2 forced transition at x/c =  1.0000   66

   6   rms: 0.2819E+00   max: -.7319E+00   D at   71  1   RLX: 0.683
       a = 12.250      CL =  1.1517
      Cm =  0.0634     CD =  0.04443   =>   CDf =  0.00540    CDp =  0.03903

 Side 1  free  transition at x/c =  0.1708   48
 Side 2 forced transition at x/c =  1.0000   65
 idif Ue xi dudx           2  0.15488915      7.18033314E-03   21.571304    
 Uenew xinew           3  7.78933018E-02  3.61096859E-03

   7   rms: 0.2577E+00   max: 0.6159E+00   D at   84  1
       a = 12.250      CL =  0.9441
      Cm =  0.0619     CD =  0.06614   =>   CDf =  0.00647    CDp =  0.05967

 Side 1  free  transition at x/c =  0.1703   46
 Side 2 forced transition at x/c =  1.0000   67

   8   rms: 0.2281E+00   max: 0.2338E+01   D at    2  2   RLX: 0.399
       a = 12.250      CL =  1.0160
      Cm =  0.0587     CD =  0.05998   =>   CDf =  0.00532    CDp =  0.05466

 Side 1  free  transition at x/c =  0.1704   47
 Side 2 forced transition at x/c =  1.0000   66

   9   rms: 0.2836E+00   max: -.6807E+00   D at   66  1   RLX: 0.735
       a = 12.250      CL =  1.1689
      Cm =  0.0618     CD =  0.04324   =>   CDf =  0.00536    CDp =  0.03788

 Side 1  free  transition at x/c =  0.1709   48
 Side 2 forced transition at x/c =  1.0000   65
 idif Ue xi dudx           1  0.13259456      6.22427464E-03   21.302813    
 Uenew xinew           2  5.65570518E-02  2.65491009E-03

  10   rms: 0.2268E+00   max: 0.5731E+00   D at   87  1
       a = 12.250      CL =  0.9805
      Cm =  0.0640     CD =  0.06239   =>   CDf =  0.00619    CDp =  0.05620

 Side 1  free  transition at x/c =  0.1702   47
 Side 2 forced transition at x/c =  1.0000   66

  11   rms: 0.1972E+00   max: -.5013E+00   D at   65  1   RLX: 0.997
       a = 12.250      CL =  1.1405
      Cm =  0.0621     CD =  0.04456   =>   CDf =  0.00532    CDp =  0.03924

 Side 1  free  transition at x/c =  0.1709   48
 Side 2 forced transition at x/c =  1.0000   65
 idif Ue xi dudx           2  0.18642160      8.32676888E-03   22.388227    
 Uenew xinew           3  0.10650985      4.75740433E-03

  12   rms: 0.3186E+00   max: 0.8088E+00   D at   85  1
       a = 12.250      CL =  0.8906
      Cm =  0.0631     CD =  0.07022   =>   CDf =  0.00637    CDp =  0.06384

 Side 1  free  transition at x/c =  0.1703   46
 Side 2 forced transition at x/c =  1.0000   67

  13   rms: 0.2127E+00   max: -.5103E+00   D at   84  2   RLX: 0.980
       a = 12.250      CL =  1.0733
      Cm =  0.0601     CD =  0.04891   =>   CDf =  0.00538    CDp =  0.04353

 Side 1  free  transition at x/c =  0.1709   47
 Side 2 forced transition at x/c =  1.0000   66

  14   rms: 0.1393E+01   max: -.3610E+01   D at   75  1   RLX: 0.139
       a = 12.250      CL =  1.2225
      Cm =  0.0611     CD =  0.04273   =>   CDf =  0.00541    CDp =  0.03732

 Side 1  free  transition at x/c =  0.1712   48
 Side 2 forced transition at x/c =  1.0000   65
 idif Ue xi dudx           1  9.60866436E-02  4.59253788E-03   20.922340    
 Uenew xinew           2  2.14071814E-02  1.02317333E-03

  15   rms: 0.2161E+00   max: 0.7632E+00   D at    3  2
       a = 12.250      CL =  1.0414
      Cm =  0.0606     CD =  0.05936   =>   CDf =  0.00632    CDp =  0.05304

 Side 1  free  transition at x/c =  0.1699   47
 Side 2 forced transition at x/c =  1.0000   66

  16   rms: 0.2174E+00   max: -.6069E+00   D at   66  1   RLX: 0.824
       a = 12.250      CL =  1.1767
      Cm =  0.0606     CD =  0.04341   =>   CDf =  0.00526    CDp =  0.03815

 Side 1  free  transition at x/c =  0.1707   48
 Side 2 forced transition at x/c =  1.0000   65
 idif Ue xi dudx           2  0.14578742      6.84368610E-03   21.302469    
 Uenew xinew           3  6.97511360E-02  3.27432156E-03

  17   rms: 0.2606E+00   max: 0.6442E+00   D at   89  1
       a = 12.250      CL =  0.9580
      Cm =  0.0670     CD =  0.06339   =>   CDf =  0.00639    CDp =  0.05700

 Side 1  free  transition at x/c =  0.1702   46
 Side 2 forced transition at x/c =  1.0000   67

  18   rms: 0.2503E+01   max: 0.4429E+02   T at    2  2   RLX: 0.027
       a = 12.250      CL =  0.9803
      Cm =  0.0604     CD =  0.06598   =>   CDf =  0.00536    CDp =  0.06061

 Side 1  free  transition at x/c =  0.1702   47
 Side 2 forced transition at x/c =  1.0000   66

  19   rms: 0.1473E+01   max: 0.2542E+02   T at    2  1   RLX: 0.043
       a = 12.250      CL =  0.9867
      Cm =  0.0605     CD =  0.06514   =>   CDf =  0.00564    CDp =  0.05951

 Side 1  free  transition at x/c =  0.1702   47
 Side 2 forced transition at x/c =  1.0000   66

  20   rms: 0.2149E+00   max: -.5151E+00   D at   64  1   RLX: 0.971
       a = 12.250      CL =  1.1445
      Cm =  0.0621     CD =  0.04385   =>   CDf =  0.00536    CDp =  0.03849

 Side 1  free  transition at x/c =  0.1708   48
 Side 2 forced transition at x/c =  1.0000   65
 idif Ue xi dudx           2  0.17369589      7.84671307E-03   22.136133    
 Uenew xinew           3  9.46839601E-02  4.27734852E-03

  21   rms: 0.2950E+00   max: 0.7535E+00   D at   85  1
       a = 12.250      CL =  0.9123
      Cm =  0.0634     CD =  0.06859   =>   CDf =  0.00641    CDp =  0.06218

 Side 1  free  transition at x/c =  0.1702   46
 Side 2 forced transition at x/c =  1.0000   67

  22   rms: 0.2023E+00   max: 0.6884E+00   D at    2  2
       a = 12.250      CL =  1.0848
      Cm =  0.0603     CD =  0.04847   =>   CDf =  0.00509    CDp =  0.04338

 Side 1  free  transition at x/c =  0.1709   48
 Side 2 forced transition at x/c =  1.0000   65
 idif Ue xi dudx           1  0.10795194      4.37295437E-03   24.686272    
 Uenew xinew           2  1.98376365E-02  8.03589821E-04

  23   rms: 0.5682E+02   max: -.3808E+03   T at    2  1   RLX: 0.001
       a = 12.250      CL =  1.0446
      Cm =  0.0564     CD =  0.06143   =>   CDf =  0.00599    CDp =  0.05544

 Side 1  free  transition at x/c =  0.1709   47
 Side 2 forced transition at x/c =  1.0000   66

  24   rms: 0.2453E+00   max: -.6897E+00   D at   67  1   RLX: 0.725
       a = 12.250      CL =  1.1616
      Cm =  0.0615     CD =  0.04444   =>   CDf =  0.00532    CDp =  0.03912

 Side 1  free  transition at x/c =  0.1707   48
 Side 2 forced transition at x/c =  1.0000   65
 idif Ue xi dudx           2  0.16018060      7.34722614E-03   21.801506    
 Uenew xinew           3  8.23630691E-02  3.77786160E-03

  25   rms: 0.2734E+00   max: 0.6685E+00   D at   86  1
       a = 12.250      CL =  0.9345
      Cm =  0.0642     CD =  0.06600   =>   CDf =  0.00640    CDp =  0.05960

 Side 1  free  transition at x/c =  0.1703   46
 Side 2 forced transition at x/c =  1.0000   67

  26   rms: 0.2101E+00   max: 0.1551E+01   D at    2  2   RLX: 0.577
       a = 12.250      CL =  1.0350
      Cm =  0.0604     CD =  0.05670   =>   CDf =  0.00535    CDp =  0.05136

 Side 1  free  transition at x/c =  0.1706   47
 Side 2 forced transition at x/c =  1.0000   66

  27   rms: 0.4248E+00   max: -.1051E+01   D at   69  1   RLX: 0.476
       a = 12.250      CL =  1.1878
      Cm =  0.0619     CD =  0.04312   =>   CDf =  0.00539    CDp =  0.03772

 Side 1  free  transition at x/c =  0.1709   48
 Side 2 forced transition at x/c =  1.0000   65
 idif Ue xi dudx           1  0.11488423      5.38170338E-03   21.347189    
 Uenew xinew           2  3.86883393E-02  1.81233883E-03

  28   rms: 0.2073E+00   max: 0.5154E+00   D at   89  1
       a = 12.250      CL =  1.0097
      Cm =  0.0648     CD =  0.05976   =>   CDf =  0.00625    CDp =  0.05351

 Side 1  free  transition at x/c =  0.1702   47
 Side 2 forced transition at x/c =  1.0000   66

  29   rms: 0.2372E+00   max: -.6135E+00   D at   66  1   RLX: 0.815
       a = 12.250      CL =  1.1661
      Cm =  0.0619     CD =  0.04372   =>   CDf =  0.00533    CDp =  0.03839

 Side 1  free  transition at x/c =  0.1707   48
 Side 2 forced transition at x/c =  1.0000   65
 idif Ue xi dudx           2  0.14654818      6.88898563E-03   21.272825    
 Uenew xinew           3  7.06177205E-02  3.31962109E-03

  30   rms: 0.2539E+00   max: 0.6560E+00   D at   89  1
       a = 12.250      CL =  0.9564
      Cm =  0.0660     CD =  0.06394   =>   CDf =  0.00643    CDp =  0.05751

 Side 1  free  transition at x/c =  0.1702   46
 Side 2 forced transition at x/c =  1.0000   67

  31   rms: 0.8565E+00   max: 0.1457E+02   D at    2  2   RLX: 0.076
       a = 12.250      CL =  0.9867
      Cm =  0.0594     CD =  0.06497   =>   CDf =  0.00535    CDp =  0.05962

 Side 1  free  transition at x/c =  0.1702   47
 Side 2 forced transition at x/c =  1.0000   66

  32   rms: 0.3401E+00   max: 0.4625E+01   T at    2  1   RLX: 0.216
       a = 12.250      CL =  1.0200
      Cm =  0.0600     CD =  0.06065   =>   CDf =  0.00563    CDp =  0.05503

 Side 1  free  transition at x/c =  0.1703   47
 Side 2 forced transition at x/c =  1.0000   66

  33   rms: 0.3320E+00   max: -.7908E+00   D at   67  1   RLX: 0.632
       a = 12.250      CL =  1.1787
      Cm =  0.0620     CD =  0.04302   =>   CDf =  0.00539    CDp =  0.03764

 Side 1  free  transition at x/c =  0.1708   48
 Side 2 forced transition at x/c =  1.0000   65
 idif Ue xi dudx           1  0.12291481      5.77497482E-03   21.284042    
 Uenew xinew           2  4.69443016E-02  2.20561028E-03

  34   rms: 0.2186E+00   max: 0.5704E+00   D at   89  1
       a = 12.250      CL =  0.9962
      Cm =  0.0654     CD =  0.06100   =>   CDf =  0.00623    CDp =  0.05477

 Side 1  free  transition at x/c =  0.1701   47
 Side 2 forced transition at x/c =  1.0000   66

  35   rms: 0.2156E+00   max: -.5525E+00   D at   65  1   RLX: 0.905
       a = 12.250      CL =  1.1551
      Cm =  0.0620     CD =  0.04394   =>   CDf =  0.00533    CDp =  0.03862

 Side 1  free  transition at x/c =  0.1708   48
 Side 2 forced transition at x/c =  1.0000   65
 idif Ue xi dudx           2  0.15947318      7.33292103E-03   21.747566    
 Uenew xinew           3  8.18481967E-02  3.76355648E-03

  36   rms: 0.2728E+00   max: 0.6984E+00   D at   87  1
       a = 12.250      CL =  0.9354
      Cm =  0.0649     CD =  0.06597   =>   CDf =  0.00641    CDp =  0.05956

 Side 1  free  transition at x/c =  0.1702   46
 Side 2 forced transition at x/c =  1.0000   67

  37   rms: 0.2169E+00   max: 0.1691E+01   T at    2  2   RLX: 0.533
       a = 12.250      CL =  1.0320
      Cm =  0.0604     CD =  0.05733   =>   CDf =  0.00535    CDp =  0.05198

 Side 1  free  transition at x/c =  0.1705   47
 Side 2 forced transition at x/c =  1.0000   66

  38   rms: 0.4157E+00   max: -.1017E+01   D at   69  1   RLX: 0.492
       a = 12.250      CL =  1.1864
      Cm =  0.0620     CD =  0.04299   =>   CDf =  0.00540    CDp =  0.03759

 Side 1  free  transition at x/c =  0.1709   48
 Side 2 forced transition at x/c =  1.0000   65
 idif Ue xi dudx           1  0.11559635      5.41532040E-03   21.346169    
 Uenew xinew           2  3.94040830E-02  1.84595585E-03

  39   rms: 0.2090E+00   max: 0.5281E+00   D at   89  1
       a = 12.250      CL =  1.0085
      Cm =  0.0649     CD =  0.05985   =>   CDf =  0.00625    CDp =  0.05359

 Side 1  free  transition at x/c =  0.1702   47
 Side 2 forced transition at x/c =  1.0000   66

  40   rms: 0.2343E+00   max: -.6058E+00   D at   66  1   RLX: 0.825
       a = 12.250      CL =  1.1653
      Cm =  0.0619     CD =  0.04375   =>   CDf =  0.00532    CDp =  0.03843

 Side 1  free  transition at x/c =  0.1707   48
 Side 2 forced transition at x/c =  1.0000   65
 idif Ue xi dudx           2  0.14782789      6.93416595E-03   21.318771    
 Uenew xinew           3  7.17334300E-02  3.36480141E-03

  41   rms: 0.2560E+00   max: 0.6608E+00   D at   89  1
       a = 12.250      CL =  0.9542
      Cm =  0.0660     CD =  0.06403   =>   CDf =  0.00643    CDp =  0.05761

 Side 1  free  transition at x/c =  0.1702   46
 Side 2 forced transition at x/c =  1.0000   67

  42   rms: 0.5427E+00   max: 0.8780E+01   D at    2  2   RLX: 0.121
       a = 12.250      CL =  0.9910
      Cm =  0.0596     CD =  0.06426   =>   CDf =  0.00535    CDp =  0.05892

 Side 1  free  transition at x/c =  0.1703   47
 Side 2 forced transition at x/c =  1.0000   66

  43   rms: 0.2652E+00   max: 0.2509E+01   T at    2  1   RLX: 0.381
       a = 12.250      CL =  1.0540
      Cm =  0.0606     CD =  0.05630   =>   CDf =  0.00563    CDp =  0.05067

 Side 1  free  transition at x/c =  0.1704   47
 Side 2 forced transition at x/c =  1.0000   66

  44   rms: 0.1100E+01   max: -.2728E+01   D at   72  1   RLX: 0.183
       a = 12.250      CL =  1.2073
      Cm =  0.0610     CD =  0.04289   =>   CDf =  0.00543    CDp =  0.03745

 Side 1  free  transition at x/c =  0.1710   48
 Side 2 forced transition at x/c =  1.0000   65
 idif Ue xi dudx           1  9.80917066E-02  4.60505486E-03   21.300877    
 Uenew xinew           2  2.20611114E-02  1.03569031E-03

  45   rms: 0.1986E+00   max: 0.5036E+00   D at   91  1
       a = 12.250      CL =  1.0392
      Cm =  0.0639     CD =  0.05832   =>   CDf =  0.00635    CDp =  0.05197

 Side 1  free  transition at x/c =  0.1700   47
 Side 2 forced transition at x/c =  1.0000   66

  46   rms: 0.2990E+00   max: -.7806E+00   D at   68  1   RLX: 0.640
       a = 12.250      CL =  1.1933
      Cm =  0.0598     CD =  0.04276   =>   CDf =  0.00531    CDp =  0.03745

 Side 1  free  transition at x/c =  0.1706   48
 Side 2 forced transition at x/c =  1.0000   65
 idif Ue xi dudx           1  0.13077505      6.15358353E-03   21.251852    
 Uenew xinew           2  5.49194403E-02  2.58421898E-03

  47   rms: 0.2536E+00   max: 0.6616E+00   D at   91  1
       a = 12.250      CL =  0.9840
      Cm =  0.0652     CD =  0.06283   =>   CDf =  0.00616    CDp =  0.05667

 Side 1  free  transition at x/c =  0.1698   47
 Side 2 forced transition at x/c =  1.0000   66

  48   rms: 0.1828E+00   max: -.4846E+00   D at   63  1
       a = 12.250      CL =  1.1328
      Cm =  0.0620     CD =  0.04536   =>   CDf =  0.00531    CDp =  0.04005

 Side 1  free  transition at x/c =  0.1709   48
[...]

 Side 1  free  transition at x/c =  0.0983   42
 Side 2 forced transition at x/c =  1.0000   65

 119   rms: 0.1247E-01   max: -.1724E+00   T at   42  1
       a = 20.750      CL =  0.8034
      Cm = -0.0351     CD =  0.23336   =>   CDf =  0.00447    CDp =  0.22888

 Side 1  free  transition at x/c =  0.0994   42
 Side 2 forced transition at x/c =  1.0000   65

 120   rms: 0.2536E-01   max: -.2574E+00   T at   42  1
       a = 20.750      CL =  0.8078
      Cm = -0.0339     CD =  0.23163   =>   CDf =  0.00427    CDp =  0.22735

 Side 1  free  transition at x/c =  0.0994   43
 Side 2 forced transition at x/c =  1.0000   64

 121   rms: 0.1592E-01   max: -.1772E+00   D at   43  1
       a = 20.750      CL =  0.8090
      Cm = -0.0350     CD =  0.23820   =>   CDf =  0.00447    CDp =  0.23372

 Side 1  free  transition at x/c =  0.0997   43
 Side 2 forced transition at x/c =  1.0000   64

 122   rms: 0.9327E-02   max: -.7976E-01   T at   43  1
       a = 20.750      CL =  0.8088
      Cm = -0.0345     CD =  0.23627   =>   CDf =  0.00446    CDp =  0.23181

 Side 1  free  transition at x/c =  0.1001   43
 Side 2 forced transition at x/c =  1.0000   64

 123   rms: 0.4299E-01   max: -.2954E+00   T at   43  1
       a = 20.750      CL =  0.8162
      Cm = -0.0320     CD =  0.23150   =>   CDf =  0.00447    CDp =  0.22703

 Side 1  free  transition at x/c =  0.0992   43
 Side 2 forced transition at x/c =  1.0000   64

 124   rms: 0.6713E-01   max: 0.3933E+00   D at   44  1
       a = 20.750      CL =  0.8096
      Cm = -0.0369     CD =  0.25081   =>   CDf =  0.00445    CDp =  0.24636

 Side 1  free  transition at x/c =  0.0978   43
 Side 2 forced transition at x/c =  1.0000   64
 idif Ue xi dudx           1  6.68573752E-02  4.01628017E-03   16.646591    
 Uenew xinew           2  5.04044816E-04  3.02791595E-05

 125   rms: 0.2873E-01   max: -.2313E+00   D at   43  1
       a = 20.750      CL =  0.8059
      Cm = -0.0361     CD =  0.24320   =>   CDf =  0.00462    CDp =  0.23858

 Side 1  free  transition at x/c =  0.0987   42
 Side 2 forced transition at x/c =  1.0000   65

 126   rms: 0.1083E-01   max: -.1399E+00   T at   42  1
       a = 20.750      CL =  0.8052
      Cm = -0.0352     CD =  0.23551   =>   CDf =  0.00446    CDp =  0.23105

 Side 1  free  transition at x/c =  0.0995   42
 Side 2 forced transition at x/c =  1.0000   65

 127   rms: 0.2825E-01   max: -.2808E+00   D at    2  2
       a = 20.750      CL =  0.8088
      Cm = -0.0340     CD =  0.23255   =>   CDf =  0.00427    CDp =  0.22829

 Side 1  free  transition at x/c =  0.0995   43
 Side 2 forced transition at x/c =  1.0000   64

 128   rms: 0.1616E-01   max: -.1603E+00   D at   43  1
       a = 20.750      CL =  0.8096
      Cm = -0.0350     CD =  0.23837   =>   CDf =  0.00447    CDp =  0.23390

 Side 1  free  transition at x/c =  0.0998   43
 Side 2 forced transition at x/c =  1.0000   64

 129   rms: 0.9793E-02   max: -.8117E-01   T at   43  1
       a = 20.750      CL =  0.8092
      Cm = -0.0344     CD =  0.23620   =>   CDf =  0.00446    CDp =  0.23174

 Side 1  free  transition at x/c =  0.1001   43
 Side 2 forced transition at x/c =  1.0000   64

 130   rms: 0.3100E-01   max: -.2047E+00   T at   43  1
       a = 20.750      CL =  0.8146
      Cm = -0.0326     CD =  0.23239   =>   CDf =  0.00446    CDp =  0.22792

 Side 1  free  transition at x/c =  0.0999   43
 Side 2 forced transition at x/c =  1.0000   64

 131   rms: 0.3665E-01   max: 0.2221E+00   D at   44  1
       a = 20.750      CL =  0.8126
      Cm = -0.0353     CD =  0.24370   =>   CDf =  0.00446    CDp =  0.23925

 Side 1  free  transition at x/c =  0.0994   43
 Side 2 forced transition at x/c =  1.0000   64

 132   rms: 0.2258E-01   max: 0.1122E+00   D at   44  1
       a = 20.750      CL =  0.8084
      Cm = -0.0355     CD =  0.24106   =>   CDf =  0.00444    CDp =  0.23662

 Side 1  free  transition at x/c =  0.0994   43
 Side 2 forced transition at x/c =  1.0000   64

 133   rms: 0.1015E-01   max: -.1069E+00   T at   43  1
       a = 20.750      CL =  0.8076
      Cm = -0.0347     CD =  0.23620   =>   CDf =  0.00446    CDp =  0.23175

 Side 1  free  transition at x/c =  0.0999   43
 Side 2 forced transition at x/c =  1.0000   64

 134   rms: 0.2745E-01   max: -.2164E+00   T at   43  1
       a = 20.750      CL =  0.8119
      Cm = -0.0331     CD =  0.23265   =>   CDf =  0.00447    CDp =  0.22818

 Side 1  free  transition at x/c =  0.0997   43
 Side 2 forced transition at x/c =  1.0000   64

 135   rms: 0.2686E-01   max: 0.1668E+00   D at   44  1
       a = 20.750      CL =  0.8116
      Cm = -0.0351     CD =  0.24142   =>   CDf =  0.00446    CDp =  0.23696

 Side 1  free  transition at x/c =  0.0996   43
 Side 2 forced transition at x/c =  1.0000   64

 136   rms: 0.1512E-01   max: 0.7186E-01   D at   44  1
       a = 20.750      CL =  0.8085
      Cm = -0.0352     CD =  0.23952   =>   CDf =  0.00445    CDp =  0.23507

 Side 1  free  transition at x/c =  0.0997   43
 Side 2 forced transition at x/c =  1.0000   64

 137   rms: 0.3466E-01   max: -.3263E+00   T at   43  1
       a = 20.750      CL =  0.8126
      Cm = -0.0331     CD =  0.23334   =>   CDf =  0.00446    CDp =  0.22888

 Side 1  free  transition at x/c =  0.0989   43
 Side 2 forced transition at x/c =  1.0000   64

 138   rms: 0.4645E-01   max: -.2776E+00   D at   43  1
       a = 20.750      CL =  0.8092
      Cm = -0.0363     CD =  0.24599   =>   CDf =  0.00446    CDp =  0.24153

 Side 1  free  transition at x/c =  0.0984   43
 Side 2 forced transition at x/c =  1.0000   64

 139   rms: 0.1904E-01   max: -.1596E+00   D at   43  1
       a = 20.750      CL =  0.8061
      Cm = -0.0357     CD =  0.24021   =>   CDf =  0.00445    CDp =  0.23576

 Side 1  free  transition at x/c =  0.0991   43
 Side 2 forced transition at x/c =  1.0000   64

 140   rms: 0.1545E-01   max: -.1590E+00   T at   43  1
       a = 20.750      CL =  0.8063
      Cm = -0.0348     CD =  0.23496   =>   CDf =  0.00446    CDp =  0.23050

 Side 1  free  transition at x/c =  0.0997   43
 Side 2 forced transition at x/c =  1.0000   64

 141   rms: 0.1370E-01   max: -.1152E+00   T at   43  1
       a = 20.750      CL =  0.8085
      Cm = -0.0341     CD =  0.23355   =>   CDf =  0.00447    CDp =  0.22908

 Side 1  free  transition at x/c =  0.1001   43
 Side 2 forced transition at x/c =  1.0000   64

 142   rms: 0.1277E-01   max: -.7688E-01   T at   43  1
       a = 20.750      CL =  0.8117
      Cm = -0.0336     CD =  0.23372   =>   CDf =  0.00447    CDp =  0.22925

 Side 1  free  transition at x/c =  0.1004   43
 Side 2 forced transition at x/c =  1.0000   64

 143   rms: 0.6782E-02   max: 0.3754E-01   T at   44  1
       a = 20.750      CL =  0.8134
      Cm = -0.0333     CD =  0.23435   =>   CDf =  0.00446    CDp =  0.22989

 Side 1  free  transition at x/c =  0.1005   43
 Side 2 forced transition at x/c =  1.0000   64

 144   rms: 0.3985E-02   max: 0.2046E-01   T at   44  1
       a = 20.750      CL =  0.8143
      Cm = -0.0331     CD =  0.23421   =>   CDf =  0.00446    CDp =  0.22976

 Side 1  free  transition at x/c =  0.1006   43
 Side 2 forced transition at x/c =  1.0000   64

 145   rms: 0.1065E-02   max: -.4640E-02   T at   44  1
       a = 20.750      CL =  0.8142
      Cm = -0.0332     CD =  0.23464   =>   CDf =  0.00446    CDp =  0.23018

 Side 1  free  transition at x/c =  0.1005   43
 Side 2 forced transition at x/c =  1.0000   64

 146   rms: 0.3734E-03   max: 0.2115E-02   T at   44  1
       a = 20.750      CL =  0.8142
      Cm = -0.0332     CD =  0.23454   =>   CDf =  0.00446    CDp =  0.23008

 Side 1  free  transition at x/c =  0.1005   43
 Side 2 forced transition at x/c =  1.0000   64

 147   rms: 0.6418E-04   max: 0.3125E-03   T at   44  1
       a = 20.750      CL =  0.8142
      Cm = -0.0332     CD =  0.23451   =>   CDf =  0.00446    CDp =  0.23005
 plradd ia,ip,cpol           28           0 -1.52827287E-03

 Point added to stored polar  1
 Point written to save file  marske5_Re200k.ext.pol                          
 Dump file unspecified or not available
 Calculating wake trajectory ...
 Calculating source influence matrix ...

 Solving BL system ...

 Side 1  free  transition at x/c =  0.1006   43
 Side 2 forced transition at x/c =  1.0000   64
 idif Ue xi dudx           1  8.16751346E-02  4.87327576E-03   16.759802    
 Uenew xinew           2  1.48705486E-02  8.87274742E-04

   1   rms: 0.8267E+00   max: -.4192E+01   T at   44  1   RLX: 0.119
       a = 21.250      CL =  0.7914
      Cm = -0.0394     CD =  0.24330   =>   CDf =  0.00464    CDp =  0.23867

 Side 1  free  transition at x/c =  0.0937   42
 Side 2 forced transition at x/c =  1.0000   65

   2   rms: 0.8236E-01   max: -.4477E+00   D at   42  1
       a = 21.250      CL =  0.7985
      Cm = -0.0371     CD =  0.21388   =>   CDf =  0.00429    CDp =  0.20959

 Side 1  free  transition at x/c =  0.0920   43
 Side 2 forced transition at x/c =  1.0000   64

   3   rms: 0.7954E-01   max: 0.6703E+00   D at    2  1
       a = 21.250      CL =  0.8101
      Cm = -0.0367     CD =  0.22129   =>   CDf =  0.00450    CDp =  0.21679

 Side 1  free  transition at x/c =  0.0927   43
 Side 2 forced transition at x/c =  1.0000   64

   4   rms: 0.3177E-01   max: 0.1588E+00   C at   64  2
       a = 21.250      CL =  0.8177
      Cm = -0.0369     CD =  0.23026   =>   CDf =  0.00446    CDp =  0.22580

 Side 1  free  transition at x/c =  0.0929   43
 Side 2 forced transition at x/c =  1.0000   64

   5   rms: 0.1136E-01   max: 0.8206E-01   C at   64  2
       a = 21.250      CL =  0.8239
      Cm = -0.0375     CD =  0.23769   =>   CDf =  0.00443    CDp =  0.23326

 Side 1  free  transition at x/c =  0.0928   43
 Side 2 forced transition at x/c =  1.0000   64

   6   rms: 0.1635E-02   max: 0.1770E-01   C at   64  2
       a = 21.250      CL =  0.8247
      Cm = -0.0376     CD =  0.23913   =>   CDf =  0.00440    CDp =  0.23472

 Side 1  free  transition at x/c =  0.0928   43
 Side 2 forced transition at x/c =  1.0000   64

   7   rms: 0.1732E-03   max: 0.1648E-02   C at   64  2
       a = 21.250      CL =  0.8248
      Cm = -0.0376     CD =  0.23929   =>   CDf =  0.00440    CDp =  0.23489

 Side 1  free  transition at x/c =  0.0928   43
 Side 2 forced transition at x/c =  1.0000   64

   8   rms: 0.1619E-04   max: 0.1836E-03   C at   64  2
       a = 21.250      CL =  0.8248
      Cm = -0.0376     CD =  0.23931   =>   CDf =  0.00440    CDp =  0.23491
 plradd ia,ip,cpol           29           0 -1.99935329E-03

 Point added to stored polar  1
 Point written to save file  marske5_Re200k.ext.pol                          
 Dump file unspecified or not available
 Calculating wake trajectory ...
 Calculating source influence matrix ...

 Solving BL system ...

 Side 1  free  transition at x/c =  0.0928   43
 Side 2 forced transition at x/c =  1.0000   64

   1   rms: 0.1024E+00   max: 0.8441E+00   T at   43  1   RLX: 0.275
       a = 21.750      CL =  0.8317
      Cm = -0.0374     CD =  0.23984   =>   CDf =  0.00440    CDp =  0.23545

 Side 1  free  transition at x/c =  0.0919   43
 Side 2 forced transition at x/c =  1.0000   64

   2   rms: 0.1062E+00   max: 0.5923E+00   T at   43  1
       a = 21.750      CL =  0.8632
      Cm = -0.0340     CD =  0.23599   =>   CDf =  0.00414    CDp =  0.23184

 Side 1  free  transition at x/c =  0.0910   43
 Side 2 forced transition at x/c =  1.0000   63
 idif Ue xi dudx           1  0.10463566      7.18235970E-03   14.568423    
 Uenew xinew           2  3.84677127E-02  2.64048576E-03

   3   rms: 0.2576E+00   max: 0.1432E+01   D at   44  1
       a = 21.750      CL =  0.8248
      Cm = -0.0509     CD =  0.31230   =>   CDf =  0.00448    CDp =  0.30782

 Side 1  free  transition at x/c =  0.0819   41
 Side 2 forced transition at x/c =  1.0000   64

   4   rms: 0.2341E+00   max: 0.2080E+01   T at   42  1   RLX: 0.607
       a = 21.750      CL =  0.8030
      Cm = -0.0264     CD =  0.24437   =>   CDf =  0.00412    CDp =  0.24025

 Side 1  free  transition at x/c =  0.0813   42
 Side 2 forced transition at x/c =  1.0000   63

   5   rms: 0.1288E+00   max: 0.5985E+00   D at   44  1
       a = 21.750      CL =  0.8548
      Cm = -0.0425     CD =  0.27978   =>   CDf =  0.00430    CDp =  0.27549

 Side 1  free  transition at x/c =  0.5574   72
 Side 2 forced transition at x/c =  1.0000   63
 idif Ue xi dudx           1  7.86339343E-02  5.28442860E-03   14.880310    
 Uenew xinew           2  1.10494439E-02  7.42554665E-04

   6   rms: 0.1175E+02   max: 0.1677E+03   T at   72  1   RLX: 0.007
       a = 21.750      CL =  1.1656
      Cm = -0.1254     CD =  0.15486   =>   CDf =  0.00409    CDp =  0.15077

 Side 1  free  transition at x/c =  0.2171   52
 Side 2 forced transition at x/c =  1.0000   64

   7   rms: 0.3015E+01   max: 0.3692E+02   T at   53  1   RLX: 0.029
       a = 21.750      CL =  1.1509
      Cm = -0.1314     CD =  0.24674   =>   CDf =  0.00400    CDp =  0.24274

 Side 1  free  transition at x/c =  0.1658   50
 Side 2 forced transition at x/c =  1.0000   63

   8   rms: 0.1257E+01   max: 0.3007E+02   T at   50  1   RLX: 0.050
       a = 21.750      CL =  1.1787
      Cm = -0.1415     CD =  0.24026   =>   CDf =  0.00421    CDp =  0.23605

 Side 1  free  transition at x/c =  0.2066   53
 Side 2 forced transition at x/c =  1.0000   63

   9   rms: 0.6092E+00   max: 0.1248E+02   T at   53  1   RLX: 0.120
       a = 21.750      CL =  1.2076
      Cm = -0.1444     CD =  0.23096   =>   CDf =  0.00417    CDp =  0.22679

 Side 1  free  transition at x/c =  0.1259   47
 Side 2 forced transition at x/c =  1.0000   63

  10   rms: 0.4478E+00   max: 0.9169E+01   T at   47  1   RLX: 0.164
       a = 21.750      CL =  1.1722
      Cm = -0.1411     CD =  0.23711   =>   CDf =  0.00423    CDp =  0.23288

 Side 1  free  transition at x/c =  0.1116   46
 Side 2 forced transition at x/c =  1.0000   63

  11   rms: 0.4534E+00   max: 0.6190E+01   T at   46  1   RLX: 0.242
       a = 21.750      CL =  1.1221
      Cm = -0.1234     CD =  0.22820   =>   CDf =  0.00429    CDp =  0.22392

 Side 1  free  transition at x/c =  0.1088   45
 Side 2 forced transition at x/c =  1.0000   63
 idif Ue xi dudx           1  9.60626975E-02  6.44278526E-03   14.910119    
 Uenew xinew           2  2.83428151E-02  1.90091133E-03

  12   rms: 0.2691E+00   max: 0.1791E+01   T at   45  1   RLX: 0.552
       a = 21.750      CL =  0.9443
      Cm = -0.0796     CD =  0.22652   =>   CDf =  0.00456    CDp =  0.22197

 Side 1  free  transition at x/c =  0.0900   42
 Side 2 forced transition at x/c =  1.0000   64

  13   rms: 0.1727E+00   max: -.6079E+00   D at   43  1   RLX: 0.823
       a = 21.750      CL =  0.8173
      Cm = -0.0494     CD =  0.18574   =>   CDf =  0.00447    CDp =  0.18127

 Side 1  free  transition at x/c =  0.0885   42
 Side 2 forced transition at x/c =  1.0000   64

  14   rms: 0.8549E-01   max: 0.4037E+00   C at   64  2
       a = 21.750      CL =  0.8087
      Cm = -0.0389     CD =  0.21771   =>   CDf =  0.00457    CDp =  0.21314

 Side 1  free  transition at x/c =  0.0885   42
 Side 2 forced transition at x/c =  1.0000   64

  15   rms: 0.3328E-01   max: 0.2536E+00   C at   64  2
       a = 21.750      CL =  0.8278
      Cm = -0.0421     CD =  0.24438   =>   CDf =  0.00445    CDp =  0.23993

 Side 1  free  transition at x/c =  0.0869   42
 Side 2 forced transition at x/c =  1.0000   64

  16   rms: 0.6445E-02   max: 0.6432E-01   C at   64  2
       a = 21.750      CL =  0.8306
      Cm = -0.0428     CD =  0.24556   =>   CDf =  0.00437    CDp =  0.24119

 Side 1  free  transition at x/c =  0.0869   42
 Side 2 forced transition at x/c =  1.0000   64

  17   rms: 0.1564E-02   max: 0.1033E-01   C at   64  2
       a = 21.750      CL =  0.8315
      Cm = -0.0428     CD =  0.24644   =>   CDf =  0.00436    CDp =  0.24208

 Side 1  free  transition at x/c =  0.0868   42
 Side 2 forced transition at x/c =  1.0000   64

  18   rms: 0.1990E-03   max: 0.2794E-02   C at   64  2
       a = 21.750      CL =  0.8316
      Cm = -0.0429     CD =  0.24674   =>   CDf =  0.00435    CDp =  0.24239

 Side 1  free  transition at x/c =  0.0868   42
 Side 2 forced transition at x/c =  1.0000   64

  19   rms: 0.3913E-05   max: 0.3575E-04   C at   64  2
       a = 21.750      CL =  0.8316
      Cm = -0.0429     CD =  0.24675   =>   CDf =  0.00435    CDp =  0.24239
 plradd ia,ip,cpol           30           0 -1.52827287E-03

 Point added to stored polar  1
 Point written to save file  marske5_Re200k.ext.pol                          
 Dump file unspecified or not available
 Calculating wake trajectory ...
 Calculating source influence matrix ...

 Solving BL system ...

 Side 1  free  transition at x/c =  0.0868   42
 Side 2 forced transition at x/c =  1.0000   64

   1   rms: 0.6221E-01   max: 0.1111E+01   T at   42  1   RLX: 0.266
       a = 22.250      CL =  0.8348
      Cm = -0.0438     CD =  0.24879   =>   CDf =  0.00435    CDp =  0.24444

 Side 1  free  transition at x/c =  0.0847   42
 Side 2 forced transition at x/c =  1.0000   64

   2   rms: 0.5876E-01   max: 0.6546E+00   T at   42  1
       a = 22.250      CL =  0.8542
      Cm = -0.0442     CD =  0.24807   =>   CDf =  0.00411    CDp =  0.24396

 Side 1  free  transition at x/c =  0.0819   42
 Side 2 forced transition at x/c =  1.0000   63

   3   rms: 0.4221E-01   max: -.1479E+00   D at   42  1
       a = 22.250      CL =  0.8564
      Cm = -0.0417     CD =  0.23950   =>   CDf =  0.00428    CDp =  0.23522

 Side 1  free  transition at x/c =  0.0943   44
 Side 2 forced transition at x/c =  1.0000   63

   4   rms: 0.2037E+00   max: 0.2161E+01   T at   44  1   RLX: 0.694
       a = 22.250      CL =  0.8496
      Cm = -0.0314     CD =  0.26057   =>   CDf =  0.00425    CDp =  0.25633

 Side 1  free  transition at x/c =  0.0830   43
 Side 2 forced transition at x/c =  1.0000   63

   5   rms: 0.1062E+00   max: 0.1133E+01   T at   43  1   RLX: 0.743
       a = 22.250      CL =  0.8952
      Cm = -0.0464     CD =  0.25673   =>   CDf =  0.00418    CDp =  0.25255

 Side 1  free  transition at x/c =  0.0822   42
 Side 2 forced transition at x/c =  1.0000   63

   6   rms: 0.4562E-01   max: -.3136E+00   D at   43  1
       a = 22.250      CL =  0.8720
      Cm = -0.0426     CD =  0.26174   =>   CDf =  0.00419    CDp =  0.25755

 Side 1  free  transition at x/c =  0.0823   42
 Side 2 forced transition at x/c =  1.0000   63

   7   rms: 0.3147E-01   max: 0.1271E+00   D at   43  1
       a = 22.250      CL =  0.8662
      Cm = -0.0435     CD =  0.25978   =>   CDf =  0.00421    CDp =  0.25558

 Side 1  free  transition at x/c =  0.0823   42
 Side 2 forced transition at x/c =  1.0000   63

   8   rms: 0.1245E-01   max: -.8157E-01   C at   63  2
       a = 22.250      CL =  0.8651
      Cm = -0.0422     CD =  0.25258   =>   CDf =  0.00422    CDp =  0.24836

 Side 1  free  transition at x/c =  0.0823   42
 Side 2 forced transition at x/c =  1.0000   63

   9   rms: 0.2647E-02   max: -.1670E-01   C at   63  2
       a = 22.250      CL =  0.8655
      Cm = -0.0420     CD =  0.25067   =>   CDf =  0.00424    CDp =  0.24643

 Side 1  free  transition at x/c =  0.0824   42
 Side 2 forced transition at x/c =  1.0000   63

  10   rms: 0.4424E-03   max: -.3179E-02   C at   63  2
       a = 22.250      CL =  0.8654
      Cm = -0.0420     CD =  0.25025   =>   CDf =  0.00424    CDp =  0.24601

 Side 1  free  transition at x/c =  0.0824   42
 Side 2 forced transition at x/c =  1.0000   63

  11   rms: 0.3861E-04   max: -.1503E-03   D at   71  2
       a = 22.250      CL =  0.8654
      Cm = -0.0420     CD =  0.25025   =>   CDf =  0.00424    CDp =  0.24601
 plradd ia,ip,cpol           31           0 -1.99935329E-03

 Point added to stored polar  1
 Point written to save file  marske5_Re200k.ext.pol                          
 Dump file unspecified or not available

.OPERva   c>  
 Polar accumulation disabled

.OPERv   c>  
 XFOIL   c>  
 XFOIL   c>  