
 ===================================================
  XFOIL Version 6.99
  Copyright (C) 2000   Mark Drela, Harold Youngren

  This software comes with ABSOLUTELY NO WARRANTY,
    subject to the GNU General Public License.

  Caveat computor
 ===================================================

 File  xfoil.def  not found

   QUIT    Exit program

  .OPER    Direct operating point(s)
  .MDES    Complex mapping design routine
  .QDES    Surface speed design routine
  .GDES    Geometry design routine

   SAVE f  Write airfoil to labeled coordinate file
   PSAV f  Write airfoil to plain coordinate file
   ISAV f  Write airfoil to ISES coordinate file
   MSAV f  Write airfoil to MSES coordinate file
   REVE    Reverse written-airfoil node ordering

   LOAD f  Read buffer airfoil from coordinate file
   NACA i  Set NACA 4,5-digit airfoil and buffer airfoil
   INTE    Set buffer airfoil by interpolating two airfoils
   NORM    Buffer airfoil normalization toggle
   XYCM rr Change CM reference location, currently  0.25000 0.00000

   BEND    Display structural properties of current airfoil

   PCOP    Set current-airfoil panel nodes directly from buffer airfoil points
   PANE    Set current-airfoil panel nodes ( 160 ) based on curvature
  .PPAR    Show/change paneling

  .PLOP    Plotting options

   WDEF f  Write  current-settings file
   RDEF f  Reread current-settings file
   NAME s  Specify new airfoil name
   NINC    Increment name version number

   Z       Zoom    | (available in all menus)
   U       Unzoom  | 

 XFOIL   c>  
 Labeled airfoil file.  Name:  MH 102  16.99%                                  

 Number of input coordinate points:  68
 Counterclockwise ordering
 Max thickness =     0.169985  at x =   0.277
 Max camber    =     0.030071  at x =   0.376

  LE  x,y  =   0.00000  -0.00007  |   Chord =   1.00000
  TE  x,y  =   1.00000   0.00000  |

 Current airfoil nodes set from buffer airfoil nodes (  68 )

 XFOIL   c>  
 XFOIL   c>  
 Sharp trailing edge

 Paneling parameters used...
   Number of panel nodes       160
   Panel bunching parameter    1.000
   TE/LE panel density ratio   0.150
   Refined-area/LE panel density ratio    0.200
   Top    side refined area x/c limits  1.000 1.000
   Bottom side refined area x/c limits  1.000 1.000

 XFOIL   c>  
.OPERi   c>  
 Xtr/c     =  1.0000    top    side
 Xtr/c     =  1.0000    bottom side
 Ncrit     =    9.00   ( 0.070 % turb. level )
 Vacc      =  0.0100

 Klag  =  5.6000     Uxwt  =    1.00
 A     =  6.7000     B     =  0.7500       KCt = 0.01485
 CtiniK=  1.8000     CtiniX=  3.3000

..VPAR   c>  
..VPAR   c>  
.OPERi   c>  
 M  =    0.0000
 Re =    500000

.OPERv   c>  
.OPERv   c>  
.OPERv   c>  
 Polar  1 newly created for accumulation
 Airfoil archived with polar: MH 102  16.99%                                  

Enter  polar save filename  OR  <return> for no file   s>  
 New polar save file available

Enter  polar dump filename  OR  <return> for no file   s>  
 Polar dump file will NOT be written

 Polar accumulation enabled

.OPERva   c>   Calculating unit vorticity distributions ...
 Calculating wake trajectory ...
 Calculating source influence matrix ...

 Solving BL system ...

 Initializing BL ...
    side            1  ...
 MRCHUE: Inverse mode at  46     Hk =   4.309
 MRCHUE: Inverse mode at  47     Hk =   5.175
 MRCHUE: Inverse mode at  48     Hk =   6.023
 MRCHUE: Inverse mode at  49     Hk =   6.857
 MRCHUE: Inverse mode at  50     Hk =   7.682
 MRCHUE: Inverse mode at  51     Hk =   8.500
 MRCHUE: Inverse mode at  52     Hk =   4.816
 MRCHUE: Inverse mode at  53     Hk =   2.718
    side            2  ...
 MRCHUE: Inverse mode at  40     Hk =   4.746
 MRCHUE: Inverse mode at  41     Hk =   5.897
 MRCHUE: Inverse mode at  42     Hk =   7.043
 MRCHUE: Inverse mode at  43     Hk =   8.190
 MRCHUE: Inverse mode at  44     Hk =   9.339
 MRCHUE: Inverse mode at  45     Hk =   3.912
 MRCHUE: Inverse mode at  46     Hk =   2.500

 Side 1  free  transition at x/c =  0.5694   52
 Side 2  free  transition at x/c =  0.2397   45

   1   rms: 0.2476E+00   max: -.1626E+01   T at   52  1   RLX: 0.307
       a = -4.000      CL = -0.1412
      Cm = -0.0586     CD =  0.01184   =>   CDf =  0.00756    CDp =  0.00428

 Side 1  free  transition at x/c =  0.5782   52
 Side 2  free  transition at x/c =  0.2453   45

   2   rms: 0.1244E+00   max: -.9569E+00   T at   52  1   RLX: 0.523
       a = -4.000      CL = -0.1419
      Cm = -0.0578     CD =  0.01181   =>   CDf =  0.00740    CDp =  0.00441

 Side 1  free  transition at x/c =  0.6017   53
 Side 2  free  transition at x/c =  0.2513   45

   3   rms: 0.6439E-01   max: -.5080E+00   T at   53  1   RLX: 0.984
       a = -4.000      CL = -0.1229
      Cm = -0.0611     CD =  0.01056   =>   CDf =  0.00715    CDp =  0.00341

 Side 1  free  transition at x/c =  0.6450   56
 Side 2  free  transition at x/c =  0.2607   46

   4   rms: 0.1497E-01   max: 0.1909E+00   C at   56  1
       a = -4.000      CL = -0.1186
      Cm = -0.0622     CD =  0.01035   =>   CDf =  0.00674    CDp =  0.00360

 Side 1  free  transition at x/c =  0.6373   55
 Side 2  free  transition at x/c =  0.2612   46

   5   rms: 0.2919E-02   max: -.3585E-01   D at   55  1
       a = -4.000      CL = -0.1179
      Cm = -0.0623     CD =  0.01030   =>   CDf =  0.00675    CDp =  0.00355

 Side 1  free  transition at x/c =  0.6361   55
 Side 2  free  transition at x/c =  0.2612   46

   6   rms: 0.7598E-04   max: -.1311E-02   C at   55  1
       a = -4.000      CL = -0.1179
      Cm = -0.0623     CD =  0.01030   =>   CDf =  0.00675    CDp =  0.00356
 plradd ia,ip,cpol            1           0  7.13329613E-02

 Point added to stored polar  1
 Point written to save file  mh102_Re500k.base.pol                           
 Dump file unspecified or not available
 Calculating wake trajectory ...
 Calculating source influence matrix ...

 Solving BL system ...

 Side 1  free  transition at x/c =  0.6362   55
 Side 2  free  transition at x/c =  0.2612   46

   1   rms: 0.7772E-01   max: 0.3010E+00   D at   46  2
       a = -3.500      CL = -0.0638
      Cm = -0.0618     CD =  0.01005   =>   CDf =  0.00675    CDp =  0.00330

 Side 1  free  transition at x/c =  0.6144   54
 Side 2  free  transition at x/c =  0.2716   46

   2   rms: 0.1652E-01   max: -.1581E+00   D at   46  2
       a = -3.500      CL = -0.0632
      Cm = -0.0617     CD =  0.01021   =>   CDf =  0.00692    CDp =  0.00329

 Side 1  free  transition at x/c =  0.6167   54
 Side 2  free  transition at x/c =  0.2729   46

   3   rms: 0.1352E-02   max: 0.2208E-01   C at   54  1
       a = -3.500      CL = -0.0632
      Cm = -0.0618     CD =  0.01021   =>   CDf =  0.00685    CDp =  0.00336

 Side 1  free  transition at x/c =  0.6161   54
 Side 2  free  transition at x/c =  0.2728   46

   4   rms: 0.1062E-04   max: -.1432E-03   D at   56  1
       a = -3.500      CL = -0.0632
      Cm = -0.0618     CD =  0.01021   =>   CDf =  0.00685    CDp =  0.00336
 plradd ia,ip,cpol            2           0  7.96563327E-02

 Point added to stored polar  1
 Point written to save file  mh102_Re500k.base.pol                           
 Dump file unspecified or not available
 Calculating wake trajectory ...
 Calculating source influence matrix ...

 Solving BL system ...

 Side 1  free  transition at x/c =  0.6161   54
 Side 2  free  transition at x/c =  0.2728   46

   1   rms: 0.7666E-01   max: 0.3103E+00   C at   46  2
       a = -3.000      CL = -0.0072
      Cm = -0.0614     CD =  0.01022   =>   CDf =  0.00690    CDp =  0.00331

 MRCHDU: Convergence failed at  46  side 2    Res =  0.4182E+01
 MRCHDU: Convergence failed at  47  side 2    Res =  0.1998E+01
 MRCHDU: Convergence failed at  48  side 2    Res =  0.3366E+02
 MRCHDU: Convergence failed at  49  side 2    Res =  0.6825E+01
 MRCHDU: Convergence failed at  50  side 2    Res =  0.6519E+01
 MRCHDU: Convergence failed at  51  side 2    Res =  0.7693E+01
 MRCHDU: Convergence failed at  52  side 2    Res =  0.1001E+02
 MRCHDU: Convergence failed at  53  side 2    Res =  0.1411E+02
 MRCHDU: Convergence failed at  54  side 2    Res =  0.2267E+02
 MRCHDU: Convergence failed at  55  side 2    Res =  0.4754E+02
 MRCHDU: Convergence failed at  56  side 2    Res =  0.3018E+03
 MRCHDU: Convergence failed at  57  side 2    Res =  0.8707E+02
 MRCHDU: Convergence failed at  58  side 2    Res =  0.4022E+02
 MRCHDU: Convergence failed at  59  side 2    Res =  0.2828E+02
 MRCHDU: Convergence failed at  60  side 2    Res =  0.2183E+02
 MRCHDU: Convergence failed at  61  side 2    Res =  0.1865E+02
 MRCHDU: Convergence failed at  62  side 2    Res =  0.1621E+02
 MRCHDU: Convergence failed at  63  side 2    Res =  0.1471E+02
 MRCHDU: Convergence failed at  64  side 2    Res =  0.1335E+02
 MRCHDU: Convergence failed at  65  side 2    Res =  0.1230E+02
 MRCHDU: Convergence failed at  66  side 2    Res =  0.1146E+02
 MRCHDU: Convergence failed at  67  side 2    Res =  0.1079E+02
 MRCHDU: Convergence failed at  68  side 2    Res =  0.1024E+02
 MRCHDU: Convergence failed at  69  side 2    Res =  0.9837E+01
 MRCHDU: Convergence failed at  70  side 2    Res =  0.9381E+01
 MRCHDU: Convergence failed at  71  side 2    Res =  0.9070E+01
 MRCHDU: Convergence failed at  72  side 2    Res =  0.8007E+01
 MRCHDU: Convergence failed at  73  side 2    Res =  0.8557E+01
 MRCHDU: Convergence failed at  74  side 2    Res =  0.9294E+01
 MRCHDU: Convergence failed at  75  side 2    Res =  0.1012E+02
 MRCHDU: Convergence failed at  76  side 2    Res =  0.1113E+02
 MRCHDU: Convergence failed at  77  side 2    Res =  0.1213E+02
 MRCHDU: Convergence failed at  78  side 2    Res =  0.1340E+02
 MRCHDU: Convergence failed at  79  side 2    Res =  0.1503E+02
 MRCHDU: Convergence failed at  80  side 2    Res =  0.1708E+02
 MRCHDU: Convergence failed at  81  side 2    Res =  0.2002E+02
 MRCHDU: Convergence failed at  82  side 2    Res =  0.2467E+02
 MRCHDU: Convergence failed at  83  side 2    Res =  0.1578E+02
 MRCHDU: Convergence failed at  84  side 2    Res =  0.2208E+02
 MRCHDU: Convergence failed at  85  side 2    Res =  0.4060E+02
 Side 1  free  transition at x/c =  0.5967   54
 Side 2  free  transition at x/c =  0.2854   46

   2   rms: 0.4123E+00   max: 0.1575E+01   T at   85  2   RLX: 0.763
       a = -3.000      CL = -0.0393
      Cm = -0.0319     CD =  0.00680   =>   CDf =  0.00422    CDp =  0.00259

 Side 1  free  transition at x/c =  0.5948   55
 Side 2  free  transition at x/c =  0.2915   46
 idif Ue xi dudx           1  0.14039311      3.84724140E-03   36.491890    
 Uenew xinew           2  4.67425995E-02  1.28090382E-03

   3   rms: 0.1315E+00   max: -.7211E+00   D at   82  2   RLX: 0.693
       a = -3.000      CL = -0.0611
      Cm = -0.0440     CD =  0.00987   =>   CDf =  0.00727    CDp =  0.00260

 Side 1  free  transition at x/c =  0.5985   54
 Side 2  free  transition at x/c =  0.2817   46

   4   rms: 0.4336E-01   max: -.3258E+00   D at   83  2
       a = -3.000      CL = -0.0143
      Cm = -0.0601     CD =  0.01001   =>   CDf =  0.00707    CDp =  0.00294

 Side 1  free  transition at x/c =  0.5973   54
 Side 2  free  transition at x/c =  0.2869   46

   5   rms: 0.6024E-02   max: -.6674E-01   D at   83  2
       a = -3.000      CL = -0.0091
      Cm = -0.0612     CD =  0.01005   =>   CDf =  0.00688    CDp =  0.00317

 Side 1  free  transition at x/c =  0.5971   54
 Side 2  free  transition at x/c =  0.2866   46

   6   rms: 0.1462E-03   max: -.2488E-02   D at   83  2
       a = -3.000      CL = -0.0091
      Cm = -0.0612     CD =  0.01005   =>   CDf =  0.00689    CDp =  0.00316

 Side 1  free  transition at x/c =  0.5971   54
 Side 2  free  transition at x/c =  0.2865   46

   7   rms: 0.5056E-06   max: -.4640E-05   C at   54  1
       a = -3.000      CL = -0.0091
      Cm = -0.0612     CD =  0.01005   =>   CDf =  0.00689    CDp =  0.00316
 plradd ia,ip,cpol            3           0  8.87672007E-02

 Point added to stored polar  1
 Point written to save file  mh102_Re500k.base.pol                           
 Dump file unspecified or not available
 Calculating wake trajectory ...
 Calculating source influence matrix ...

 Solving BL system ...

 Side 1  free  transition at x/c =  0.5971   54
 Side 2  free  transition at x/c =  0.2866   46

   1   rms: 0.7571E-01   max: -.2630E+00   T at   46  2
       a = -2.500      CL =  0.0463
      Cm = -0.0607     CD =  0.00999   =>   CDf =  0.00692    CDp =  0.00307

 Side 1  free  transition at x/c =  0.5787   54
 Side 2  free  transition at x/c =  0.3023   46

   2   rms: 0.1131E-01   max: -.1339E+00   D at   54  1
       a = -2.500      CL =  0.0453
      Cm = -0.0606     CD =  0.00994   =>   CDf =  0.00696    CDp =  0.00298

 Side 1  free  transition at x/c =  0.5796   54
 Side 2  free  transition at x/c =  0.3017   46

   3   rms: 0.1080E-02   max: 0.1547E-01   C at   54  1
       a = -2.500      CL =  0.0453
      Cm = -0.0606     CD =  0.00995   =>   CDf =  0.00693    CDp =  0.00302

 Side 1  free  transition at x/c =  0.5793   54
 Side 2  free  transition at x/c =  0.3016   46

   4   rms: 0.6195E-05   max: -.7449E-04   D at   54  1
       a = -2.500      CL =  0.0453
      Cm = -0.0606     CD =  0.00995   =>   CDf =  0.00693    CDp =  0.00301
 plradd ia,ip,cpol            4           0  9.86862406E-02

 Point added to stored polar  1
 Point written to save file  mh102_Re500k.base.pol                           
 Dump file unspecified or not available
 Calculating wake trajectory ...
 Calculating source influence matrix ...

 Solving BL system ...

 Side 1  free  transition at x/c =  0.5793   54
 Side 2  free  transition at x/c =  0.3016   46

   1   rms: 0.7755E-01   max: -.2734E+00   T at   46  2
       a = -2.000      CL =  0.1003
      Cm = -0.0602     CD =  0.00986   =>   CDf =  0.00696    CDp =  0.00290

 Side 1  free  transition at x/c =  0.5609   54
 Side 2  free  transition at x/c =  0.3157   46

   2   rms: 0.1373E-01   max: -.1361E+00   D at   54  1
       a = -2.000      CL =  0.0996
      Cm = -0.0600     CD =  0.00986   =>   CDf =  0.00704    CDp =  0.00281

 Side 1  free  transition at x/c =  0.5621   54
 Side 2  free  transition at x/c =  0.3187   46

   3   rms: 0.1068E-02   max: 0.1547E-01   C at   54  1
       a = -2.000      CL =  0.0998
      Cm = -0.0601     CD =  0.00987   =>   CDf =  0.00697    CDp =  0.00290

 Side 1  free  transition at x/c =  0.5617   54
 Side 2  free  transition at x/c =  0.3186   46

   4   rms: 0.6627E-05   max: -.8140E-04   D at   55  1
       a = -2.000      CL =  0.0998
      Cm = -0.0601     CD =  0.00987   =>   CDf =  0.00698    CDp =  0.00290
 plradd ia,ip,cpol            5           0  9.86862406E-02

 Point added to stored polar  1
 Point written to save file  mh102_Re500k.base.pol                           
 Dump file unspecified or not available
 Calculating wake trajectory ...
 Calculating source influence matrix ...

 Solving BL system ...

 Side 1  free  transition at x/c =  0.5617   54
 Side 2  free  transition at x/c =  0.3186   46

   1   rms: 0.7818E-01   max: 0.2842E+00   D at   46  2
       a = -1.500      CL =  0.1547
      Cm = -0.0597     CD =  0.00977   =>   CDf =  0.00699    CDp =  0.00278

 Side 1  free  transition at x/c =  0.5452   54
 Side 2  free  transition at x/c =  0.3365   46

   2   rms: 0.9819E-02   max: -.1009E+00   C at   54  1
       a = -1.500      CL =  0.1542
      Cm = -0.0596     CD =  0.00981   =>   CDf =  0.00705    CDp =  0.00276

 Side 1  free  transition at x/c =  0.5459   54
 Side 2  free  transition at x/c =  0.3386   46

   3   rms: 0.5720E-03   max: 0.6717E-02   C at   54  1
       a = -1.500      CL =  0.1543
      Cm = -0.0596     CD =  0.00982   =>   CDf =  0.00700    CDp =  0.00282

 Side 1  free  transition at x/c =  0.5457   54
 Side 2  free  transition at x/c =  0.3385   46

   4   rms: 0.2321E-05   max: -.1974E-04   D at   54  1
       a = -1.500      CL =  0.1543
      Cm = -0.0596     CD =  0.00982   =>   CDf =  0.00700    CDp =  0.00282
 plradd ia,ip,cpol            6           0  0.24286090    

 Point added to stored polar  1
 Point written to save file  mh102_Re500k.base.pol                           
 Dump file unspecified or not available
 Calculating wake trajectory ...
 Calculating source influence matrix ...

 Solving BL system ...

 Side 1  free  transition at x/c =  0.5457   54
 Side 2  free  transition at x/c =  0.3385   46

   1   rms: 0.7841E-01   max: 0.2985E+00   D at   46  2
       a = -1.000      CL =  0.2098
      Cm = -0.0593     CD =  0.00973   =>   CDf =  0.00700    CDp =  0.00273

 Side 1  free  transition at x/c =  0.5283   53
 Side 2  free  transition at x/c =  0.3586   47

   2   rms: 0.9931E-02   max: -.9896E-01   C at   53  1
       a = -1.000      CL =  0.2086
      Cm = -0.0590     CD =  0.00979   =>   CDf =  0.00707    CDp =  0.00272

 Side 1  free  transition at x/c =  0.5303   53
 Side 2  free  transition at x/c =  0.3618   47

   3   rms: 0.4711E-03   max: -.5891E-02   C at   47  2
       a = -1.000      CL =  0.2087
      Cm = -0.0591     CD =  0.00980   =>   CDf =  0.00702    CDp =  0.00278

 Side 1  free  transition at x/c =  0.5300   53
 Side 2  free  transition at x/c =  0.3619   47

   4   rms: 0.2935E-05   max: -.3928E-04   C at   53  1
       a = -1.000      CL =  0.2087
      Cm = -0.0591     CD =  0.00980   =>   CDf =  0.00702    CDp =  0.00278
 plradd ia,ip,cpol            7           0  0.22741027    

 Point added to stored polar  1
 Point written to save file  mh102_Re500k.base.pol                           
 Dump file unspecified or not available
 Calculating wake trajectory ...
 Calculating source influence matrix ...

 Solving BL system ...

 Side 1  free  transition at x/c =  0.5300   53
 Side 2  free  transition at x/c =  0.3619   47

   1   rms: 0.7662E-01   max: -.2452E+00   T at   47  2
       a = -0.500      CL =  0.2652
      Cm = -0.0589     CD =  0.00973   =>   CDf =  0.00702    CDp =  0.00272

 Side 1  free  transition at x/c =  0.5133   53
 Side 2  free  transition at x/c =  0.3870   48

   2   rms: 0.1114E-01   max: -.1101E+00   D at   47  2
       a = -0.500      CL =  0.2627
      Cm = -0.0585     CD =  0.00979   =>   CDf =  0.00709    CDp =  0.00270

 Side 1  free  transition at x/c =  0.5149   54
 Side 2  free  transition at x/c =  0.3892   48

   3   rms: 0.5130E-02   max: -.6744E-01   D at   53  1
       a = -0.500      CL =  0.2630
      Cm = -0.0585     CD =  0.00975   =>   CDf =  0.00703    CDp =  0.00272

 Side 1  free  transition at x/c =  0.5155   54
 Side 2  free  transition at x/c =  0.3883   48

   4   rms: 0.5661E-03   max: -.6180E-02   D at   55  1
       a = -0.500      CL =  0.2631
      Cm = -0.0586     CD =  0.00976   =>   CDf =  0.00700    CDp =  0.00276

 Side 1  free  transition at x/c =  0.5153   54
 Side 2  free  transition at x/c =  0.3883   48

   5   rms: 0.5714E-05   max: -.8037E-04   D at   55  1
       a = -0.500      CL =  0.2631
      Cm = -0.0586     CD =  0.00976   =>   CDf =  0.00700    CDp =  0.00276
 plradd ia,ip,cpol            8           0  0.21219648    

 Point added to stored polar  1
 Point written to save file  mh102_Re500k.base.pol                           
 Dump file unspecified or not available
 Calculating wake trajectory ...
 Calculating source influence matrix ...

 Solving BL system ...

 Side 1  free  transition at x/c =  0.5153   54
 Side 2  free  transition at x/c =  0.3883   48

   1   rms: 0.8673E-01   max: -.5270E+00   C at   48  2   RLX: 0.949
       a =  0.000      CL =  0.3130
      Cm = -0.0579     CD =  0.00979   =>   CDf =  0.00698    CDp =  0.00280

 Side 1  free  transition at x/c =  0.5032   54
 Side 2  free  transition at x/c =  0.4107   48

   2   rms: 0.2595E-01   max: -.2582E+00   C at   48  2
       a =  0.000      CL =  0.3174
      Cm = -0.0581     CD =  0.00964   =>   CDf =  0.00700    CDp =  0.00265

 Side 1  free  transition at x/c =  0.5021   54
 Side 2  free  transition at x/c =  0.4200   48

   3   rms: 0.4685E-02   max: -.8626E-01   C at   48  2
       a =  0.000      CL =  0.3176
      Cm = -0.0581     CD =  0.00972   =>   CDf =  0.00694    CDp =  0.00278

 Side 1  free  transition at x/c =  0.5015   54
 Side 2  free  transition at x/c =  0.4212   48

   4   rms: 0.1301E-03   max: 0.2144E-02   C at   48  2
       a =  0.000      CL =  0.3176
      Cm = -0.0581     CD =  0.00972   =>   CDf =  0.00694    CDp =  0.00278

 Side 1  free  transition at x/c =  0.5015   54
 Side 2  free  transition at x/c =  0.4211   48

   5   rms: 0.5674E-06   max: -.5802E-05   D at   54  1
       a =  0.000      CL =  0.3176
      Cm = -0.0581     CD =  0.00972   =>   CDf =  0.00694    CDp =  0.00278
 plradd ia,ip,cpol            9           0  0.19727321    

 Point added to stored polar  1
 Point written to save file  mh102_Re500k.base.pol                           
 Dump file unspecified or not available
 Calculating wake trajectory ...
 Calculating source influence matrix ...

 Solving BL system ...

 Side 1  free  transition at x/c =  0.5015   54
 Side 2  free  transition at x/c =  0.4211   48

   1   rms: 0.7766E-01   max: -.2237E+00   T at   48  2
       a =  0.500      CL =  0.3725
      Cm = -0.0577     CD =  0.00984   =>   CDf =  0.00691    CDp =  0.00293

 Side 1  free  transition at x/c =  0.4896   54
 Side 2  free  transition at x/c =  0.4570   49

   2   rms: 0.1289E-01   max: 0.1418E+00   D at   49  2
       a =  0.500      CL =  0.3714
      Cm = -0.0575     CD =  0.00966   =>   CDf =  0.00687    CDp =  0.00280

 Side 1  free  transition at x/c =  0.4890   54
 Side 2  free  transition at x/c =  0.4594   49

   3   rms: 0.1027E-02   max: 0.1735E-01   C at   49  2
       a =  0.500      CL =  0.3716
      Cm = -0.0576     CD =  0.00969   =>   CDf =  0.00685    CDp =  0.00284

 Side 1  free  transition at x/c =  0.4889   54
 Side 2  free  transition at x/c =  0.4589   49

   4   rms: 0.4507E-05   max: -.7710E-04   C at   49  2
       a =  0.500      CL =  0.3716
      Cm = -0.0576     CD =  0.00969   =>   CDf =  0.00685    CDp =  0.00283
 plradd ia,ip,cpol           10           0  0.18269379    

 Point added to stored polar  1
 Point written to save file  mh102_Re500k.base.pol                           
 Dump file unspecified or not available
 Calculating wake trajectory ...
 Calculating source influence matrix ...

 Solving BL system ...

 Side 1  free  transition at x/c =  0.4889   54
 Side 2  free  transition at x/c =  0.4589   49

   1   rms: 0.7931E-01   max: -.4973E+00   C at   49  2
       a =  1.000      CL =  0.4268
      Cm = -0.0572     CD =  0.00972   =>   CDf =  0.00681    CDp =  0.00291

 Side 1  free  transition at x/c =  0.4759   54
 Side 2  free  transition at x/c =  0.4978   50
 idif Ue xi dudx           1  0.14050816      2.08234787E-03   67.475838    
 Uenew xinew           2  4.82624804E-04  7.15255737E-06

   2   rms: 0.1836E-01   max: -.2663E+00   C at   50  2
       a =  1.000      CL =  0.4252
      Cm = -0.0570     CD =  0.00973   =>   CDf =  0.00693    CDp =  0.00280

 Side 1  free  transition at x/c =  0.4768   53
 Side 2  free  transition at x/c =  0.5131   52

   3   rms: 0.1270E-01   max: 0.1976E+00   C at   52  2
       a =  1.000      CL =  0.4247
      Cm = -0.0569     CD =  0.00968   =>   CDf =  0.00673    CDp =  0.00295

 Side 1  free  transition at x/c =  0.4768   53
 Side 2  free  transition at x/c =  0.5079   52

   4   rms: 0.4064E-03   max: -.6267E-02   D at   54  2
       a =  1.000      CL =  0.4246
      Cm = -0.0569     CD =  0.00968   =>   CDf =  0.00676    CDp =  0.00292

 Side 1  free  transition at x/c =  0.4768   53
 Side 2  free  transition at x/c =  0.5077   52

   5   rms: 0.3935E-05   max: -.4239E-04   D at    4  2
       a =  1.000      CL =  0.4246
      Cm = -0.0569     CD =  0.00968   =>   CDf =  0.00676    CDp =  0.00292
 plradd ia,ip,cpol           11           0  0.18269379    

 Point added to stored polar  1
 Point written to save file  mh102_Re500k.base.pol                           
 Dump file unspecified or not available
 Calculating wake trajectory ...
 Calculating source influence matrix ...

 Solving BL system ...

 Side 1  free  transition at x/c =  0.4768   53
 Side 2  free  transition at x/c =  0.5077   52

   1   rms: 0.9816E-01   max: -.1224E+01   C at   52  2   RLX: 0.409
       a =  1.500      CL =  0.4468
      Cm = -0.0567     CD =  0.00961   =>   CDf =  0.00671    CDp =  0.00290

 Side 1  free  transition at x/c =  0.4720   54
 Side 2  free  transition at x/c =  0.5257   52

   2   rms: 0.6232E-01   max: -.8393E+00   C at   52  2   RLX: 0.596
       a =  1.500      CL =  0.4658
      Cm = -0.0565     CD =  0.00960   =>   CDf =  0.00669    CDp =  0.00291

 Side 1  free  transition at x/c =  0.4677   54
 Side 2  free  transition at x/c =  0.5428   53

   3   rms: 0.3487E-01   max: -.5694E+00   C at   53  2   RLX: 0.878
       a =  1.500      CL =  0.4764
      Cm = -0.0563     CD =  0.00958   =>   CDf =  0.00665    CDp =  0.00293

 Side 1  free  transition at x/c =  0.4656   54
 Side 2  free  transition at x/c =  0.5571   54

   4   rms: 0.2110E-01   max: -.3344E+00   C at   54  2
       a =  1.500      CL =  0.4777
      Cm = -0.0562     CD =  0.00956   =>   CDf =  0.00665    CDp =  0.00291

 Side 1  free  transition at x/c =  0.4654   54
 Side 2  free  transition at x/c =  0.5721   54

   5   rms: 0.2651E-02   max: 0.4914E-01   C at   54  2
       a =  1.500      CL =  0.4778
      Cm = -0.0562     CD =  0.00959   =>   CDf =  0.00654    CDp =  0.00304

 Side 1  free  transition at x/c =  0.4654   54
 Side 2  free  transition at x/c =  0.5700   54

   6   rms: 0.3678E-04   max: -.7171E-03   C at   54  2
       a =  1.500      CL =  0.4778
      Cm = -0.0562     CD =  0.00959   =>   CDf =  0.00655    CDp =  0.00304
 plradd ia,ip,cpol           12           0  0.16851267    

 Point added to stored polar  1
 Point written to save file  mh102_Re500k.base.pol                           
 Dump file unspecified or not available
 Calculating wake trajectory ...
 Calculating source influence matrix ...

 Solving BL system ...

 Side 1  free  transition at x/c =  0.4654   54
 Side 2  free  transition at x/c =  0.5700   54

   1   rms: 0.9929E-01   max: -.1353E+01   C at   54  2   RLX: 0.370
       a =  2.000      CL =  0.4972
      Cm = -0.0559     CD =  0.00960   =>   CDf =  0.00655    CDp =  0.00305

 Side 1  free  transition at x/c =  0.4613   54
 Side 2  free  transition at x/c =  0.5943   55

   2   rms: 0.6010E-01   max: -.7596E+00   C at   55  2   RLX: 0.658
       a =  2.000      CL =  0.5188
      Cm = -0.0555     CD =  0.00971   =>   CDf =  0.00646    CDp =  0.00325

 Side 1  free  transition at x/c =  0.4572   54
 Side 2  free  transition at x/c =  0.6302   56

   3   rms: 0.2454E-01   max: -.3622E+00   C at   56  2
       a =  2.000      CL =  0.5296
      Cm = -0.0552     CD =  0.00953   =>   CDf =  0.00641    CDp =  0.00312

 Side 1  free  transition at x/c =  0.4548   54
 Side 2  free  transition at x/c =  0.6465   57

   4   rms: 0.2948E-02   max: -.5999E-01   C at   57  2
       a =  2.000      CL =  0.5295
      Cm = -0.0552     CD =  0.00953   =>   CDf =  0.00633    CDp =  0.00320

 Side 1  free  transition at x/c =  0.4548   54
 Side 2  free  transition at x/c =  0.6486   57

   5   rms: 0.5500E-04   max: -.1115E-02   C at   57  2
       a =  2.000      CL =  0.5295
      Cm = -0.0552     CD =  0.00953   =>   CDf =  0.00632    CDp =  0.00321
 plradd ia,ip,cpol           13           0  0.15478310    

 Point added to stored polar  1
 Point written to save file  mh102_Re500k.base.pol                           
 Dump file unspecified or not available
 Calculating wake trajectory ...
 Calculating source influence matrix ...

 Solving BL system ...

 Side 1  free  transition at x/c =  0.4548   54
 Side 2  free  transition at x/c =  0.6487   57

   1   rms: 0.1059E+00   max: -.1570E+01   C at   57  2   RLX: 0.318
       a =  2.500      CL =  0.5462
      Cm = -0.0549     CD =  0.00950   =>   CDf =  0.00632    CDp =  0.00318

 Side 1  free  transition at x/c =  0.4512   54
 Side 2  free  transition at x/c =  0.6739   59

   2   rms: 0.8156E-01   max: -.1234E+01   C at   59  2   RLX: 0.405
       a =  2.500      CL =  0.5598
      Cm = -0.0545     CD =  0.00946   =>   CDf =  0.00625    CDp =  0.00321

 Side 1  free  transition at x/c =  0.4483   54
 Side 2  free  transition at x/c =  0.6909   59

   3   rms: 0.3823E-01   max: -.4633E+00   C at   59  2
       a =  2.500      CL =  0.5816
      Cm = -0.0542     CD =  0.00956   =>   CDf =  0.00614    CDp =  0.00342

 Side 1  free  transition at x/c =  0.4443   55
 Side 2  free  transition at x/c =  0.7468   61

   4   rms: 0.1546E-01   max: -.2751E+00   C at   61  2
       a =  2.500      CL =  0.5792
      Cm = -0.0536     CD =  0.00945   =>   CDf =  0.00609    CDp =  0.00335

 Side 1  free  transition at x/c =  0.4444   55
 Side 2  free  transition at x/c =  0.7347   61

   5   rms: 0.3287E-02   max: -.5755E-01   C at   61  2
       a =  2.500      CL =  0.5796
      Cm = -0.0538     CD =  0.00948   =>   CDf =  0.00609    CDp =  0.00339

 Side 1  free  transition at x/c =  0.4444   55
 Side 2  free  transition at x/c =  0.7365   61

   6   rms: 0.8483E-04   max: 0.1401E-02   C at   61  2
       a =  2.500      CL =  0.5796
      Cm = -0.0538     CD =  0.00948   =>   CDf =  0.00607    CDp =  0.00341
 plradd ia,ip,cpol           14           0  0.15478310    

 Point added to stored polar  1
 Point written to save file  mh102_Re500k.base.pol                           
 Dump file unspecified or not available
 Calculating wake trajectory ...
 Calculating source influence matrix ...

 Solving BL system ...

 Side 1  free  transition at x/c =  0.4444   55
 Side 2  free  transition at x/c =  0.7365   61

   1   rms: 0.1154E+00   max: -.1787E+01   C at   61  2   RLX: 0.280
       a =  3.000      CL =  0.5931
      Cm = -0.0532     CD =  0.00950   =>   CDf =  0.00608    CDp =  0.00342

 Side 1  free  transition at x/c =  0.4417   54
 Side 2  free  transition at x/c =  0.7573   62

   2   rms: 0.8142E-01   max: -.1246E+01   C at   62  2   RLX: 0.401
       a =  3.000      CL =  0.6080
      Cm = -0.0530     CD =  0.00946   =>   CDf =  0.00604    CDp =  0.00342

 Side 1  free  transition at x/c =  0.4389   54
 Side 2  free  transition at x/c =  0.7818   63

   3   rms: 0.4646E-01   max: -.6924E+00   C at   63  2   RLX: 0.722
       a =  3.000      CL =  0.6237
      Cm = -0.0524     CD =  0.00944   =>   CDf =  0.00593    CDp =  0.00351

 Side 1  free  transition at x/c =  0.4356   54
 Side 2  free  transition at x/c =  0.8176   65

   4   rms: 0.1284E-01   max: -.1946E+00   C at   65  2
       a =  3.000      CL =  0.6286
      Cm = -0.0519     CD =  0.00941   =>   CDf =  0.00580    CDp =  0.00361

 Side 1  free  transition at x/c =  0.4345   54
 Side 2  free  transition at x/c =  0.8281   66

   5   rms: 0.3562E-02   max: -.6896E-01   C at   66  2
       a =  3.000      CL =  0.6286
      Cm = -0.0519     CD =  0.00941   =>   CDf =  0.00577    CDp =  0.00363

 Side 1  free  transition at x/c =  0.4345   54
 Side 2  free  transition at x/c =  0.8299   66

   6   rms: 0.2045E-04   max: -.3577E-03   D at   68  2
       a =  3.000      CL =  0.6286
      Cm = -0.0519     CD =  0.00941   =>   CDf =  0.00576    CDp =  0.00365
 plradd ia,ip,cpol           15           0  0.14156531    

 Point added to stored polar  1
 Point written to save file  mh102_Re500k.base.pol                           
 Dump file unspecified or not available
 Calculating wake trajectory ...
 Calculating source influence matrix ...

 Solving BL system ...

 Side 1  free  transition at x/c =  0.4345   54
 Side 2  free  transition at x/c =  0.8299   66

   1   rms: 0.1170E+00   max: -.1823E+01   C at   66  2   RLX: 0.274
       a =  3.500      CL =  0.6415
      Cm = -0.0512     CD =  0.00938   =>   CDf =  0.00576    CDp =  0.00362

 Side 1  free  transition at x/c =  0.4317   54
 Side 2  free  transition at x/c =  0.8501   67

   2   rms: 0.7990E-01   max: -.1182E+01   C at   67  2   RLX: 0.423
       a =  3.500      CL =  0.6566
      Cm = -0.0508     CD =  0.00942   =>   CDf =  0.00563    CDp =  0.00379

 Side 1  free  transition at x/c =  0.4286   55
 Side 2  free  transition at x/c =  0.8751   67

   3   rms: 0.9946E-01   max: 0.1538E+01   D at    2  1   RLX: 0.671
       a =  3.500      CL =  0.6705
      Cm = -0.0502     CD =  0.00949   =>   CDf =  0.00567    CDp =  0.00382

 Side 1  free  transition at x/c =  0.4259   55
 Side 2  free  transition at x/c =  0.9070   69

   4   rms: 0.1804E-01   max: -.2119E+00   C at   69  2
       a =  3.500      CL =  0.6807
      Cm = -0.0505     CD =  0.00955   =>   CDf =  0.00563    CDp =  0.00392

 Side 1  free  transition at x/c =  0.4243   54
 Side 2  free  transition at x/c =  0.9178   70

   5   rms: 0.5233E-02   max: -.9046E-01   C at   70  2
       a =  3.500      CL =  0.6807
      Cm = -0.0505     CD =  0.00954   =>   CDf =  0.00564    CDp =  0.00390

 Side 1  free  transition at x/c =  0.4243   54
 Side 2  free  transition at x/c =  0.9202   70

   6   rms: 0.1879E-03   max: 0.2388E-02   C at   70  2
       a =  3.500      CL =  0.6809
      Cm = -0.0506     CD =  0.00954   =>   CDf =  0.00563    CDp =  0.00392

 Side 1  free  transition at x/c =  0.4243   54
 Side 2  free  transition at x/c =  0.9202   70

   7   rms: 0.1141E-05   max: -.1077E-04   D at   75  2
       a =  3.500      CL =  0.6809
      Cm = -0.0506     CD =  0.00954   =>   CDf =  0.00563    CDp =  0.00392
 plradd ia,ip,cpol           16           0  0.12892318    

 Point added to stored polar  1
 Point written to save file  mh102_Re500k.base.pol                           
 Dump file unspecified or not available
 Calculating wake trajectory ...
 Calculating source influence matrix ...

 Solving BL system ...

 Side 1  free  transition at x/c =  0.4243   54
 Side 2  free  transition at x/c =  0.9201   70

   1   rms: 0.1164E+00   max: -.1322E+01   C at   70  2   RLX: 0.378
       a =  4.000      CL =  0.7088
      Cm = -0.0518     CD =  0.00954   =>   CDf =  0.00563    CDp =  0.00392

 Side 1  free  transition at x/c =  0.4204   54
 Side 2  free  transition at x/c =  0.9404   71

   2   rms: 0.6138E-01   max: -.4718E+00   C at   71  2
       a =  4.000      CL =  0.7537
      Cm = -0.0537     CD =  0.00968   =>   CDf =  0.00551    CDp =  0.00417

 Side 1  free  transition at x/c =  0.4128   55
 Side 2  free  transition at x/c =  0.9756   72

   3   rms: 0.1206E-01   max: 0.9648E-01   D at   74  2
       a =  4.000      CL =  0.7648
      Cm = -0.0562     CD =  0.00975   =>   CDf =  0.00558    CDp =  0.00417

 Side 1  free  transition at x/c =  0.4130   55
 Side 2  free  transition at x/c =  0.9725   72

   4   rms: 0.6151E-03   max: -.5491E-02   D at    4  1
       a =  4.000      CL =  0.7647
      Cm = -0.0562     CD =  0.00975   =>   CDf =  0.00558    CDp =  0.00418

 Side 1  free  transition at x/c =  0.4129   55
 Side 2  free  transition at x/c =  0.9726   72

   5   rms: 0.1364E-05   max: 0.4870E-05   D at   84  1
       a =  4.000      CL =  0.7647
      Cm = -0.0562     CD =  0.00975   =>   CDf =  0.00558    CDp =  0.00418
 plradd ia,ip,cpol           17           0  0.11691990    

 Point added to stored polar  1
 Point written to save file  mh102_Re500k.base.pol                           
 Dump file unspecified or not available
 Calculating wake trajectory ...
 Calculating source influence matrix ...

 Solving BL system ...

 Side 1  free  transition at x/c =  0.4129   55
 Side 2  free  transition at x/c =  0.9726   72

   1   rms: 0.9811E-01   max: 0.3347E+00   D at   73  2
       a =  4.500      CL =  0.8507
      Cm = -0.0625     CD =  0.01010   =>   CDf =  0.00552    CDp =  0.00459

 Side 1  free  transition at x/c =  0.4020   55
 Side 2  free  transition at x/c =  0.9921   72

   2   rms: 0.1520E-01   max: -.1331E+00   D at   55  1
       a =  4.500      CL =  0.8474
      Cm = -0.0618     CD =  0.01007   =>   CDf =  0.00565    CDp =  0.00441

 Side 1  free  transition at x/c =  0.4016   55
 Side 2  free  transition at x/c =  0.9975   73

   3   rms: 0.2740E-02   max: 0.4733E-01   D at   72  2
       a =  4.500      CL =  0.8493
      Cm = -0.0622     CD =  0.01007   =>   CDf =  0.00562    CDp =  0.00445

 Side 1  free  transition at x/c =  0.4013   55
 Side 2  free  transition at x/c =  0.9961   73

   4   rms: 0.3772E-04   max: -.7563E-03   D at   73  2
       a =  4.500      CL =  0.8493
      Cm = -0.0622     CD =  0.01007   =>   CDf =  0.00562    CDp =  0.00445
 plradd ia,ip,cpol           18           0  0.10561223    

 Point added to stored polar  1
 Point written to save file  mh102_Re500k.base.pol                           
 Dump file unspecified or not available
 Calculating wake trajectory ...
 Calculating source influence matrix ...

 Solving BL system ...

 Side 1  free  transition at x/c =  0.4013   55
 Side 2  free  transition at x/c =  0.9962   73

   1   rms: 0.9677E-01   max: 0.4841E+00   C at   73  2
       a =  5.000      CL =  0.9366
      Cm = -0.0689     CD =  0.01030   =>   CDf =  0.00555    CDp =  0.00474

 Side 1  free  transition at x/c =  0.3882   55
 Side 2 forced transition at x/c =  1.0000   72
 idif Ue xi dudx           1  0.10146307      2.89535522E-03   35.043392    
 Uenew xinew           2  9.11530014E-03  2.60114670E-04

   2   rms: 0.4367E-01   max: -.3462E+00   D at   72  2
       a =  5.000      CL =  0.8995
      Cm = -0.0614     CD =  0.01041   =>   CDf =  0.00582    CDp =  0.00459

 Side 1  free  transition at x/c =  0.3902   55
 Side 2 forced transition at x/c =  1.0000   73

   3   rms: 0.8515E-02   max: 0.7841E-01   C at   73  2
       a =  5.000      CL =  0.9015
      Cm = -0.0618     CD =  0.01039   =>   CDf =  0.00576    CDp =  0.00463

 Side 1  free  transition at x/c =  0.3907   55
 Side 2 forced transition at x/c =  1.0000   73

   4   rms: 0.1100E-02   max: 0.8568E-02   D at    4  2
       a =  5.000      CL =  0.9019
      Cm = -0.0618     CD =  0.01040   =>   CDf =  0.00572    CDp =  0.00468

 Side 1  free  transition at x/c =  0.3906   55
 Side 2 forced transition at x/c =  1.0000   73

   5   rms: 0.9017E-05   max: 0.7875E-04   C at   73  2
       a =  5.000      CL =  0.9019
      Cm = -0.0618     CD =  0.01040   =>   CDf =  0.00572    CDp =  0.00468
 plradd ia,ip,cpol           19           0  9.50397924E-02

 Point added to stored polar  1
 Point written to save file  mh102_Re500k.base.pol                           
 Dump file unspecified or not available
 Calculating wake trajectory ...
 Calculating source influence matrix ...

 Solving BL system ...

 Side 1  free  transition at x/c =  0.3906   55
 Side 2 forced transition at x/c =  1.0000   73

   1   rms: 0.7437E-01   max: -.2332E+00   C at   73  2
       a =  5.500      CL =  0.9428
      Cm = -0.0591     CD =  0.01096   =>   CDf =  0.00564    CDp =  0.00532

 Side 1  free  transition at x/c =  0.3797   55
 Side 2 forced transition at x/c =  1.0000   72

   2   rms: 0.2711E-01   max: -.2916E+00   D at   55  1
       a =  5.500      CL =  0.9450
      Cm = -0.0594     CD =  0.01055   =>   CDf =  0.00575    CDp =  0.00481

 Side 1  free  transition at x/c =  0.3813   55
 Side 2 forced transition at x/c =  1.0000   72

   3   rms: 0.3081E-02   max: -.3281E-01   D at   56  1
       a =  5.500      CL =  0.9464
      Cm = -0.0597     CD =  0.01061   =>   CDf =  0.00568    CDp =  0.00493

 Side 1  free  transition at x/c =  0.3803   55
 Side 2 forced transition at x/c =  1.0000   72

   4   rms: 0.8676E-04   max: -.1514E-02   D at   56  1
       a =  5.500      CL =  0.9464
      Cm = -0.0596     CD =  0.01061   =>   CDf =  0.00569    CDp =  0.00492
 plradd ia,ip,cpol           20           0  9.50397924E-02

 Point added to stored polar  1
 Point written to save file  mh102_Re500k.base.pol                           
 Dump file unspecified or not available
 Calculating wake trajectory ...
 Calculating source influence matrix ...

 Solving BL system ...

 Side 1  free  transition at x/c =  0.3803   55
 Side 2 forced transition at x/c =  1.0000   72

   1   rms: 0.7054E-01   max: -.2239E+00   C at   72  2
       a =  6.000      CL =  0.9903
      Cm = -0.0574     CD =  0.01090   =>   CDf =  0.00560    CDp =  0.00530

 Side 1  free  transition at x/c =  0.3698   55
 Side 2 forced transition at x/c =  1.0000   71

   2   rms: 0.8658E-02   max: -.8418E-01   D at   55  1
       a =  6.000      CL =  0.9902
      Cm = -0.0574     CD =  0.01094   =>   CDf =  0.00577    CDp =  0.00517

 Side 1  free  transition at x/c =  0.3698   55
 Side 2 forced transition at x/c =  1.0000   71

   3   rms: 0.5980E-03   max: -.4962E-02   D at    4  1
       a =  6.000      CL =  0.9905
      Cm = -0.0574     CD =  0.01094   =>   CDf =  0.00573    CDp =  0.00521

 Side 1  free  transition at x/c =  0.3697   55
 Side 2 forced transition at x/c =  1.0000   71

   4   rms: 0.1095E-05   max: -.8240E-05   T at   55  1
       a =  6.000      CL =  0.9905
      Cm = -0.0574     CD =  0.01094   =>   CDf =  0.00574    CDp =  0.00521
 plradd ia,ip,cpol           21           0  8.52306858E-02

 Point added to stored polar  1
 Point written to save file  mh102_Re500k.base.pol                           
 Dump file unspecified or not available
 Calculating wake trajectory ...
 Calculating source influence matrix ...

 Solving BL system ...

 Side 1  free  transition at x/c =  0.3697   55
 Side 2 forced transition at x/c =  1.0000   71

   1   rms: 0.6941E-01   max: -.1936E+00   C at   71  2
       a =  6.500      CL =  1.0374
      Cm = -0.0557     CD =  0.01113   =>   CDf =  0.00563    CDp =  0.00550

 Side 1  free  transition at x/c =  0.3563   56
 Side 2 forced transition at x/c =  1.0000   70

   2   rms: 0.6604E-02   max: 0.6020E-01   D at   57  1
       a =  6.500      CL =  1.0355
      Cm = -0.0554     CD =  0.01124   =>   CDf =  0.00581    CDp =  0.00543

 Side 1  free  transition at x/c =  0.3582   56
 Side 2 forced transition at x/c =  1.0000   70

   3   rms: 0.1144E-02   max: -.1206E-01   D at   57  1
       a =  6.500      CL =  1.0355
      Cm = -0.0554     CD =  0.01126   =>   CDf =  0.00575    CDp =  0.00551

 Side 1  free  transition at x/c =  0.3579   56
 Side 2 forced transition at x/c =  1.0000   70

   4   rms: 0.1461E-04   max: -.2339E-03   D at   57  1
       a =  6.500      CL =  1.0355
      Cm = -0.0554     CD =  0.01126   =>   CDf =  0.00576    CDp =  0.00550
 plradd ia,ip,cpol           22           0  7.61935785E-02

 Point added to stored polar  1
 Point written to save file  mh102_Re500k.base.pol                           
 Dump file unspecified or not available
 Calculating wake trajectory ...
 Calculating source influence matrix ...

 Solving BL system ...

 Side 1  free  transition at x/c =  0.3579   56
 Side 2 forced transition at x/c =  1.0000   70

   1   rms: 0.7171E-01   max: -.3199E+00   D at   56  1
       a =  7.000      CL =  1.0782
      Cm = -0.0531     CD =  0.01179   =>   CDf =  0.00576    CDp =  0.00602

 Side 1  free  transition at x/c =  0.3466   55
 Side 2 forced transition at x/c =  1.0000   70

   2   rms: 0.2019E-01   max: -.2197E+00   D at   55  1
       a =  7.000      CL =  1.0811
      Cm = -0.0535     CD =  0.01151   =>   CDf =  0.00576    CDp =  0.00575

 Side 1  free  transition at x/c =  0.3462   55
 Side 2 forced transition at x/c =  1.0000   70

   3   rms: 0.1769E-02   max: 0.2255E-01   C at   55  1
       a =  7.000      CL =  1.0816
      Cm = -0.0536     CD =  0.01158   =>   CDf =  0.00573    CDp =  0.00585

 Side 1  free  transition at x/c =  0.3455   55
 Side 2 forced transition at x/c =  1.0000   70

   4   rms: 0.3045E-04   max: -.4851E-03   D at   56  1
       a =  7.000      CL =  1.0816
      Cm = -0.0536     CD =  0.01158   =>   CDf =  0.00574    CDp =  0.00584
 plradd ia,ip,cpol           23           0  6.79183155E-02

 Point added to stored polar  1
 Point written to save file  mh102_Re500k.base.pol                           
 Dump file unspecified or not available
 Calculating wake trajectory ...
 Calculating source influence matrix ...

 Solving BL system ...

 Side 1  free  transition at x/c =  0.3455   55
 Side 2 forced transition at x/c =  1.0000   70

   1   rms: 0.7015E-01   max: -.2603E+00   D at   55  1
       a =  7.500      CL =  1.1261
      Cm = -0.0516     CD =  0.01198   =>   CDf =  0.00562    CDp =  0.00637

 Side 1  free  transition at x/c =  0.3328   55
 Side 2 forced transition at x/c =  1.0000   69

   2   rms: 0.1218E-01   max: -.1391E+00   D at   55  1
       a =  7.500      CL =  1.1261
      Cm = -0.0516     CD =  0.01195   =>   CDf =  0.00577    CDp =  0.00618

 Side 1  free  transition at x/c =  0.3327   55
 Side 2 forced transition at x/c =  1.0000   69

   3   rms: 0.9022E-03   max: 0.1198E-01   C at   55  1
       a =  7.500      CL =  1.1264
      Cm = -0.0517     CD =  0.01197   =>   CDf =  0.00574    CDp =  0.00623

 Side 1  free  transition at x/c =  0.3324   55
 Side 2 forced transition at x/c =  1.0000   69

   4   rms: 0.6357E-05   max: -.5585E-04   D at   56  1
       a =  7.500      CL =  1.1264
      Cm = -0.0517     CD =  0.01197   =>   CDf =  0.00574    CDp =  0.00623
 plradd ia,ip,cpol           24           0  6.03822097E-02

 Point added to stored polar  1
 Point written to save file  mh102_Re500k.base.pol                           
 Dump file unspecified or not available
 Calculating wake trajectory ...
 Calculating source influence matrix ...

 Solving BL system ...

 Side 1  free  transition at x/c =  0.3324   55
 Side 2 forced transition at x/c =  1.0000   69

   1   rms: 0.6959E-01   max: -.1462E+00   C at   69  2
       a =  8.000      CL =  1.1717
      Cm = -0.0499     CD =  0.01234   =>   CDf =  0.00561    CDp =  0.00673

 Side 1  free  transition at x/c =  0.3178   55
 Side 2 forced transition at x/c =  1.0000   68

   2   rms: 0.8658E-02   max: -.1131E+00   C at   55  1
       a =  8.000      CL =  1.1694
      Cm = -0.0495     CD =  0.01241   =>   CDf =  0.00579    CDp =  0.00662

 Side 1  free  transition at x/c =  0.3187   55
 Side 2 forced transition at x/c =  1.0000   68

   3   rms: 0.7598E-03   max: 0.9525E-02   C at   55  1
       a =  8.000      CL =  1.1697
      Cm = -0.0496     CD =  0.01242   =>   CDf =  0.00576    CDp =  0.00666

 Side 1  free  transition at x/c =  0.3185   55
 Side 2 forced transition at x/c =  1.0000   68

   4   rms: 0.5324E-05   max: -.3217E-04   D at   56  1
       a =  8.000      CL =  1.1697
      Cm = -0.0496     CD =  0.01242   =>   CDf =  0.00576    CDp =  0.00666
 plradd ia,ip,cpol           25           0  5.35457097E-02

 Point added to stored polar  1
 Point written to save file  mh102_Re500k.base.pol                           
 Dump file unspecified or not available
 Calculating wake trajectory ...
 Calculating source influence matrix ...

 Solving BL system ...

 Side 1  free  transition at x/c =  0.3185   55
 Side 2 forced transition at x/c =  1.0000   68

   1   rms: 0.6956E-01   max: -.1279E+00   C at   68  2
       a =  8.500      CL =  1.2152
      Cm = -0.0478     CD =  0.01278   =>   CDf =  0.00576    CDp =  0.00702

 Side 1  free  transition at x/c =  0.3022   54
 Side 2 forced transition at x/c =  1.0000   68

   2   rms: 0.8358E-02   max: -.1156E+00   C at   54  1
       a =  8.500      CL =  1.2108
      Cm = -0.0471     CD =  0.01293   =>   CDf =  0.00581    CDp =  0.00711

 Side 1  free  transition at x/c =  0.3039   54
 Side 2 forced transition at x/c =  1.0000   68

   3   rms: 0.4815E-03   max: 0.5976E-02   C at   54  1
       a =  8.500      CL =  1.2110
      Cm = -0.0472     CD =  0.01293   =>   CDf =  0.00578    CDp =  0.00715

 Side 1  free  transition at x/c =  0.3037   54
 Side 2 forced transition at x/c =  1.0000   68

   4   rms: 0.3924E-05   max: -.3367E-04   C at   54  1
       a =  8.500      CL =  1.2110
      Cm = -0.0472     CD =  0.01293   =>   CDf =  0.00578    CDp =  0.00715
 plradd ia,ip,cpol           26           0  4.73614857E-02

 Point added to stored polar  1
 Point written to save file  mh102_Re500k.base.pol                           
 Dump file unspecified or not available
 Calculating wake trajectory ...
 Calculating source influence matrix ...

 Solving BL system ...

 Side 1  free  transition at x/c =  0.3037   54
 Side 2 forced transition at x/c =  1.0000   68

   1   rms: 0.6850E-01   max: -.1136E+00   C at   68  2
       a =  9.000      CL =  1.2558
      Cm = -0.0454     CD =  0.01331   =>   CDf =  0.00562    CDp =  0.00769

 Side 1  free  transition at x/c =  0.2864   54
 Side 2 forced transition at x/c =  1.0000   67

   2   rms: 0.1030E-01   max: -.1170E+00   C at   54  1
       a =  9.000      CL =  1.2493
      Cm = -0.0443     CD =  0.01351   =>   CDf =  0.00583    CDp =  0.00768

 Side 1  free  transition at x/c =  0.2885   54
 Side 2 forced transition at x/c =  1.0000   67

   3   rms: 0.5935E-03   max: -.4182E-02   D at   55  1
       a =  9.000      CL =  1.2495
      Cm = -0.0444     CD =  0.01351   =>   CDf =  0.00580    CDp =  0.00772

 Side 1  free  transition at x/c =  0.2883   54
 Side 2 forced transition at x/c =  1.0000   67

   4   rms: 0.1804E-05   max: -.2156E-04   C at   54  1
       a =  9.000      CL =  1.2495
      Cm = -0.0444     CD =  0.01351   =>   CDf =  0.00580    CDp =  0.00771
 plradd ia,ip,cpol           27           0  4.73614857E-02

 Point added to stored polar  1
 Point written to save file  mh102_Re500k.base.pol                           
 Dump file unspecified or not available
 Calculating wake trajectory ...
 Calculating source influence matrix ...

 Solving BL system ...

 Side 1  free  transition at x/c =  0.2883   54
 Side 2 forced transition at x/c =  1.0000   67

   1   rms: 0.6676E-01   max: -.1020E+00   C at   67  2
       a =  9.500      CL =  1.2925
      Cm = -0.0423     CD =  0.01395   =>   CDf =  0.00563    CDp =  0.00832

 Side 1  free  transition at x/c =  0.2709   54
 Side 2 forced transition at x/c =  1.0000   66

   2   rms: 0.1184E-01   max: -.1141E+00   C at   54  1
       a =  9.500      CL =  1.2815
      Cm = -0.0405     CD =  0.01417   =>   CDf =  0.00585    CDp =  0.00833

 Side 1  free  transition at x/c =  0.2735   54
 Side 2 forced transition at x/c =  1.0000   66

   3   rms: 0.5915E-03   max: -.4735E-02   D at    4  1
       a =  9.500      CL =  1.2812
      Cm = -0.0404     CD =  0.01418   =>   CDf =  0.00582    CDp =  0.00836

 Side 1  free  transition at x/c =  0.2734   54
 Side 2 forced transition at x/c =  1.0000   66

   4   rms: 0.4685E-05   max: 0.3435E-04   C at   66  2
       a =  9.500      CL =  1.2812
      Cm = -0.0404     CD =  0.01418   =>   CDf =  0.00582    CDp =  0.00836
 plradd ia,ip,cpol           28           0  4.17797789E-02

 Point added to stored polar  1
 Point written to save file  mh102_Re500k.base.pol                           
 Dump file unspecified or not available
 Calculating wake trajectory ...
 Calculating source influence matrix ...

 Solving BL system ...

 Side 1  free  transition at x/c =  0.2734   54
 Side 2 forced transition at x/c =  1.0000   66

   1   rms: 0.6480E-01   max: -.9491E-01   C at   66  2
       a = 10.000      CL =  1.3202
      Cm = -0.0377     CD =  0.01464   =>   CDf =  0.00582    CDp =  0.00882

 Side 1  free  transition at x/c =  0.2566   53
 Side 2 forced transition at x/c =  1.0000   66

   2   rms: 0.1158E-01   max: -.8835E-01   C at   53  1
       a = 10.000      CL =  1.3087
      Cm = -0.0360     CD =  0.01499   =>   CDf =  0.00587    CDp =  0.00912

 Side 1  free  transition at x/c =  0.2583   53
 Side 2 forced transition at x/c =  1.0000   66

   3   rms: 0.5343E-02   max: -.1001E+00   C at   53  1
       a = 10.000      CL =  1.3088
      Cm = -0.0360     CD =  0.01499   =>   CDf =  0.00587    CDp =  0.00912

 Side 1  free  transition at x/c =  0.2583   53
 Side 2 forced transition at x/c =  1.0000   66

   4   rms: 0.5339E-02   max: -.1005E+00   C at   53  1
       a = 10.000      CL =  1.3088
      Cm = -0.0360     CD =  0.01499   =>   CDf =  0.00587    CDp =  0.00912

 Side 1  free  transition at x/c =  0.2583   53
 Side 2 forced transition at x/c =  1.0000   66

   5   rms: 0.5337E-02   max: -.1004E+00   C at   53  1
       a = 10.000      CL =  1.3088
      Cm = -0.0360     CD =  0.01499   =>   CDf =  0.00587    CDp =  0.00912

 Side 1  free  transition at x/c =  0.2583   53
 Side 2 forced transition at x/c =  1.0000   66

   6   rms: 0.5337E-02   max: -.1004E+00   C at   53  1
       a = 10.000      CL =  1.3088
      Cm = -0.0360     CD =  0.01499   =>   CDf =  0.00587    CDp =  0.00912

 Side 1  free  transition at x/c =  0.2583   53
 Side 2 forced transition at x/c =  1.0000   66

   7   rms: 0.5337E-02   max: -.1004E+00   C at   53  1
       a = 10.000      CL =  1.3088
      Cm = -0.0360     CD =  0.01499   =>   CDf =  0.00587    CDp =  0.00912

 Side 1  free  transition at x/c =  0.2583   53
 Side 2 forced transition at x/c =  1.0000   66

   8   rms: 0.5337E-02   max: -.1004E+00   C at   53  1
       a = 10.000      CL =  1.3088
      Cm = -0.0360     CD =  0.01499   =>   CDf =  0.00587    CDp =  0.00912

 Side 1  free  transition at x/c =  0.2583   53
 Side 2 forced transition at x/c =  1.0000   66

   9   rms: 0.5337E-02   max: -.1004E+00   C at   53  1
       a = 10.000      CL =  1.3088
      Cm = -0.0360     CD =  0.01499   =>   CDf =  0.00587    CDp =  0.00912

 Side 1  free  transition at x/c =  0.2583   53
 Side 2 forced transition at x/c =  1.0000   66

  10   rms: 0.5337E-02   max: -.1004E+00   C at   53  1
       a = 10.000      CL =  1.3088
      Cm = -0.0360     CD =  0.01499   =>   CDf =  0.00587    CDp =  0.00912

 Side 1  free  transition at x/c =  0.2583   53
 Side 2 forced transition at x/c =  1.0000   66

  11   rms: 0.5337E-02   max: -.1004E+00   C at   53  1
       a = 10.000      CL =  1.3088
      Cm = -0.0360     CD =  0.01499   =>   CDf =  0.00587    CDp =  0.00912

 Side 1  free  transition at x/c =  0.2583   53
 Side 2 forced transition at x/c =  1.0000   66

  12   rms: 0.5337E-02   max: -.1004E+00   C at   53  1
       a = 10.000      CL =  1.3088
      Cm = -0.0360     CD =  0.01499   =>   CDf =  0.00587    CDp =  0.00912

 Side 1  free  transition at x/c =  0.2583   53
 Side 2 forced transition at x/c =  1.0000   66

  13   rms: 0.5337E-02   max: -.1004E+00   C at   53  1
       a = 10.000      CL =  1.3088
      Cm = -0.0360     CD =  0.01499   =>   CDf =  0.00587    CDp =  0.00912

 Side 1  free  transition at x/c =  0.2583   53
 Side 2 forced transition at x/c =  1.0000   66

  14   rms: 0.5337E-02   max: -.1004E+00   C at   53  1
       a = 10.000      CL =  1.3088
      Cm = -0.0360     CD =  0.01499   =>   CDf =  0.00587    CDp =  0.00912

 Side 1  free  transition at x/c =  0.2583   53
 Side 2 forced transition at x/c =  1.0000   66

  15   rms: 0.5337E-02   max: -.1004E+00   C at   53  1
       a = 10.000      CL =  1.3088
      Cm = -0.0360     CD =  0.01499   =>   CDf =  0.00587    CDp =  0.00912

 Side 1  free  transition at x/c =  0.2583   53
 Side 2 forced transition at x/c =  1.0000   66

  16   rms: 0.5337E-02   max: -.1004E+00   C at   53  1
       a = 10.000      CL =  1.3088
      Cm = -0.0360     CD =  0.01499   =>   CDf =  0.00587    CDp =  0.00912

 Side 1  free  transition at x/c =  0.2583   53
 Side 2 forced transition at x/c =  1.0000   66

  17   rms: 0.5337E-02   max: -.1004E+00   C at   53  1
       a = 10.000      CL =  1.3088
      Cm = -0.0360     CD =  0.01499   =>   CDf =  0.00587    CDp =  0.00912

 Side 1  free  transition at x/c =  0.2583   53
 Side 2 forced transition at x/c =  1.0000   66

  18   rms: 0.5337E-02   max: -.1004E+00   C at   53  1
       a = 10.000      CL =  1.3088
      Cm = -0.0360     CD =  0.01499   =>   CDf =  0.00587    CDp =  0.00912

 Side 1  free  transition at x/c =  0.2583   53
 Side 2 forced transition at x/c =  1.0000   66

  19   rms: 0.5337E-02   max: -.1004E+00   C at   53  1
       a = 10.000      CL =  1.3088
      Cm = -0.0360     CD =  0.01499   =>   CDf =  0.00587    CDp =  0.00912

 Side 1  free  transition at x/c =  0.2583   53
 Side 2 forced transition at x/c =  1.0000   66

  20   rms: 0.5337E-02   max: -.1004E+00   C at   53  1
       a = 10.000      CL =  1.3088
      Cm = -0.0360     CD =  0.01499   =>   CDf =  0.00587    CDp =  0.00912

 Side 1  free  transition at x/c =  0.2583   53
 Side 2 forced transition at x/c =  1.0000   66

  21   rms: 0.5337E-02   max: -.1004E+00   C at   53  1
       a = 10.000      CL =  1.3088
      Cm = -0.0360     CD =  0.01499   =>   CDf =  0.00587    CDp =  0.00912

 Side 1  free  transition at x/c =  0.2583   53
 Side 2 forced transition at x/c =  1.0000   66

  22   rms: 0.5337E-02   max: -.1004E+00   C at   53  1
       a = 10.000      CL =  1.3088
      Cm = -0.0360     CD =  0.01499   =>   CDf =  0.00587    CDp =  0.00912

 Side 1  free  transition at x/c =  0.2583   53
 Side 2 forced transition at x/c =  1.0000   66

  23   rms: 0.5337E-02   max: -.1004E+00   C at   53  1
       a = 10.000      CL =  1.3088
      Cm = -0.0360     CD =  0.01499   =>   CDf =  0.00587    CDp =  0.00912

 Side 1  free  transition at x/c =  0.2583   53
 Side 2 forced transition at x/c =  1.0000   66

  24   rms: 0.5337E-02   max: -.1004E+00   C at   53  1
       a = 10.000      CL =  1.3088
      Cm = -0.0360     CD =  0.01499   =>   CDf =  0.00587    CDp =  0.00912

 Side 1  free  transition at x/c =  0.2583   53
 Side 2 forced transition at x/c =  1.0000   66

  25   rms: 0.5337E-02   max: -.1004E+00   C at   53  1
       a = 10.000      CL =  1.3088
      Cm = -0.0360     CD =  0.01499   =>   CDf =  0.00587    CDp =  0.00912

 Side 1  free  transition at x/c =  0.2583   53
 Side 2 forced transition at x/c =  1.0000   66

  26   rms: 0.5337E-02   max: -.1004E+00   C at   53  1
       a = 10.000      CL =  1.3088
      Cm = -0.0360     CD =  0.01499   =>   CDf =  0.00587    CDp =  0.00912

 Side 1  free  transition at x/c =  0.2583   53
 Side 2 forced transition at x/c =  1.0000   66

  27   rms: 0.5337E-02   max: -.1004E+00   C at   53  1
       a = 10.000      CL =  1.3088
      Cm = -0.0360     CD =  0.01499   =>   CDf =  0.00587    CDp =  0.00912

 Side 1  free  transition at x/c =  0.2583   53
 Side 2 forced transition at x/c =  1.0000   66

  28   rms: 0.5337E-02   max: -.1004E+00   C at   53  1
       a = 10.000      CL =  1.3088
      Cm = -0.0360     CD =  0.01499   =>   CDf =  0.00587    CDp =  0.00912

 Side 1  free  transition at x/c =  0.2583   53
 Side 2 forced transition at x/c =  1.0000   66

  29   rms: 0.5337E-02   max: -.1004E+00   C at   53  1
       a = 10.000      CL =  1.3088
      Cm = -0.0360     CD =  0.01499   =>   CDf =  0.00587    CDp =  0.00912

 Side 1  free  transition at x/c =  0.2583   53
 Side 2 forced transition at x/c =  1.0000   66

  30   rms: 0.5337E-02   max: -.1004E+00   C at   53  1
       a = 10.000      CL =  1.3088
      Cm = -0.0360     CD =  0.01499   =>   CDf =  0.00587    CDp =  0.00912

 Side 1  free  transition at x/c =  0.2583   53
 Side 2 forced transition at x/c =  1.0000   66

  31   rms: 0.5337E-02   max: -.1004E+00   C at   53  1
       a = 10.000      CL =  1.3088
      Cm = -0.0360     CD =  0.01499   =>   CDf =  0.00587    CDp =  0.00912

 Side 1  free  transition at x/c =  0.2583   53
 Side 2 forced transition at x/c =  1.0000   66

  32   rms: 0.5337E-02   max: -.1004E+00   C at   53  1
       a = 10.000      CL =  1.3088
      Cm = -0.0360     CD =  0.01499   =>   CDf =  0.00587    CDp =  0.00912

 Side 1  free  transition at x/c =  0.2583   53
 Side 2 forced transition at x/c =  1.0000   66

  33   rms: 0.5337E-02   max: -.1004E+00   C at   53  1
       a = 10.000      CL =  1.3088
      Cm = -0.0360     CD =  0.01499   =>   CDf =  0.00587    CDp =  0.00912

 Side 1  free  transition at x/c =  0.2583   53
 Side 2 forced transition at x/c =  1.0000   66

  34   rms: 0.5337E-02   max: -.1004E+00   C at   53  1
       a = 10.000      CL =  1.3088
      Cm = -0.0360     CD =  0.01499   =>   CDf =  0.00587    CDp =  0.00912

 Side 1  free  transition at x/c =  0.2583   53
 Side 2 forced transition at x/c =  1.0000   66

  35   rms: 0.5337E-02   max: -.1004E+00   C at   53  1
       a = 10.000      CL =  1.3088
      Cm = -0.0360     CD =  0.01499   =>   CDf =  0.00587    CDp =  0.00912

 Side 1  free  transition at x/c =  0.2583   53
 Side 2 forced transition at x/c =  1.0000   66

  36   rms: 0.5337E-02   max: -.1004E+00   C at   53  1
       a = 10.000      CL =  1.3088
      Cm = -0.0360     CD =  0.01499   =>   CDf =  0.00587    CDp =  0.00912

 Side 1  free  transition at x/c =  0.2583   53
 Side 2 forced transition at x/c =  1.0000   66

  37   rms: 0.5337E-02   max: -.1004E+00   C at   53  1
       a = 10.000      CL =  1.3088
      Cm = -0.0360     CD =  0.01499   =>   CDf =  0.00587    CDp =  0.00912

 Side 1  free  transition at x/c =  0.2583   53
 Side 2 forced transition at x/c =  1.0000   66

  38   rms: 0.5337E-02   max: -.1004E+00   C at   53  1
       a = 10.000      CL =  1.3088
      Cm = -0.0360     CD =  0.01499   =>   CDf =  0.00587    CDp =  0.00912

 Side 1  free  transition at x/c =  0.2583   53
 Side 2 forced transition at x/c =  1.0000   66

  39   rms: 0.5337E-02   max: -.1004E+00   C at   53  1
       a = 10.000      CL =  1.3088
      Cm = -0.0360     CD =  0.01499   =>   CDf =  0.00587    CDp =  0.00912

 Side 1  free  transition at x/c =  0.2583   53
 Side 2 forced transition at x/c =  1.0000   66

  40   rms: 0.5337E-02   max: -.1004E+00   C at   53  1
       a = 10.000      CL =  1.3088
      Cm = -0.0360     CD =  0.01499   =>   CDf =  0.00587    CDp =  0.00912

 Side 1  free  transition at x/c =  0.2583   53
 Side 2 forced transition at x/c =  1.0000   66

  41   rms: 0.5337E-02   max: -.1004E+00   C at   53  1
       a = 10.000      CL =  1.3088
      Cm = -0.0360     CD =  0.01499   =>   CDf =  0.00587    CDp =  0.00912

 Side 1  free  transition at x/c =  0.2583   53
 Side 2 forced transition at x/c =  1.0000   66

  42   rms: 0.5337E-02   max: -.1004E+00   C at   53  1
       a = 10.000      CL =  1.3088
      Cm = -0.0360     CD =  0.01499   =>   CDf =  0.00587    CDp =  0.00912

 Side 1  free  transition at x/c =  0.2583   53
 Side 2 forced transition at x/c =  1.0000   66

  43   rms: 0.5337E-02   max: -.1004E+00   C at   53  1
       a = 10.000      CL =  1.3088
      Cm = -0.0360     CD =  0.01499   =>   CDf =  0.00587    CDp =  0.00912

 Side 1  free  transition at x/c =  0.2583   53
 Side 2 forced transition at x/c =  1.0000   66

  44   rms: 0.5337E-02   max: -.1004E+00   C at   53  1
       a = 10.000      CL =  1.3088
      Cm = -0.0360     CD =  0.01499   =>   CDf =  0.00587    CDp =  0.00912

 Side 1  free  transition at x/c =  0.2583   53
 Side 2 forced transition at x/c =  1.0000   66

  45   rms: 0.5337E-02   max: -.1004E+00   C at   53  1
       a = 10.000      CL =  1.3088
      Cm = -0.0360     CD =  0.01499   =>   CDf =  0.00587    CDp =  0.00912

 Side 1  free  transition at x/c =  0.2583   53
 Side 2 forced transition at x/c =  1.0000   66

  46   rms: 0.5337E-02   max: -.1004E+00   C at   53  1
       a = 10.000      CL =  1.3088
      Cm = -0.0360     CD =  0.01499   =>   CDf =  0.00587    CDp =  0.00912

 Side 1  free  transition at x/c =  0.2583   53
 Side 2 forced transition at x/c =  1.0000   66

  47   rms: 0.5337E-02   max: -.1004E+00   C at   53  1
       a = 10.000      CL =  1.3088
      Cm = -0.0360     CD =  0.01499   =>   CDf =  0.00587    CDp =  0.00912

 Side 1  free  transition at x/c =  0.2583   53
 Side 2 forced transition at x/c =  1.0000   66

  48   rms: 0.5337E-02   max: -.1004E+00   C at   53  1
       a = 10.000      CL =  1.3088
      Cm = -0.0360     CD =  0.01499   =>   CDf =  0.00587    CDp =  0.00912

 Side 1  free  transition at x/c =  0.2583   53
 Side 2 forced transition at x/c =  1.0000   66

  49   rms: 0.5337E-02   max: -.1004E+00   C at   53  1
       a = 10.000      CL =  1.3088
      Cm = -0.0360     CD =  0.01499   =>   CDf =  0.00587    CDp =  0.00912

 Side 1  free  transition at x/c =  0.2583   53
 Side 2 forced transition at x/c =  1.0000   66

  50   rms: 0.5337E-02   max: -.1004E+00   C at   53  1
       a = 10.000      CL =  1.3088
      Cm = -0.0360     CD =  0.01499   =>   CDf =  0.00587    CDp =  0.00912

 Side 1  free  transition at x/c =  0.2583   53
 Side 2 forced transition at x/c =  1.0000   66

  51   rms: 0.5337E-02   max: -.1004E+00   C at   53  1
       a = 10.000      CL =  1.3088
      Cm = -0.0360     CD =  0.01499   =>   CDf =  0.00587    CDp =  0.00912

 Side 1  free  transition at x/c =  0.2583   53
 Side 2 forced transition at x/c =  1.0000   66

  52   rms: 0.5337E-02   max: -.1004E+00   C at   53  1
       a = 10.000      CL =  1.3088
      Cm = -0.0360     CD =  0.01499   =>   CDf =  0.00587    CDp =  0.00912

 Side 1  free  transition at x/c =  0.2583   53
 Side 2 forced transition at x/c =  1.0000   66

  53   rms: 0.5337E-02   max: -.1004E+00   C at   53  1
       a = 10.000      CL =  1.3088
      Cm = -0.0360     CD =  0.01499   =>   CDf =  0.00587    CDp =  0.00912

 Side 1  free  transition at x/c =  0.2583   53
 Side 2 forced transition at x/c =  1.0000   66

  54   rms: 0.5337E-02   max: -.1004E+00   C at   53  1
       a = 10.000      CL =  1.3088
      Cm = -0.0360     CD =  0.01499   =>   CDf =  0.00587    CDp =  0.00912

 Side 1  free  transition at x/c =  0.2583   53
 Side 2 forced transition at x/c =  1.0000   66

  55   rms: 0.5337E-02   max: -.1004E+00   C at   53  1
       a = 10.000      CL =  1.3088
      Cm = -0.0360     CD =  0.01499   =>   CDf =  0.00587    CDp =  0.00912

 Side 1  free  transition at x/c =  0.2583   53
 Side 2 forced transition at x/c =  1.0000   66

  56   rms: 0.5337E-02   max: -.1004E+00   C at   53  1
       a = 10.000      CL =  1.3088
      Cm = -0.0360     CD =  0.01499   =>   CDf =  0.00587    CDp =  0.00912

 Side 1  free  transition at x/c =  0.2583   53
 Side 2 forced transition at x/c =  1.0000   66

  57   rms: 0.5337E-02   max: -.1004E+00   C at   53  1
       a = 10.000      CL =  1.3088
      Cm = -0.0360     CD =  0.01499   =>   CDf =  0.00587    CDp =  0.00912

 Side 1  free  transition at x/c =  0.2583   53
 Side 2 forced transition at x/c =  1.0000   66

  58   rms: 0.5337E-02   max: -.1004E+00   C at   53  1
       a = 10.000      CL =  1.3088
      Cm = -0.0360     CD =  0.01499   =>   CDf =  0.00587    CDp =  0.00912

 Side 1  free  transition at x/c =  0.2583   53
 Side 2 forced transition at x/c =  1.0000   66

  59   rms: 0.5337E-02   max: -.1004E+00   C at   53  1
       a = 10.000      CL =  1.3088
      Cm = -0.0360     CD =  0.01499   =>   CDf =  0.00587    CDp =  0.00912

 Side 1  free  transition at x/c =  0.2583   53
 Side 2 forced transition at x/c =  1.0000   66

  60   rms: 0.5337E-02   max: -.1004E+00   C at   53  1
       a = 10.000      CL =  1.3088
      Cm = -0.0360     CD =  0.01499   =>   CDf =  0.00587    CDp =  0.00912

 Side 1  free  transition at x/c =  0.2583   53
 Side 2 forced transition at x/c =  1.0000   66

  61   rms: 0.5337E-02   max: -.1004E+00   C at   53  1
       a = 10.000      CL =  1.3088
      Cm = -0.0360     CD =  0.01499   =>   CDf =  0.00587    CDp =  0.00912

 Side 1  free  transition at x/c =  0.2583   53
 Side 2 forced transition at x/c =  1.0000   66

  62   rms: 0.5337E-02   max: -.1004E+00   C at   53  1
       a = 10.000      CL =  1.3088
      Cm = -0.0360     CD =  0.01499   =>   CDf =  0.00587    CDp =  0.00912

 Side 1  free  transition at x/c =  0.2583   53
 Side 2 forced transition at x/c =  1.0000   66

  63   rms: 0.5337E-02   max: -.1004E+00   C at   53  1
       a = 10.000      CL =  1.3088
      Cm = -0.0360     CD =  0.01499   =>   CDf =  0.00587    CDp =  0.00912

 Side 1  free  transition at x/c =  0.2583   53
 Side 2 forced transition at x/c =  1.0000   66

  64   rms: 0.5337E-02   max: -.1004E+00   C at   53  1
       a = 10.000      CL =  1.3088
      Cm = -0.0360     CD =  0.01499   =>   CDf =  0.00587    CDp =  0.00912

 Side 1  free  transition at x/c =  0.2583   53
 Side 2 forced transition at x/c =  1.0000   66

  65   rms: 0.5337E-02   max: -.1004E+00   C at   53  1
       a = 10.000      CL =  1.3088
      Cm = -0.0360     CD =  0.01499   =>   CDf =  0.00587    CDp =  0.00912

 Side 1  free  transition at x/c =  0.2583   53
 Side 2 forced transition at x/c =  1.0000   66

  66   rms: 0.5337E-02   max: -.1004E+00   C at   53  1
       a = 10.000      CL =  1.3088
      Cm = -0.0360     CD =  0.01499   =>   CDf =  0.00587    CDp =  0.00912

 Side 1  free  transition at x/c =  0.2583   53
 Side 2 forced transition at x/c =  1.0000   66

  67   rms: 0.5337E-02   max: -.1004E+00   C at   53  1
       a = 10.000      CL =  1.3088
      Cm = -0.0360     CD =  0.01499   =>   CDf =  0.00587    CDp =  0.00912

 Side 1  free  transition at x/c =  0.2583   53
 Side 2 forced transition at x/c =  1.0000   66

  68   rms: 0.5337E-02   max: -.1004E+00   C at   53  1
       a = 10.000      CL =  1.3088
      Cm = -0.0360     CD =  0.01499   =>   CDf =  0.00587    CDp =  0.00912

 Side 1  free  transition at x/c =  0.2583   53
 Side 2 forced transition at x/c =  1.0000   66

  69   rms: 0.5337E-02   max: -.1004E+00   C at   53  1
       a = 10.000      CL =  1.3088
      Cm = -0.0360     CD =  0.01499   =>   CDf =  0.00587    CDp =  0.00912

 Side 1  free  transition at x/c =  0.2583   53
 Side 2 forced transition at x/c =  1.0000   66

  70   rms: 0.5337E-02   max: -.1004E+00   C at   53  1
       a = 10.000      CL =  1.3088
      Cm = -0.0360     CD =  0.01499   =>   CDf =  0.00587    CDp =  0.00912

 Side 1  free  transition at x/c =  0.2583   53
 Side 2 forced transition at x/c =  1.0000   66

  71   rms: 0.5337E-02   max: -.1004E+00   C at   53  1
       a = 10.000      CL =  1.3088
      Cm = -0.0360     CD =  0.01499   =>   CDf =  0.00587    CDp =  0.00912

 Side 1  free  transition at x/c =  0.2583   53
 Side 2 forced transition at x/c =  1.0000   66

  72   rms: 0.5337E-02   max: -.1004E+00   C at   53  1
       a = 10.000      CL =  1.3088
      Cm = -0.0360     CD =  0.01499   =>   CDf =  0.00587    CDp =  0.00912

 Side 1  free  transition at x/c =  0.2583   53
 Side 2 forced transition at x/c =  1.0000   66

  73   rms: 0.5337E-02   max: -.1004E+00   C at   53  1
       a = 10.000      CL =  1.3088
      Cm = -0.0360     CD =  0.01499   =>   CDf =  0.00587    CDp =  0.00912

 Side 1  free  transition at x/c =  0.2583   53
 Side 2 forced transition at x/c =  1.0000   66

  74   rms: 0.5337E-02   max: -.1004E+00   C at   53  1
       a = 10.000      CL =  1.3088
      Cm = -0.0360     CD =  0.01499   =>   CDf =  0.00587    CDp =  0.00912

 Side 1  free  transition at x/c =  0.2583   53
 Side 2 forced transition at x/c =  1.0000   66

  75   rms: 0.5337E-02   max: -.1004E+00   C at   53  1
       a = 10.000      CL =  1.3088
      Cm = -0.0360     CD =  0.01499   =>   CDf =  0.00587    CDp =  0.00912

 Side 1  free  transition at x/c =  0.2583   53
 Side 2 forced transition at x/c =  1.0000   66

  76   rms: 0.5337E-02   max: -.1004E+00   C at   53  1
       a = 10.000      CL =  1.3088
      Cm = -0.0360     CD =  0.01499   =>   CDf =  0.00587    CDp =  0.00912

 Side 1  free  transition at x/c =  0.2583   53
 Side 2 forced transition at x/c =  1.0000   66

  77   rms: 0.5337E-02   max: -.1004E+00   C at   53  1
       a = 10.000      CL =  1.3088
      Cm = -0.0360     CD =  0.01499   =>   CDf =  0.00587    CDp =  0.00912

 Side 1  free  transition at x/c =  0.2583   53
 Side 2 forced transition at x/c =  1.0000   66

  78   rms: 0.5337E-02   max: -.1004E+00   C at   53  1
       a = 10.000      CL =  1.3088
      Cm = -0.0360     CD =  0.01499   =>   CDf =  0.00587    CDp =  0.00912

 Side 1  free  transition at x/c =  0.2583   53
 Side 2 forced transition at x/c =  1.0000   66

  79   rms: 0.5337E-02   max: -.1004E+00   C at   53  1
       a = 10.000      CL =  1.3088
      Cm = -0.0360     CD =  0.01499   =>   CDf =  0.00587    CDp =  0.00912

 Side 1  free  transition at x/c =  0.2583   53
 Side 2 forced transition at x/c =  1.0000   66

  80   rms: 0.5337E-02   max: -.1004E+00   C at   53  1
       a = 10.000      CL =  1.3088
      Cm = -0.0360     CD =  0.01499   =>   CDf =  0.00587    CDp =  0.00912

 Side 1  free  transition at x/c =  0.2583   53
 Side 2 forced transition at x/c =  1.0000   66

  81   rms: 0.5337E-02   max: -.1004E+00   C at   53  1
       a = 10.000      CL =  1.3088
      Cm = -0.0360     CD =  0.01499   =>   CDf =  0.00587    CDp =  0.00912

 Side 1  free  transition at x/c =  0.2583   53
 Side 2 forced transition at x/c =  1.0000   66

  82   rms: 0.5337E-02   max: -.1004E+00   C at   53  1
       a = 10.000      CL =  1.3088
      Cm = -0.0360     CD =  0.01499   =>   CDf =  0.00587    CDp =  0.00912

 Side 1  free  transition at x/c =  0.2583   53
 Side 2 forced transition at x/c =  1.0000   66

  83   rms: 0.5337E-02   max: -.1004E+00   C at   53  1
       a = 10.000      CL =  1.3088
      Cm = -0.0360     CD =  0.01499   =>   CDf =  0.00587    CDp =  0.00912

 Side 1  free  transition at x/c =  0.2583   53
 Side 2 forced transition at x/c =  1.0000   66

  84   rms: 0.5337E-02   max: -.1004E+00   C at   53  1
       a = 10.000      CL =  1.3088
      Cm = -0.0360     CD =  0.01499   =>   CDf =  0.00587    CDp =  0.00912

 Side 1  free  transition at x/c =  0.2583   53
 Side 2 forced transition at x/c =  1.0000   66

  85   rms: 0.5337E-02   max: -.1004E+00   C at   53  1
       a = 10.000      CL =  1.3088
      Cm = -0.0360     CD =  0.01499   =>   CDf =  0.00587    CDp =  0.00912

 Side 1  free  transition at x/c =  0.2583   53
 Side 2 forced transition at x/c =  1.0000   66

  86   rms: 0.5337E-02   max: -.1004E+00   C at   53  1
       a = 10.000      CL =  1.3088
      Cm = -0.0360     CD =  0.01499   =>   CDf =  0.00587    CDp =  0.00912

 Side 1  free  transition at x/c =  0.2583   53
 Side 2 forced transition at x/c =  1.0000   66

  87   rms: 0.5337E-02   max: -.1004E+00   C at   53  1
       a = 10.000      CL =  1.3088
      Cm = -0.0360     CD =  0.01499   =>   CDf =  0.00587    CDp =  0.00912

 Side 1  free  transition at x/c =  0.2583   53
 Side 2 forced transition at x/c =  1.0000   66

  88   rms: 0.5337E-02   max: -.1004E+00   C at   53  1
       a = 10.000      CL =  1.3088
      Cm = -0.0360     CD =  0.01499   =>   CDf =  0.00587    CDp =  0.00912

 Side 1  free  transition at x/c =  0.2583   53
 Side 2 forced transition at x/c =  1.0000   66

  89   rms: 0.5337E-02   max: -.1004E+00   C at   53  1
       a = 10.000      CL =  1.3088
      Cm = -0.0360     CD =  0.01499   =>   CDf =  0.00587    CDp =  0.00912

 Side 1  free  transition at x/c =  0.2583   53
 Side 2 forced transition at x/c =  1.0000   66

  90   rms: 0.5337E-02   max: -.1004E+00   C at   53  1
       a = 10.000      CL =  1.3088
      Cm = -0.0360     CD =  0.01499   =>   CDf =  0.00587    CDp =  0.00912

 Side 1  free  transition at x/c =  0.2583   53
 Side 2 forced transition at x/c =  1.0000   66

  91   rms: 0.5337E-02   max: -.1004E+00   C at   53  1
       a = 10.000      CL =  1.3088
      Cm = -0.0360     CD =  0.01499   =>   CDf =  0.00587    CDp =  0.00912

 Side 1  free  transition at x/c =  0.2583   53
 Side 2 forced transition at x/c =  1.0000   66

  92   rms: 0.5337E-02   max: -.1004E+00   C at   53  1
       a = 10.000      CL =  1.3088
      Cm = -0.0360     CD =  0.01499   =>   CDf =  0.00587    CDp =  0.00912

 Side 1  free  transition at x/c =  0.2583   53
 Side 2 forced transition at x/c =  1.0000   66

  93   rms: 0.5337E-02   max: -.1004E+00   C at   53  1
       a = 10.000      CL =  1.3088
      Cm = -0.0360     CD =  0.01499   =>   CDf =  0.00587    CDp =  0.00912

 Side 1  free  transition at x/c =  0.2583   53
 Side 2 forced transition at x/c =  1.0000   66

  94   rms: 0.5337E-02   max: -.1004E+00   C at   53  1
       a = 10.000      CL =  1.3088
      Cm = -0.0360     CD =  0.01499   =>   CDf =  0.00587    CDp =  0.00912

 Side 1  free  transition at x/c =  0.2583   53
 Side 2 forced transition at x/c =  1.0000   66

  95   rms: 0.5337E-02   max: -.1004E+00   C at   53  1
       a = 10.000      CL =  1.3088
      Cm = -0.0360     CD =  0.01499   =>   CDf =  0.00587    CDp =  0.00912

 Side 1  free  transition at x/c =  0.2583   53
 Side 2 forced transition at x/c =  1.0000   66

  96   rms: 0.5337E-02   max: -.1004E+00   C at   53  1
       a = 10.000      CL =  1.3088
      Cm = -0.0360     CD =  0.01499   =>   CDf =  0.00587    CDp =  0.00912

 Side 1  free  transition at x/c =  0.2583   53
 Side 2 forced transition at x/c =  1.0000   66

  97   rms: 0.5337E-02   max: -.1004E+00   C at   53  1
       a = 10.000      CL =  1.3088
      Cm = -0.0360     CD =  0.01499   =>   CDf =  0.00587    CDp =  0.00912

 Side 1  free  transition at x/c =  0.2583   53
 Side 2 forced transition at x/c =  1.0000   66

  98   rms: 0.5337E-02   max: -.1004E+00   C at   53  1
       a = 10.000      CL =  1.3088
      Cm = -0.0360     CD =  0.01499   =>   CDf =  0.00587    CDp =  0.00912

 Side 1  free  transition at x/c =  0.2583   53
 Side 2 forced transition at x/c =  1.0000   66

  99   rms: 0.5337E-02   max: -.1004E+00   C at   53  1
       a = 10.000      CL =  1.3088
      Cm = -0.0360     CD =  0.01499   =>   CDf =  0.00587    CDp =  0.00912

 Side 1  free  transition at x/c =  0.2583   53
 Side 2 forced transition at x/c =  1.0000   66

 100   rms: 0.5337E-02   max: -.1004E+00   C at   53  1
       a = 10.000      CL =  1.3088
      Cm = -0.0360     CD =  0.01499   =>   CDf =  0.00587    CDp =  0.00912

 Side 1  free  transition at x/c =  0.2583   53
 Side 2 forced transition at x/c =  1.0000   66

 101   rms: 0.5337E-02   max: -.1004E+00   C at   53  1
       a = 10.000      CL =  1.3088
      Cm = -0.0360     CD =  0.01499   =>   CDf =  0.00587    CDp =  0.00912

 Side 1  free  transition at x/c =  0.2583   53
 Side 2 forced transition at x/c =  1.0000   66

 102   rms: 0.5337E-02   max: -.1004E+00   C at   53  1
       a = 10.000      CL =  1.3088
      Cm = -0.0360     CD =  0.01499   =>   CDf =  0.00587    CDp =  0.00912

 Side 1  free  transition at x/c =  0.2583   53
 Side 2 forced transition at x/c =  1.0000   66

 103   rms: 0.5337E-02   max: -.1004E+00   C at   53  1
       a = 10.000      CL =  1.3088
      Cm = -0.0360     CD =  0.01499   =>   CDf =  0.00587    CDp =  0.00912

 Side 1  free  transition at x/c =  0.2583   53
 Side 2 forced transition at x/c =  1.0000   66

 104   rms: 0.5337E-02   max: -.1004E+00   C at   53  1
       a = 10.000      CL =  1.3088
      Cm = -0.0360     CD =  0.01499   =>   CDf =  0.00587    CDp =  0.00912

 Side 1  free  transition at x/c =  0.2583   53
 Side 2 forced transition at x/c =  1.0000   66

 105   rms: 0.5337E-02   max: -.1004E+00   C at   53  1
       a = 10.000      CL =  1.3088
      Cm = -0.0360     CD =  0.01499   =>   CDf =  0.00587    CDp =  0.00912

 Side 1  free  transition at x/c =  0.2583   53
 Side 2 forced transition at x/c =  1.0000   66

 106   rms: 0.5337E-02   max: -.1004E+00   C at   53  1
       a = 10.000      CL =  1.3088
      Cm = -0.0360     CD =  0.01499   =>   CDf =  0.00587    CDp =  0.00912

 Side 1  free  transition at x/c =  0.2583   53
 Side 2 forced transition at x/c =  1.0000   66

 107   rms: 0.5337E-02   max: -.1004E+00   C at   53  1
       a = 10.000      CL =  1.3088
      Cm = -0.0360     CD =  0.01499   =>   CDf =  0.00587    CDp =  0.00912

 Side 1  free  transition at x/c =  0.2583   53
 Side 2 forced transition at x/c =  1.0000   66

 108   rms: 0.5337E-02   max: -.1004E+00   C at   53  1
       a = 10.000      CL =  1.3088
      Cm = -0.0360     CD =  0.01499   =>   CDf =  0.00587    CDp =  0.00912

 Side 1  free  transition at x/c =  0.2583   53
[...]
       a = 12.750      CL =  1.4397
      Cm = -0.0167     CD =  0.02264   =>   CDf =  0.00570    CDp =  0.01694

 Side 1  free  transition at x/c =  0.1891   52
 Side 2 forced transition at x/c =  1.0000   63

   2   rms: 0.4461E-02   max: -.2995E-01   C at   52  1
       a = 12.750      CL =  1.4363
      Cm = -0.0164     CD =  0.02280   =>   CDf =  0.00567    CDp =  0.01713

 Side 1  free  transition at x/c =  0.1898   52
 Side 2 forced transition at x/c =  1.0000   63

   3   rms: 0.9782E-04   max: 0.1880E-02   D at   86  1
       a = 12.750      CL =  1.4362
      Cm = -0.0164     CD =  0.02280   =>   CDf =  0.00565    CDp =  0.01714
 plradd ia,ip,cpol           39           0  1.54768871E-02

 Point added to stored polar  1
 Point written to save file  mh102_Re500k.base.pol                           
 Dump file unspecified or not available
 Calculating wake trajectory ...
 Calculating source influence matrix ...

 Solving BL system ...

 Side 1  free  transition at x/c =  0.1898   52
 Side 2 forced transition at x/c =  1.0000   63

   1   rms: 0.3521E-01   max: -.1280E+00   D at   52  1   RLX: 0.982
       a = 13.000      CL =  1.4445
      Cm = -0.0151     CD =  0.02400   =>   CDf =  0.00565    CDp =  0.01835

 Side 1  free  transition at x/c =  0.1841   52
 Side 2 forced transition at x/c =  1.0000   63

   2   rms: 0.4903E-02   max: 0.3673E-01   D at   85  1
       a = 13.000      CL =  1.4409
      Cm = -0.0149     CD =  0.02420   =>   CDf =  0.00567    CDp =  0.01853

 Side 1  free  transition at x/c =  0.1843   52
 Side 2 forced transition at x/c =  1.0000   63

   3   rms: 0.1697E-03   max: 0.2130E-02   D at   85  1
       a = 13.000      CL =  1.4408
      Cm = -0.0149     CD =  0.02420   =>   CDf =  0.00566    CDp =  0.01854

 Side 1  free  transition at x/c =  0.1843   52
 Side 2 forced transition at x/c =  1.0000   63

   4   rms: 0.3547E-05   max: -.5821E-04   C at   63  2
       a = 13.000      CL =  1.4408
      Cm = -0.0149     CD =  0.02420   =>   CDf =  0.00566    CDp =  0.01853
 plradd ia,ip,cpol           40           0  1.54768871E-02

 Point added to stored polar  1
 Point written to save file  mh102_Re500k.base.pol                           
 Dump file unspecified or not available
 Calculating wake trajectory ...
 Calculating source influence matrix ...

 Solving BL system ...

 Side 1  free  transition at x/c =  0.1843   52
 Side 2 forced transition at x/c =  1.0000   63

   1   rms: 0.3901E-01   max: -.1606E+00   D at   52  1   RLX: 0.927
       a = 13.250      CL =  1.4440
      Cm = -0.0135     CD =  0.02575   =>   CDf =  0.00566    CDp =  0.02009

 Side 1  free  transition at x/c =  0.1800   51
 Side 2 forced transition at x/c =  1.0000   63

   2   rms: 0.9190E-02   max: -.7858E-01   C at   51  1
       a = 13.250      CL =  1.4499
      Cm = -0.0138     CD =  0.02535   =>   CDf =  0.00562    CDp =  0.01974

 Side 1  free  transition at x/c =  0.1794   51
 Side 2 forced transition at x/c =  1.0000   63

   3   rms: 0.1839E-03   max: 0.2468E-02   C at   51  1
       a = 13.250      CL =  1.4499
      Cm = -0.0138     CD =  0.02538   =>   CDf =  0.00560    CDp =  0.01977

 Side 1  free  transition at x/c =  0.1793   51
 Side 2 forced transition at x/c =  1.0000   63

   4   rms: 0.5451E-05   max: 0.7489E-04   C at   63  2
       a = 13.250      CL =  1.4499
      Cm = -0.0138     CD =  0.02538   =>   CDf =  0.00560    CDp =  0.01977
 plradd ia,ip,cpol           41           0  1.54768871E-02

 Point added to stored polar  1
 Point written to save file  mh102_Re500k.base.pol                           
 Dump file unspecified or not available
 Calculating wake trajectory ...
 Calculating source influence matrix ...

 Solving BL system ...

 Side 1  free  transition at x/c =  0.1793   51
 Side 2 forced transition at x/c =  1.0000   63

   1   rms: 0.3333E-01   max: -.9544E-01   D at   51  1   RLX: 0.905
       a = 13.500      CL =  1.4597
      Cm = -0.0130     CD =  0.02647   =>   CDf =  0.00535    CDp =  0.02112

 Side 1  free  transition at x/c =  0.1734   52
 Side 2 forced transition at x/c =  1.0000   62

   2   rms: 0.6419E-02   max: 0.4214E-01   D at   84  1
       a = 13.500      CL =  1.4567
      Cm = -0.0127     CD =  0.02680   =>   CDf =  0.00559    CDp =  0.02121

 Side 1  free  transition at x/c =  0.1738   52
 Side 2 forced transition at x/c =  1.0000   62

   3   rms: 0.7460E-03   max: -.8991E-02   D at    4  1
       a = 13.500      CL =  1.4565
      Cm = -0.0127     CD =  0.02679   =>   CDf =  0.00557    CDp =  0.02122

 Side 1  free  transition at x/c =  0.1738   52
 Side 2 forced transition at x/c =  1.0000   62

   4   rms: 0.4987E-05   max: -.6358E-04   C at   62  2
       a = 13.500      CL =  1.4565
      Cm = -0.0127     CD =  0.02679   =>   CDf =  0.00557    CDp =  0.02122
 plradd ia,ip,cpol           42           0  1.09140379E-02

 Point added to stored polar  1
 Point written to save file  mh102_Re500k.base.pol                           
 Dump file unspecified or not available
 Calculating wake trajectory ...
 Calculating source influence matrix ...

 Solving BL system ...

 Side 1  free  transition at x/c =  0.1738   52
 Side 2 forced transition at x/c =  1.0000   62

   1   rms: 0.3667E-01   max: -.1432E+00   D at   52  1   RLX: 0.860
       a = 13.750      CL =  1.4610
      Cm = -0.0118     CD =  0.02826   =>   CDf =  0.00557    CDp =  0.02269

 Side 1  free  transition at x/c =  0.1692   52
 Side 2 forced transition at x/c =  1.0000   62

   2   rms: 0.8867E-02   max: 0.5833E-01   D at   83  1
       a = 13.750      CL =  1.4576
      Cm = -0.0115     CD =  0.02873   =>   CDf =  0.00559    CDp =  0.02314

 Side 1  free  transition at x/c =  0.1686   52
 Side 2 forced transition at x/c =  1.0000   62

   3   rms: 0.4009E-03   max: 0.4739E-02   D at   71  2
       a = 13.750      CL =  1.4573
      Cm = -0.0114     CD =  0.02869   =>   CDf =  0.00558    CDp =  0.02311

 Side 1  free  transition at x/c =  0.1686   52
 Side 2 forced transition at x/c =  1.0000   62

   4   rms: 0.1004E-04   max: 0.1275E-03   D at   71  2
       a = 13.750      CL =  1.4572
      Cm = -0.0114     CD =  0.02869   =>   CDf =  0.00558    CDp =  0.02311
 plradd ia,ip,cpol           43           0  1.09140379E-02

 Point added to stored polar  1
 Point written to save file  mh102_Re500k.base.pol                           
 Dump file unspecified or not available
 Calculating wake trajectory ...
 Calculating source influence matrix ...

 Solving BL system ...

 Side 1  free  transition at x/c =  0.1686   52
 Side 2 forced transition at x/c =  1.0000   62

   1   rms: 0.4136E-01   max: 0.1540E+00   D at   81  1   RLX: 0.812
       a = 14.000      CL =  1.4571
      Cm = -0.0105     CD =  0.03052   =>   CDf =  0.00558    CDp =  0.02494

 Side 1  free  transition at x/c =  0.1649   51
 Side 2 forced transition at x/c =  1.0000   62

   2   rms: 0.1396E-01   max: -.1221E+00   D at   51  1
       a = 14.000      CL =  1.4669
      Cm = -0.0107     CD =  0.02997   =>   CDf =  0.00552    CDp =  0.02445

 Side 1  free  transition at x/c =  0.1642   51
 Side 2 forced transition at x/c =  1.0000   62

   3   rms: 0.5015E-03   max: 0.7592E-02   C at   51  1
       a = 14.000      CL =  1.4667
      Cm = -0.0107     CD =  0.03002   =>   CDf =  0.00549    CDp =  0.02452

 Side 1  free  transition at x/c =  0.1641   51
 Side 2 forced transition at x/c =  1.0000   62

   4   rms: 0.2113E-04   max: 0.8522E-04   D at   81  1
       a = 14.000      CL =  1.4667
      Cm = -0.0107     CD =  0.03002   =>   CDf =  0.00550    CDp =  0.02452
 plradd ia,ip,cpol           44           0  5.74122416E-03

 Point added to stored polar  1
 Point written to save file  mh102_Re500k.base.pol                           
 Dump file unspecified or not available
 Calculating wake trajectory ...
 Calculating source influence matrix ...

 Solving BL system ...

 Side 1  free  transition at x/c =  0.1641   51
 Side 2 forced transition at x/c =  1.0000   62

   1   rms: 0.3360E-01   max: 0.1054E+00   D at   80  1   RLX: 0.797
       a = 14.250      CL =  1.4732
      Cm = -0.0102     CD =  0.03131   =>   CDf =  0.00550    CDp =  0.02581

 Side 1  free  transition at x/c =  0.1595   51
 Side 2 forced transition at x/c =  1.0000   62

   2   rms: 0.9714E-02   max: 0.5925E-01   D at   81  1
       a = 14.250      CL =  1.4705
      Cm = -0.0099     CD =  0.03191   =>   CDf =  0.00549    CDp =  0.02642

 Side 1  free  transition at x/c =  0.1590   51
 Side 2 forced transition at x/c =  1.0000   62

   3   rms: 0.5630E-03   max: 0.3570E-02   D at   72  2
       a = 14.250      CL =  1.4700
      Cm = -0.0099     CD =  0.03187   =>   CDf =  0.00547    CDp =  0.02640

 Side 1  free  transition at x/c =  0.1591   51
 Side 2 forced transition at x/c =  1.0000   62

   4   rms: 0.1173E-04   max: 0.9292E-04   D at   72  2
       a = 14.250      CL =  1.4700
      Cm = -0.0099     CD =  0.03187   =>   CDf =  0.00547    CDp =  0.02640
 plradd ia,ip,cpol           45           0  7.25960219E-03

 Point added to stored polar  1
 Point written to save file  mh102_Re500k.base.pol                           
 Dump file unspecified or not available
 Calculating wake trajectory ...
 Calculating source influence matrix ...

 Solving BL system ...

 Side 1  free  transition at x/c =  0.1591   51
 Side 2 forced transition at x/c =  1.0000   62

   1   rms: 0.3658E-01   max: -.1362E+00   D at   51  1   RLX: 0.759
       a = 14.500      CL =  1.4723
      Cm = -0.0094     CD =  0.03352   =>   CDf =  0.00547    CDp =  0.02805

 Side 1  free  transition at x/c =  0.1554   51
 Side 2 forced transition at x/c =  1.0000   62

   2   rms: 0.1292E-01   max: 0.7634E-01   D at   80  1
       a = 14.500      CL =  1.4682
      Cm = -0.0091     CD =  0.03433   =>   CDf =  0.00548    CDp =  0.02885

 Side 1  free  transition at x/c =  0.1545   50
 Side 2 forced transition at x/c =  1.0000   62

   3   rms: 0.1191E-02   max: -.1531E-01   C at   50  1
       a = 14.500      CL =  1.4685
      Cm = -0.0091     CD =  0.03417   =>   CDf =  0.00547    CDp =  0.02870

 Side 1  free  transition at x/c =  0.1546   50
 Side 2 forced transition at x/c =  1.0000   62

   4   rms: 0.1085E-03   max: -.4289E-03   D at   80  1
       a = 14.500      CL =  1.4686
      Cm = -0.0091     CD =  0.03417   =>   CDf =  0.00547    CDp =  0.02870

 Side 1  free  transition at x/c =  0.1545   50
 Side 2 forced transition at x/c =  1.0000   62

   5   rms: 0.5494E-05   max: 0.5559E-04   C at   62  2
       a = 14.500      CL =  1.4686
      Cm = -0.0091     CD =  0.03417   =>   CDf =  0.00547    CDp =  0.02870
 plradd ia,ip,cpol           46           0  5.74122416E-03

 Point added to stored polar  1
 Point written to save file  mh102_Re500k.base.pol                           
 Dump file unspecified or not available
 Calculating wake trajectory ...
 Calculating source influence matrix ...

 Solving BL system ...

 Side 1  free  transition at x/c =  0.1545   50
 Side 2 forced transition at x/c =  1.0000   62

   1   rms: 0.3211E-01   max: -.1458E+00   C at   50  1   RLX: 0.735
       a = 14.750      CL =  1.4776
      Cm = -0.0089     CD =  0.03520   =>   CDf =  0.00547    CDp =  0.02973

 Side 1  free  transition at x/c =  0.1512   50
 Side 2 forced transition at x/c =  1.0000   62

   2   rms: 0.1030E-01   max: 0.4782E-01   D at   79  1
       a = 14.750      CL =  1.4763
      Cm = -0.0087     CD =  0.03588   =>   CDf =  0.00513    CDp =  0.03075

 Side 1  free  transition at x/c =  0.1503   51
 Side 2 forced transition at x/c =  1.0000   61
 idif Ue xi dudx           1  6.86264634E-02  5.58745861E-03   12.282232    
 Uenew xinew           2  3.26506823E-04  2.65836716E-05

   3   rms: 0.5056E-01   max: -.9018E+00   T at    2  1   RLX: 0.554
       a = 14.750      CL =  1.4760
      Cm = -0.0086     CD =  0.03581   =>   CDf =  0.00563    CDp =  0.03018

 Side 1  free  transition at x/c =  0.1503   50
 Side 2 forced transition at x/c =  1.0000   62

   4   rms: 0.1742E-02   max: -.1944E-01   D at    3  1
       a = 14.750      CL =  1.4757
      Cm = -0.0086     CD =  0.03583   =>   CDf =  0.00538    CDp =  0.03045

 Side 1  free  transition at x/c =  0.1504   50
 Side 2 forced transition at x/c =  1.0000   62

   5   rms: 0.2880E-03   max: 0.3527E-02   D at    4  2
       a = 14.750      CL =  1.4756
      Cm = -0.0086     CD =  0.03583   =>   CDf =  0.00538    CDp =  0.03045

 Side 1  free  transition at x/c =  0.1504   50
 Side 2 forced transition at x/c =  1.0000   62

   6   rms: 0.4328E-05   max: -.5268E-04   D at    4  2
       a = 14.750      CL =  1.4756
      Cm = -0.0086     CD =  0.03583   =>   CDf =  0.00538    CDp =  0.03045
 plradd ia,ip,cpol           47           0  2.29432830E-03

 Point added to stored polar  1
 Point written to save file  mh102_Re500k.base.pol                           
 Dump file unspecified or not available
 Calculating wake trajectory ...
 Calculating source influence matrix ...

 Solving BL system ...

 Side 1  free  transition at x/c =  0.1504   50
 Side 2 forced transition at x/c =  1.0000   62

   1   rms: 0.3412E-01   max: -.1504E+00   D at    3  2   RLX: 0.705
       a = 15.000      CL =  1.4801
      Cm = -0.0084     CD =  0.03726   =>   CDf =  0.00511    CDp =  0.03215

 Side 1  free  transition at x/c =  0.1465   51
 Side 2 forced transition at x/c =  1.0000   61

   2   rms: 0.1299E-01   max: 0.7227E-01   D at   79  1
       a = 15.000      CL =  1.4772
      Cm = -0.0082     CD =  0.03818   =>   CDf =  0.00536    CDp =  0.03282

 Side 1  free  transition at x/c =  0.1456   51
 Side 2 forced transition at x/c =  1.0000   61

   3   rms: 0.9003E-03   max: 0.5688E-02   D at   72  2
       a = 15.000      CL =  1.4764
      Cm = -0.0081     CD =  0.03810   =>   CDf =  0.00534    CDp =  0.03276

 Side 1  free  transition at x/c =  0.1457   51
 Side 2 forced transition at x/c =  1.0000   61

   4   rms: 0.2603E-04   max: 0.1869E-03   D at   72  2
       a = 15.000      CL =  1.4764
      Cm = -0.0081     CD =  0.03810   =>   CDf =  0.00534    CDp =  0.03275
 plradd ia,ip,cpol           48           0  1.49160775E-03

 Point added to stored polar  1
 Point written to save file  mh102_Re500k.base.pol                           
 Dump file unspecified or not available
 Calculating wake trajectory ...
 Calculating source influence matrix ...

 Solving BL system ...

 Side 1  free  transition at x/c =  0.1457   51
 Side 2 forced transition at x/c =  1.0000   61

   1   rms: 0.3693E-01   max: 0.1457E+00   D at   77  1   RLX: 0.672
       a = 15.250      CL =  1.4768
      Cm = -0.0080     CD =  0.03992   =>   CDf =  0.00535    CDp =  0.03458

 Side 1  free  transition at x/c =  0.1427   51
 Side 2 forced transition at x/c =  1.0000   61

   2   rms: 0.1546E-01   max: 0.8040E-01   D at   78  1
       a = 15.250      CL =  1.4727
      Cm = -0.0078     CD =  0.04105   =>   CDf =  0.00535    CDp =  0.03570

 Side 1  free  transition at x/c =  0.1415   50
 Side 2 forced transition at x/c =  1.0000   61

   3   rms: 0.1052E-02   max: 0.9593E-02   D at   72  2
       a = 15.250      CL =  1.4720
      Cm = -0.0077     CD =  0.04090   =>   CDf =  0.00534    CDp =  0.03556

 Side 1  free  transition at x/c =  0.1415   50
 Side 2 forced transition at x/c =  1.0000   61

   4   rms: 0.2263E-04   max: 0.4368E-03   D at   72  2
       a = 15.250      CL =  1.4720
      Cm = -0.0077     CD =  0.04089   =>   CDf =  0.00534    CDp =  0.03556
 plradd ia,ip,cpol           49           0  1.15612325E-04

 Point added to stored polar  1
 Point written to save file  mh102_Re500k.base.pol                           
 Dump file unspecified or not available
 Calculating wake trajectory ...
 Calculating source influence matrix ...

 Solving BL system ...

 Side 1  free  transition at x/c =  0.1415   50
 Side 2 forced transition at x/c =  1.0000   61

   1   rms: 0.3191E-01   max: -.1573E+00   C at   50  1   RLX: 0.652
       a = 15.500      CL =  1.4790
      Cm = -0.0076     CD =  0.04203   =>   CDf =  0.00534    CDp =  0.03669

 Side 1  free  transition at x/c =  0.1388   50
 Side 2 forced transition at x/c =  1.0000   61

   2   rms: 0.1224E-01   max: 0.5144E-01   D at   76  1
       a = 15.500      CL =  1.4785
      Cm = -0.0076     CD =  0.04293   =>   CDf =  0.00528    CDp =  0.03766

 Side 1  free  transition at x/c =  0.1374   50
 Side 2 forced transition at x/c =  1.0000   61

   3   rms: 0.1225E-02   max: 0.5635E-02   D at   72  2
       a = 15.500      CL =  1.4775
      Cm = -0.0075     CD =  0.04287   =>   CDf =  0.00525    CDp =  0.03763

 Side 1  free  transition at x/c =  0.1375   50
 Side 2 forced transition at x/c =  1.0000   61

   4   rms: 0.4382E-04   max: -.3339E-03   C at   61  2
       a = 15.500      CL =  1.4774
      Cm = -0.0075     CD =  0.04287   =>   CDf =  0.00524    CDp =  0.03762
 plradd ia,ip,cpol           50           0  1.15612325E-04

 Point added to stored polar  1
 Point written to save file  mh102_Re500k.base.pol                           
 Dump file unspecified or not available
 Calculating wake trajectory ...
 Calculating source influence matrix ...

 Solving BL system ...

 Side 1  free  transition at x/c =  0.1375   50
 Side 2 forced transition at x/c =  1.0000   61

   1   rms: 0.3227E-01   max: 0.1171E+00   D at   75  1   RLX: 0.627
       a = 15.750      CL =  1.4804
      Cm = -0.0075     CD =  0.04440   =>   CDf =  0.00525    CDp =  0.03915

 Side 1  free  transition at x/c =  0.1346   50
 Side 2 forced transition at x/c =  1.0000   61

   2   rms: 0.1497E-01   max: 0.7955E-01   D at   76  1
       a = 15.750      CL =  1.4777
      Cm = -0.0075     CD =  0.04564   =>   CDf =  0.00522    CDp =  0.04042

 Side 1  free  transition at x/c =  0.1333   50
 Side 2 forced transition at x/c =  1.0000   61

   3   rms: 0.1393E-02   max: 0.7572E-02   D at   73  2
       a = 15.750      CL =  1.4765
      Cm = -0.0073     CD =  0.04552   =>   CDf =  0.00520    CDp =  0.04032

 Side 1  free  transition at x/c =  0.1334   50
 Side 2 forced transition at x/c =  1.0000   61

   4   rms: 0.3513E-04   max: -.3454E-03   C at   61  2
       a = 15.750      CL =  1.4765
      Cm = -0.0073     CD =  0.04551   =>   CDf =  0.00520    CDp =  0.04031
 plradd ia,ip,cpol           51           0  1.15612325E-04

 Point added to stored polar  1
 Point written to save file  mh102_Re500k.base.pol                           
 Dump file unspecified or not available
 Calculating wake trajectory ...
 Calculating source influence matrix ...

 Solving BL system ...

 Side 1  free  transition at x/c =  0.1334   50
 Side 2 forced transition at x/c =  1.0000   61

   1   rms: 0.3528E-01   max: 0.1447E+00   D at   74  1   RLX: 0.601
       a = 16.000      CL =  1.4765
      Cm = -0.0075     CD =  0.04737   =>   CDf =  0.00520    CDp =  0.04217

 Side 1  free  transition at x/c =  0.1309   50
 Side 2 forced transition at x/c =  1.0000   61

   2   rms: 0.1770E-01   max: 0.9534E-01   D at   75  1
       a = 16.000      CL =  1.4718
      Cm = -0.0075     CD =  0.04893   =>   CDf =  0.00521    CDp =  0.04372

 Side 1  free  transition at x/c =  0.1295   50
 Side 2 forced transition at x/c =  1.0000   61

   3   rms: 0.1590E-02   max: 0.1070E-01   D at   73  2
       a = 16.000      CL =  1.4705
      Cm = -0.0073     CD =  0.04875   =>   CDf =  0.00519    CDp =  0.04355

 Side 1  free  transition at x/c =  0.1295   50
 Side 2 forced transition at x/c =  1.0000   61

   4   rms: 0.7640E-04   max: 0.1058E-02   D at   73  2
       a = 16.000      CL =  1.4704
      Cm = -0.0073     CD =  0.04874   =>   CDf =  0.00519    CDp =  0.04354
 plradd ia,ip,cpol           52           0  1.15612325E-04

 Point added to stored polar  1
 Point written to save file  mh102_Re500k.base.pol                           
 Dump file unspecified or not available

.OPERva   c>  
 Polar accumulation disabled

.OPERv   c>  
 XFOIL   c>  
 XFOIL   c>  