  
       XFOIL         Version 6.99
  
 Calculated polar for: MH 117  9.8%                                    
  
 1 1 Reynolds number fixed          Mach number fixed         
  
 xtrf =   1.000 (top)        1.000 (bottom)  
 Mach =   0.000     Re =     0.150 e 6     Ncrit =   9.000
  
   alpha    CL        CD       CDp       CM     Top_Xtr  Bot_Xtr
  ------ -------- --------- --------- -------- -------- --------
  -4.000  -0.2108   0.01631   0.00867  -0.0613   0.9629   0.1561
  -3.500  -0.1338   0.01522   0.00772  -0.0659   0.9499   0.2123
  -3.000  -0.0554   0.01418   0.00698  -0.0707   0.9380   0.3015
  -2.500   0.0233   0.01315   0.00644  -0.0754   0.9271   0.4348
  -2.000   0.0866   0.01228   0.00618  -0.0764   0.9115   0.6027
  -1.500   0.1390   0.01165   0.00614  -0.0739   0.8942   0.7920
  -1.000   0.2291   0.01122   0.00577  -0.0785   0.8825   0.9617
  -0.500   0.3126   0.01106   0.00535  -0.0842   0.8644   1.0000
   0.000   0.3611   0.01114   0.00518  -0.0824   0.8433   1.0000
   0.500   0.4085   0.01133   0.00519  -0.0804   0.8207   1.0000
   1.000   0.4593   0.01147   0.00517  -0.0788   0.8000   1.0000
   1.500   0.5087   0.01169   0.00528  -0.0772   0.7769   1.0000
   2.000   0.5604   0.01186   0.00535  -0.0757   0.7550   1.0000
   2.500   0.6114   0.01204   0.00546  -0.0742   0.7304   1.0000
   3.000   0.6623   0.01222   0.00563  -0.0726   0.7043   1.0000
   3.500   0.7135   0.01239   0.00578  -0.0711   0.6762   1.0000
   4.000   0.7646   0.01255   0.00593  -0.0695   0.6452   1.0000
   4.500   0.8142   0.01274   0.00614  -0.0677   0.6084   1.0000
   5.000   0.8628   0.01295   0.00637  -0.0657   0.5637   1.0000
   5.500   0.9093   0.01331   0.00667  -0.0634   0.5063   1.0000
   6.000   0.9521   0.01398   0.00717  -0.0607   0.4318   1.0000
   6.500   0.9907   0.01518   0.00803  -0.0577   0.3455   1.0000
   7.000   1.0264   0.01679   0.00928  -0.0547   0.2649   1.0000
   7.500   1.0600   0.01867   0.01090  -0.0515   0.1974   1.0000
   8.000   1.0915   0.02083   0.01280  -0.0482   0.1477   1.0000
   8.500   1.1231   0.02306   0.01494  -0.0450   0.1151   1.0000
   9.000   1.1549   0.02554   0.01744  -0.0418   0.0933   1.0000
   9.500   1.1861   0.02808   0.02009  -0.0388   0.0764   1.0000
  10.000   1.2148   0.03097   0.02307  -0.0356   0.0622   1.0000
  10.000   1.2148   0.03097   0.02307  -0.0356   0.0622   1.0000
  10.250   1.2276   0.03267   0.02497  -0.0338   0.0559   1.0000
  10.500   1.2358   0.03397   0.02626  -0.0317   0.0502   1.0000
  10.750   1.2437   0.03585   0.02837  -0.0294   0.0447   1.0000
  11.000   1.2487   0.03726   0.02985  -0.0271   0.0402   1.0000
  11.250   1.2540   0.03994   0.03272  -0.0252   0.0357   1.0000
  11.500   1.2541   0.04148   0.03446  -0.0228   0.0321   1.0000
  11.750   1.2570   0.04369   0.03673  -0.0212   0.0293   1.0000
  12.250   1.2511   0.05035   0.04402  -0.0178   0.0257   1.0000
  12.500   1.2463   0.05328   0.04719  -0.0167   0.0243   1.0000
  12.750   1.2416   0.05589   0.04995  -0.0161   0.0228   1.0000
  13.000   1.2369   0.05896   0.05315  -0.0158   0.0219   1.0000
  13.250   1.2308   0.06261   0.05688  -0.0159   0.0209   1.0000
  13.500   1.2176   0.06764   0.06214  -0.0165   0.0205   1.0000
  13.750   1.2002   0.07336   0.06812  -0.0177   0.0203   1.0000
  14.000   1.1822   0.07928   0.07429  -0.0198   0.0202   1.0000
  14.250   1.1646   0.08539   0.08062  -0.0224   0.0202   1.0000
  14.500   1.1468   0.09191   0.08736  -0.0258   0.0203   1.0000
  14.750   1.1280   0.09912   0.09479  -0.0301   0.0204   1.0000
  15.000   1.1095   0.10698   0.10286  -0.0352   0.0206   1.0000
  15.250   0.9314   0.17121   0.16747  -0.0739   0.0435   1.0000
  15.500   0.9282   0.17883   0.17505  -0.0777   0.0446   1.0000
  15.750   0.9280   0.18551   0.18170  -0.0810   0.0452   1.0000
  16.000   0.9340   0.19059   0.18679  -0.0824   0.0474   1.0000
