
 ===================================================
  XFOIL Version 6.99
  Copyright (C) 2000   Mark Drela, Harold Youngren

  This software comes with ABSOLUTELY NO WARRANTY,
    subject to the GNU General Public License.

  Caveat computor
 ===================================================

 File  xfoil.def  not found

   QUIT    Exit program

  .OPER    Direct operating point(s)
  .MDES    Complex mapping design routine
  .QDES    Surface speed design routine
  .GDES    Geometry design routine

   SAVE f  Write airfoil to labeled coordinate file
   PSAV f  Write airfoil to plain coordinate file
   ISAV f  Write airfoil to ISES coordinate file
   MSAV f  Write airfoil to MSES coordinate file
   REVE    Reverse written-airfoil node ordering

   LOAD f  Read buffer airfoil from coordinate file
   NACA i  Set NACA 4,5-digit airfoil and buffer airfoil
   INTE    Set buffer airfoil by interpolating two airfoils
   NORM    Buffer airfoil normalization toggle
   XYCM rr Change CM reference location, currently  0.25000 0.00000

   BEND    Display structural properties of current airfoil

   PCOP    Set current-airfoil panel nodes directly from buffer airfoil points
   PANE    Set current-airfoil panel nodes ( 160 ) based on curvature
  .PPAR    Show/change paneling

  .PLOP    Plotting options

   WDEF f  Write  current-settings file
   RDEF f  Reread current-settings file
   NAME s  Specify new airfoil name
   NINC    Increment name version number

   Z       Zoom    | (available in all menus)
   U       Unzoom  | 

 XFOIL   c>  
 Labeled airfoil file.  Name:  MH 122  9.32%                                   

 Number of input coordinate points:  68
 Counterclockwise ordering
 Max thickness =     0.093227  at x =   0.336
 Max camber    =     0.035084  at x =   0.624

  LE  x,y  =  -0.00000  -0.00003  |   Chord =   1.00000
  TE  x,y  =   1.00000   0.00000  |

 Current airfoil nodes set from buffer airfoil nodes (  68 )

 XFOIL   c>  
 XFOIL   c>  
 Sharp trailing edge

 Paneling parameters used...
   Number of panel nodes       160
   Panel bunching parameter    1.000
   TE/LE panel density ratio   0.150
   Refined-area/LE panel density ratio    0.200
   Top    side refined area x/c limits  1.000 1.000
   Bottom side refined area x/c limits  1.000 1.000

 XFOIL   c>  
.OPERi   c>  
 Xtr/c     =  1.0000    top    side
 Xtr/c     =  1.0000    bottom side
 Ncrit     =    9.00   ( 0.070 % turb. level )
 Vacc      =  0.0100

 Klag  =  5.6000     Uxwt  =    1.00
 A     =  6.7000     B     =  0.7500       KCt = 0.01485
 CtiniK=  1.8000     CtiniX=  3.3000

..VPAR   c>  
..VPAR   c>  
.OPERi   c>  
 M  =    0.0000
 Re =    500000

.OPERv   c>  
.OPERv   c>  
.OPERv   c>  
 Polar  1 newly created for accumulation
 Airfoil archived with polar: MH 122  9.32%                                   

Enter  polar save filename  OR  <return> for no file   s>  
 New polar save file available

Enter  polar dump filename  OR  <return> for no file   s>  
 Polar dump file will NOT be written

 Polar accumulation enabled

.OPERva   c>   Calculating unit vorticity distributions ...
 Calculating wake trajectory ...
 Calculating source influence matrix ...

 Solving BL system ...

 Initializing BL ...
    side            1  ...
 MRCHUE: Inverse mode at  61     Hk =   3.946
 MRCHUE: Inverse mode at  62     Hk =   4.488
 MRCHUE: Inverse mode at  63     Hk =   5.021
 MRCHUE: Inverse mode at  64     Hk =   5.547
 MRCHUE: Inverse mode at  65     Hk =   6.068
 MRCHUE: Inverse mode at  66     Hk =   6.585
 MRCHUE: Inverse mode at  67     Hk =   7.097
 MRCHUE: Inverse mode at  68     Hk =   7.605
 MRCHUE: Inverse mode at  69     Hk =   8.110
 MRCHUE: Inverse mode at  70     Hk =   8.613
 MRCHUE: Inverse mode at  71     Hk =   9.112
 MRCHUE: Inverse mode at  72     Hk =   9.609
 MRCHUE: Inverse mode at  73     Hk =   7.589
 MRCHUE: Inverse mode at  74     Hk =   6.032
 MRCHUE: Inverse mode at  75     Hk =   4.949
 MRCHUE: Inverse mode at  76     Hk =   4.119
 MRCHUE: Inverse mode at  77     Hk =   3.440
 MRCHUE: Inverse mode at  78     Hk =   2.895
 MRCHUE: Inverse mode at  79     Hk =   2.657
    side            2  ...
 MRCHUE: Inverse mode at   6     Hk =   5.241
 MRCHUE: Inverse mode at   7     Hk =   7.375
 MRCHUE: Inverse mode at   8     Hk =   9.443
 MRCHUE: Inverse mode at   9     Hk =   3.948
 MRCHUE: Inverse mode at  10     Hk =   2.500

 Side 1  free  transition at x/c =  0.9205   73
 Side 2  free  transition at x/c =  0.0105    9

   1   rms: 0.1673E+00   max: -.9241E+00   D at   11  2   RLX: 0.541
       a = -4.000      CL =  0.0905
      Cm = -0.1435     CD =  0.01069   =>   CDf =  0.00584    CDp =  0.00485

 MRCHDU: Convergence failed at   9  side 2    Res =  0.3736E+01
 MRCHDU: Convergence failed at  10  side 2    Res =  0.2791E+03
 MRCHDU: Convergence failed at  11  side 2    Res =  0.2469E+02
 MRCHDU: Convergence failed at  12  side 2    Res =  0.5729E+02
 MRCHDU: Convergence failed at  13  side 2    Res =  0.1083E+03
 MRCHDU: Convergence failed at  14  side 2    Res =  0.3853E+02
 MRCHDU: Convergence failed at  15  side 2    Res =  0.6620E+02
 MRCHDU: Convergence failed at  16  side 2    Res =  0.7537E+02
 MRCHDU: Convergence failed at  17  side 2    Res =  0.7503E+02
 MRCHDU: Convergence failed at  18  side 2    Res =  0.8141E+02
 MRCHDU: Convergence failed at  19  side 2    Res =  0.7717E+02
 MRCHDU: Convergence failed at  20  side 2    Res =  0.8189E+02
 MRCHDU: Convergence failed at  21  side 2    Res =  0.8291E+02
 MRCHDU: Convergence failed at  22  side 2    Res =  0.8528E+02
 MRCHDU: Convergence failed at  23  side 2    Res =  0.8131E+02
 MRCHDU: Convergence failed at  24  side 2    Res =  0.8304E+02
 MRCHDU: Convergence failed at  25  side 2    Res =  0.7132E+02
 MRCHDU: Convergence failed at  26  side 2    Res =  0.7587E+02
 MRCHDU: Convergence failed at  27  side 2    Res =  0.6064E+02
 MRCHDU: Convergence failed at  28  side 2    Res =  0.6061E+02
 MRCHDU: Convergence failed at  29  side 2    Res =  0.6339E+02
 MRCHDU: Convergence failed at  30  side 2    Res =  0.5380E+02
 MRCHDU: Convergence failed at  31  side 2    Res =  0.5736E+02
 MRCHDU: Convergence failed at  32  side 2    Res =  0.6199E+02
 MRCHDU: Convergence failed at  33  side 2    Res =  0.5512E+02
 MRCHDU: Convergence failed at  34  side 2    Res =  0.6015E+02
 MRCHDU: Convergence failed at  35  side 2    Res =  0.6443E+02
 MRCHDU: Convergence failed at  36  side 2    Res =  0.7077E+02
 MRCHDU: Convergence failed at  37  side 2    Res =  0.7853E+02
 MRCHDU: Convergence failed at  38  side 2    Res =  0.8709E+02
 MRCHDU: Convergence failed at  39  side 2    Res =  0.9012E+02
 MRCHDU: Convergence failed at  40  side 2    Res =  0.9965E+02
 MRCHDU: Convergence failed at  41  side 2    Res =  0.4079E+03
 MRCHDU: Convergence failed at  42  side 2    Res =  0.9612E+03
 MRCHDU: Convergence failed at  43  side 2    Res =  0.1513E+04
 MRCHDU: Convergence failed at  44  side 2    Res =  0.6276E+03
 MRCHDU: Convergence failed at  45  side 2    Res =  0.3981E+03
 MRCHDU: Convergence failed at  46  side 2    Res =  0.2958E+03
 MRCHDU: Convergence failed at  47  side 2    Res =  0.2393E+03
 MRCHDU: Convergence failed at  48  side 2    Res =  0.2008E+03
 MRCHDU: Convergence failed at  49  side 2    Res =  0.1747E+03
 MRCHDU: Convergence failed at  50  side 2    Res =  0.1555E+03
 MRCHDU: Convergence failed at  51  side 2    Res =  0.7716E+02
 MRCHDU: Convergence failed at  52  side 2    Res =  0.8191E+02
 MRCHDU: Convergence failed at  53  side 2    Res =  0.8713E+02
 MRCHDU: Convergence failed at  54  side 2    Res =  0.9261E+02
 MRCHDU: Convergence failed at  55  side 2    Res =  0.9893E+02
 MRCHDU: Convergence failed at  56  side 2    Res =  0.1051E+03
 MRCHDU: Convergence failed at  57  side 2    Res =  0.1124E+03
 MRCHDU: Convergence failed at  58  side 2    Res =  0.1201E+03
 MRCHDU: Convergence failed at  59  side 2    Res =  0.1290E+03
 MRCHDU: Convergence failed at  60  side 2    Res =  0.1382E+03
 MRCHDU: Convergence failed at  61  side 2    Res =  0.1494E+03
 MRCHDU: Convergence failed at  62  side 2    Res =  0.1612E+03
 MRCHDU: Convergence failed at  63  side 2    Res =  0.1754E+03
 MRCHDU: Convergence failed at  64  side 2    Res =  0.1900E+03
 MRCHDU: Convergence failed at  65  side 2    Res =  0.2081E+03
 MRCHDU: Convergence failed at  66  side 2    Res =  0.2284E+03
 MRCHDU: Convergence failed at  67  side 2    Res =  0.2523E+03
 MRCHDU: Convergence failed at  68  side 2    Res =  0.2804E+03
 MRCHDU: Convergence failed at  69  side 2    Res =  0.3147E+03
 MRCHDU: Convergence failed at  70  side 2    Res =  0.3572E+03
 MRCHDU: Convergence failed at  71  side 2    Res =  0.4118E+03
 MRCHDU: Convergence failed at  72  side 2    Res =  0.4718E+03
 MRCHDU: Convergence failed at  73  side 2    Res =  0.5733E+03
 MRCHDU: Convergence failed at  74  side 2    Res =  0.6726E+03
 MRCHDU: Convergence failed at  75  side 2    Res =  0.8558E+03
 MRCHDU: Convergence failed at  76  side 2    Res =  0.1162E+04
 MRCHDU: Convergence failed at  77  side 2    Res =  0.1631E+04
 MRCHDU: Convergence failed at  78  side 2    Res =  0.1138E+05
 MRCHDU: Convergence failed at  79  side 2    Res =  0.6272E+02
 MRCHDU: Convergence failed at  80  side 2    Res =  0.6248E+02
 MRCHDU: Convergence failed at  81  side 2    Res =  0.6052E+02
 MRCHDU: Convergence failed at  82  side 2    Res =  0.5728E+02
 MRCHDU: Convergence failed at  83  side 2    Res =  0.1450E+03
 Side 1  free  transition at x/c =  0.9229   73
 Side 2  free  transition at x/c =  0.0074    9

   2   rms: 0.1573E+01   max: 0.2344E+01   D at   85  2   RLX: 0.398
       a = -4.000      CL = -1.1717
      Cm =  0.2314     CD =  0.00540   =>   CDf =  0.00172    CDp =  0.00368

 MRCHDU: Convergence failed at  11  side 2    Res =  0.9201E-01
 MRCHDU: Convergence failed at  85  side 2    Res =  0.1279E+02
 Side 1  free  transition at x/c =  0.9325   74
 Side 2  free  transition at x/c =  0.0084    9

   3   rms: 0.5556E+00   max: -.1932E+01   D at   22  2   RLX: 0.259
       a = -4.000      CL = -0.4822
      Cm =  0.0257     CD =  0.03472   =>   CDf =  0.00346    CDp =  0.03126

 MRCHDU: Convergence failed at  22  side 2    Res =  0.2191E+00
 MRCHDU: Convergence failed at  23  side 2    Res =  0.8606E+00
 Side 1  free  transition at x/c =  0.9375   74
 Side 2  free  transition at x/c =  0.0075    9
 idif Ue xi dudx           1  0.37860969      3.81886959E-03   99.141823    
 Uenew xinew           2  8.72214604E-03  8.79764557E-05

   4   rms: 0.1229E+01   max: -.4159E+01   D at   15  2   RLX: 0.120
       a = -4.000      CL = -0.1667
      Cm = -0.0808     CD =  0.03412   =>   CDf =  0.00280    CDp =  0.03132

 Side 1  free  transition at x/c =  0.9301   72
 Side 2  free  transition at x/c =  0.0068   10

   5   rms: 0.1606E+01   max: -.2404E+02   T at    2  2   RLX: 0.021
       a = -4.000      CL = -0.0957
      Cm = -0.1013     CD =  0.03880   =>   CDf =  0.00312    CDp =  0.03567

 Side 1  free  transition at x/c =  0.9341   74
 Side 2  free  transition at x/c =  0.0068    9

   6   rms: 0.5032E+01   max: -.8703E+02   D at    2  1   RLX: 0.006
       a = -4.000      CL = -0.0855
      Cm = -0.1044     CD =  0.03860   =>   CDf =  0.00296    CDp =  0.03564

 Side 1  free  transition at x/c =  0.9341   74
 Side 2  free  transition at x/c =  0.0068    9

   7   rms: 0.8454E+00   max: 0.5308E+01   D at   15  2   RLX: 0.197
       a = -4.000      CL = -0.0416
      Cm = -0.1035     CD =  0.04344   =>   CDf =  0.00295    CDp =  0.04049

 Side 1  free  transition at x/c =  0.9375   74
 Side 2  free  transition at x/c =  0.0074    9

   8   rms: 0.8120E+00   max: -.2335E+01   D at   29  2   RLX: 0.214
       a = -4.000      CL =  0.0885
      Cm = -0.1464     CD =  0.02951   =>   CDf =  0.00270    CDp =  0.02681

 Side 1  free  transition at x/c =  0.9278   73
 Side 2  free  transition at x/c =  0.0071    9
 idif Ue xi dudx           1  0.37219304      3.78501415E-03   98.333328    
 Uenew xinew           2  5.32189989E-03  5.41210175E-05

   9   rms: 0.1354E+01   max: -.5452E+01   D at   31  2   RLX: 0.092
       a = -4.000      CL =  0.1374
      Cm = -0.1613     CD =  0.02530   =>   CDf =  0.00265    CDp =  0.02265

 Side 1  free  transition at x/c =  0.9298   72
 Side 2  free  transition at x/c =  0.0070   10

  10   rms: 0.1245E+01   max: 0.8481E+01   D at    2  2   RLX: 0.110
       a = -4.000      CL =  0.1281
      Cm = -0.1584     CD =  0.02342   =>   CDf =  0.00304    CDp =  0.02038

 Side 1  free  transition at x/c =  0.9293   72
 Side 2  free  transition at x/c =  0.0070   10

  11   rms: 0.1010E+01   max: -.4166E+01   D at   21  2   RLX: 0.120
       a = -4.000      CL =  0.1070
      Cm = -0.1522     CD =  0.02272   =>   CDf =  0.00327    CDp =  0.01945

 Side 1  free  transition at x/c =  0.9270   72
 Side 2  free  transition at x/c =  0.0070   10

  12   rms: 0.1098E+01   max: -.5073E+01   D at   16  2   RLX: 0.099
       a = -4.000      CL =  0.0908
      Cm = -0.1475     CD =  0.02246   =>   CDf =  0.00355    CDp =  0.01890

 MRCHDU: Convergence failed at  14  side 2    Res =  0.2319E+02
 Side 1  free  transition at x/c =  0.9256   72
 Side 2  free  transition at x/c =  0.0071   10

  13   rms: 0.3955E+00   max: -.1513E+01   D at   28  2   RLX: 0.330
       a = -4.000      CL =  0.0611
      Cm = -0.1408     CD =  0.02087   =>   CDf =  0.00398    CDp =  0.01689

 Side 1  free  transition at x/c =  0.9230   72
 Side 2  free  transition at x/c =  0.0072   10

  14   rms: 0.3296E+00   max: -.1066E+01   D at   53  2   RLX: 0.469
       a = -4.000      CL =  0.0345
      Cm = -0.1365     CD =  0.01906   =>   CDf =  0.00424    CDp =  0.01482

 Side 1  free  transition at x/c =  0.9161   71
 Side 2  free  transition at x/c =  0.0075   10

  15   rms: 0.8009E+00   max: 0.2834E+01   T at   71  1   RLX: 0.208
       a = -4.000      CL = -0.0211
      Cm = -0.1364     CD =  0.01710   =>   CDf =  0.00445    CDp =  0.01264

 Side 1  free  transition at x/c =  0.8992   70
 Side 2  free  transition at x/c =  0.0086   10

  16   rms: 0.4498E+00   max: -.1281E+01   T at   70  1   RLX: 0.390
       a = -4.000      CL =  0.0223
      Cm = -0.1378     CD =  0.01308   =>   CDf =  0.00493    CDp =  0.00814

 Side 1  free  transition at x/c =  0.9161   71
 Side 2  free  transition at x/c =  0.0075   10

  17   rms: 0.1868E+00   max: -.6244E+00   D at   46  2   RLX: 0.801
       a = -4.000      CL =  0.0603
      Cm = -0.1351     CD =  0.01117   =>   CDf =  0.00556    CDp =  0.00562

 Side 1  free  transition at x/c =  0.9219   73
 Side 2  free  transition at x/c =  0.0074    9

  18   rms: 0.6454E-01   max: -.6074E+00   D at    2  1   RLX: 0.823
       a = -4.000      CL =  0.0729
      Cm = -0.1341     CD =  0.01129   =>   CDf =  0.00586    CDp =  0.00543

 Side 1  free  transition at x/c =  0.9232   73
 Side 2  free  transition at x/c =  0.0074    9

  19   rms: 0.1167E-01   max: -.4970E-01   D at   43  2
       a = -4.000      CL =  0.0776
      Cm = -0.1343     CD =  0.01123   =>   CDf =  0.00596    CDp =  0.00527

 Side 1  free  transition at x/c =  0.9240   73
 Side 2  free  transition at x/c =  0.0074    9

  20   rms: 0.2625E-03   max: -.1870E-02   D at   74  1
       a = -4.000      CL =  0.0777
      Cm = -0.1343     CD =  0.01122   =>   CDf =  0.00598    CDp =  0.00525

 Side 1  free  transition at x/c =  0.9240   73
 Side 2  free  transition at x/c =  0.0074    9

  21   rms: 0.7727E-06   max: 0.6980E-05   T at   73  1
       a = -4.000      CL =  0.0777
      Cm = -0.1343     CD =  0.01122   =>   CDf =  0.00598    CDp =  0.00525
 plradd ia,ip,cpol            1           0  1.25738079E-04

 Point added to stored polar  1
 Point written to save file  mh122_Re500k.base.pol                           
 Dump file unspecified or not available
 Calculating wake trajectory ...
 Calculating source influence matrix ...

 Solving BL system ...

 Side 1  free  transition at x/c =  0.9240   73
 Side 2  free  transition at x/c =  0.0074    9

   1   rms: 0.1562E+00   max: -.6375E+00   D at   10  2   RLX: 0.784
       a = -3.500      CL =  0.1255
      Cm = -0.1355     CD =  0.00992   =>   CDf =  0.00598    CDp =  0.00393

 Side 1  free  transition at x/c =  0.9206   73
 Side 2  free  transition at x/c =  0.0079    9

   2   rms: 0.3906E-01   max: -.1818E+00   D at   10  2
       a = -3.500      CL =  0.1413
      Cm = -0.1362     CD =  0.00987   =>   CDf =  0.00619    CDp =  0.00368

 Side 1  free  transition at x/c =  0.9201   73
 Side 2  free  transition at x/c =  0.0089    9

   3   rms: 0.4194E-02   max: 0.9924E-01   D at    9  2
       a = -3.500      CL =  0.1414
      Cm = -0.1362     CD =  0.00989   =>   CDf =  0.00627    CDp =  0.00362

 Side 1  free  transition at x/c =  0.9201   73
 Side 2  free  transition at x/c =  0.0090    9

   4   rms: 0.6622E-03   max: 0.1218E-01   D at    9  2
       a = -3.500      CL =  0.1414
      Cm = -0.1362     CD =  0.00989   =>   CDf =  0.00626    CDp =  0.00364

 Side 1  free  transition at x/c =  0.9201   73
 Side 2  free  transition at x/c =  0.0090    9

   5   rms: 0.5921E-05   max: 0.9446E-04   D at    9  2
       a = -3.500      CL =  0.1414
      Cm = -0.1362     CD =  0.00989   =>   CDf =  0.00626    CDp =  0.00364
 plradd ia,ip,cpol            2           0  1.25738079E-04

 Point added to stored polar  1
 Point written to save file  mh122_Re500k.base.pol                           
 Dump file unspecified or not available
 Calculating wake trajectory ...
 Calculating source influence matrix ...

 Solving BL system ...

 Side 1  free  transition at x/c =  0.9201   73
 Side 2  free  transition at x/c =  0.0090    9

   1   rms: 0.1432E+00   max: -.7626E+00   T at    9  2   RLX: 0.656
       a = -3.000      CL =  0.1842
      Cm = -0.1376     CD =  0.00931   =>   CDf =  0.00626    CDp =  0.00305

 Side 1  free  transition at x/c =  0.9179   72
 Side 2  free  transition at x/c =  0.0166   10

   2   rms: 0.2879E+01   max: -.4164E+02   C at   10  2   RLX: 0.012
       a = -3.000      CL =  0.1854
      Cm = -0.1374     CD =  0.00935   =>   CDf =  0.00638    CDp =  0.00296

 Side 1  free  transition at x/c =  0.9179   72
 Side 2  free  transition at x/c =  0.0465   12

   3   rms: 0.1664E+01   max: -.4054E+02   C at   12  2   RLX: 0.012
       a = -3.000      CL =  0.1858
      Cm = -0.1373     CD =  0.00920   =>   CDf =  0.00622    CDp =  0.00298

 Side 1  free  transition at x/c =  0.9178   72
 Side 2  free  transition at x/c =  0.0534   13

   4   rms: 0.1010E+01   max: -.2447E+02   C at   13  2   RLX: 0.020
       a = -3.000      CL =  0.1861
      Cm = -0.1372     CD =  0.00915   =>   CDf =  0.00619    CDp =  0.00295

 Side 1  free  transition at x/c =  0.9177   72
 Side 2  free  transition at x/c =  0.0614   14

   5   rms: 0.8052E+00   max: -.1722E+02   C at   14  2   RLX: 0.029
       a = -3.000      CL =  0.1862
      Cm = -0.1372     CD =  0.00908   =>   CDf =  0.00616    CDp =  0.00292

 Side 1  free  transition at x/c =  0.9175   72
 Side 2  free  transition at x/c =  0.0710   14

   6   rms: 0.8566E+00   max: -.2068E+02   C at   14  2   RLX: 0.024
       a = -3.000      CL =  0.1866
      Cm = -0.1372     CD =  0.00907   =>   CDf =  0.00613    CDp =  0.00294

 Side 1  free  transition at x/c =  0.9174   72
 Side 2  free  transition at x/c =  0.0792   15

   7   rms: 0.5931E+00   max: -.1386E+02   C at   15  2   RLX: 0.036
       a = -3.000      CL =  0.1867
      Cm = -0.1371     CD =  0.00902   =>   CDf =  0.00609    CDp =  0.00292

 Side 1  free  transition at x/c =  0.9172   72
 Side 2  free  transition at x/c =  0.0870   16

   8   rms: 0.3909E+00   max: -.7732E+01   C at   16  2   RLX: 0.065
       a = -3.000      CL =  0.1872
      Cm = -0.1371     CD =  0.00895   =>   CDf =  0.00607    CDp =  0.00288

 Side 1  free  transition at x/c =  0.9169   72
 Side 2  free  transition at x/c =  0.0978   16

   9   rms: 0.3931E+00   max: -.9194E+01   C at   16  2   RLX: 0.054
       a = -3.000      CL =  0.1879
      Cm = -0.1370     CD =  0.00894   =>   CDf =  0.00603    CDp =  0.00291

 Side 1  free  transition at x/c =  0.9167   72
 Side 2  free  transition at x/c =  0.1061   17

  10   rms: 0.3147E+00   max: -.7171E+01   C at   17  2   RLX: 0.070
       a = -3.000      CL =  0.1883
      Cm = -0.1370     CD =  0.00889   =>   CDf =  0.00599    CDp =  0.00289

 Side 1  free  transition at x/c =  0.9165   72
 Side 2  free  transition at x/c =  0.1144   18

  11   rms: 0.2479E+00   max: -.5124E+01   C at   18  2   RLX: 0.098
       a = -3.000      CL =  0.1891
      Cm = -0.1370     CD =  0.00883   =>   CDf =  0.00597    CDp =  0.00286

 Side 1  free  transition at x/c =  0.9162   72
 Side 2  free  transition at x/c =  0.1279   19

  12   rms: 0.3103E+00   max: -.6517E+01   C at   19  2   RLX: 0.077
       a = -3.000      CL =  0.1897
      Cm = -0.1370     CD =  0.00877   =>   CDf =  0.00592    CDp =  0.00285

 Side 1  free  transition at x/c =  0.9160   72
 Side 2  free  transition at x/c =  0.1392   19

  13   rms: 0.3842E+00   max: -.8596E+01   C at   19  2   RLX: 0.058
       a = -3.000      CL =  0.1902
      Cm = -0.1369     CD =  0.00874   =>   CDf =  0.00587    CDp =  0.00287

 Side 1  free  transition at x/c =  0.9158   72
 Side 2  free  transition at x/c =  0.1487   20

  14   rms: 0.3686E+00   max: -.8227E+01   C at   20  2   RLX: 0.061
       a = -3.000      CL =  0.1906
      Cm = -0.1370     CD =  0.00869   =>   CDf =  0.00584    CDp =  0.00286

 Side 1  free  transition at x/c =  0.9157   72
 Side 2  free  transition at x/c =  0.1601   21

  15   rms: 0.3954E+00   max: -.8736E+01   C at   21  2   RLX: 0.057
       a = -3.000      CL =  0.1908
      Cm = -0.1370     CD =  0.00863   =>   CDf =  0.00579    CDp =  0.00284

 Side 1  free  transition at x/c =  0.9156   72
 Side 2  free  transition at x/c =  0.1715   22

  16   rms: 0.4024E+00   max: -.8795E+01   C at   22  2   RLX: 0.057
       a = -3.000      CL =  0.1911
      Cm = -0.1370     CD =  0.00858   =>   CDf =  0.00575    CDp =  0.00283

 Side 1  free  transition at x/c =  0.9155   72
 Side 2  free  transition at x/c =  0.1823   23

  17   rms: 0.3875E+00   max: -.8219E+01   C at   23  2   RLX: 0.061
       a = -3.000      CL =  0.1915
      Cm = -0.1370     CD =  0.00852   =>   CDf =  0.00571    CDp =  0.00281

 Side 1  free  transition at x/c =  0.9154   72
 Side 2  free  transition at x/c =  0.1938   23

  18   rms: 0.4893E+00   max: -.1037E+02   C at   23  2   RLX: 0.048
       a = -3.000      CL =  0.1918
      Cm = -0.1371     CD =  0.00849   =>   CDf =  0.00567    CDp =  0.00282

 Side 1  free  transition at x/c =  0.9153   72
 Side 2  free  transition at x/c =  0.2043   24

  19   rms: 0.4697E+00   max: -.1001E+02   C at   24  2   RLX: 0.050
       a = -3.000      CL =  0.1920
      Cm = -0.1371     CD =  0.00844   =>   CDf =  0.00563    CDp =  0.00281

 Side 1  free  transition at x/c =  0.9152   72
 Side 2  free  transition at x/c =  0.2157   25

  20   rms: 0.4494E+00   max: -.9552E+01   C at   25  2   RLX: 0.052
       a = -3.000      CL =  0.1921
      Cm = -0.1371     CD =  0.00839   =>   CDf =  0.00559    CDp =  0.00280

 Side 1  free  transition at x/c =  0.9151   72
 Side 2  free  transition at x/c =  0.2281   26

  21   rms: 0.4271E+00   max: -.9003E+01   C at   26  2   RLX: 0.056
       a = -3.000      CL =  0.1923
      Cm = -0.1371     CD =  0.00833   =>   CDf =  0.00555    CDp =  0.00279

 Side 1  free  transition at x/c =  0.9150   72
 Side 2  free  transition at x/c =  0.2409   27

  22   rms: 0.4036E+00   max: -.8449E+01   C at   27  2   RLX: 0.059
       a = -3.000      CL =  0.1925
      Cm = -0.1372     CD =  0.00828   =>   CDf =  0.00550    CDp =  0.00278

 Side 1  free  transition at x/c =  0.9150   72
 Side 2  free  transition at x/c =  0.2540   28

  23   rms: 0.3757E+00   max: -.7827E+01   C at   28  2   RLX: 0.064
       a = -3.000      CL =  0.1926
      Cm = -0.1372     CD =  0.00822   =>   CDf =  0.00545    CDp =  0.00277

 Side 1  free  transition at x/c =  0.9149   72
 Side 2  free  transition at x/c =  0.2673   29

  24   rms: 0.3413E+00   max: -.7063E+01   C at   29  2   RLX: 0.071
       a = -3.000      CL =  0.1928
      Cm = -0.1373     CD =  0.00817   =>   CDf =  0.00540    CDp =  0.00277

 Side 1  free  transition at x/c =  0.9148   72
 Side 2  free  transition at x/c =  0.2792   30

  25   rms: 0.2865E+00   max: -.5866E+01   C at   30  2   RLX: 0.085
       a = -3.000      CL =  0.1931
      Cm = -0.1373     CD =  0.00812   =>   CDf =  0.00536    CDp =  0.00276

 Side 1  free  transition at x/c =  0.9147   72
 Side 2  free  transition at x/c =  0.2905   31

  26   rms: 0.2368E+00   max: -.4771E+01   C at   31  2   RLX: 0.105
       a = -3.000      CL =  0.1936
      Cm = -0.1374     CD =  0.00807   =>   CDf =  0.00532    CDp =  0.00275

 Side 1  free  transition at x/c =  0.9146   72
 Side 2  free  transition at x/c =  0.3021   31

  27   rms: 0.1993E+00   max: -.3997E+01   C at   31  2   RLX: 0.125
       a = -3.000      CL =  0.1940
      Cm = -0.1374     CD =  0.00805   =>   CDf =  0.00528    CDp =  0.00277

 Side 1  free  transition at x/c =  0.9145   72
 Side 2  free  transition at x/c =  0.3160   32

  28   rms: 0.1352E+00   max: -.2697E+01   C at   32  2   RLX: 0.185
       a = -3.000      CL =  0.1943
      Cm = -0.1374     CD =  0.00800   =>   CDf =  0.00523    CDp =  0.00277

 Side 1  free  transition at x/c =  0.9144   72
 Side 2  free  transition at x/c =  0.3345   34

  29   rms: 0.8885E-01   max: -.1760E+01   C at   34  2   RLX: 0.284
       a = -3.000      CL =  0.1944
      Cm = -0.1374     CD =  0.00793   =>   CDf =  0.00517    CDp =  0.00276

 Side 1  free  transition at x/c =  0.9142   72
 Side 2  free  transition at x/c =  0.3456   35

  30   rms: 0.5055E-01   max: -.9652E+00   C at   35  2   RLX: 0.518
       a = -3.000      CL =  0.1953
      Cm = -0.1375     CD =  0.00789   =>   CDf =  0.00514    CDp =  0.00275

 Side 1  free  transition at x/c =  0.9140   72
 Side 2  free  transition at x/c =  0.3572   35

  31   rms: 0.1985E-01   max: -.3879E+00   C at   35  2
       a = -3.000      CL =  0.1957
      Cm = -0.1375     CD =  0.00789   =>   CDf =  0.00510    CDp =  0.00279

 Side 1  free  transition at x/c =  0.9139   72
 Side 2  free  transition at x/c =  0.3782   37

  32   rms: 0.9189E-02   max: 0.1736E+00   C at   37  2
       a = -3.000      CL =  0.1957
      Cm = -0.1375     CD =  0.00787   =>   CDf =  0.00502    CDp =  0.00285

 Side 1  free  transition at x/c =  0.9139   72
 Side 2  free  transition at x/c =  0.3726   37

  33   rms: 0.8494E-03   max: -.1612E-01   C at   37  2
       a = -3.000      CL =  0.1957
      Cm = -0.1375     CD =  0.00787   =>   CDf =  0.00505    CDp =  0.00283

 Side 1  free  transition at x/c =  0.9139   72
 Side 2  free  transition at x/c =  0.3729   37

  34   rms: 0.1105E-04   max: -.2009E-03   C at   37  2
       a = -3.000      CL =  0.1957
      Cm = -0.1375     CD =  0.00787   =>   CDf =  0.00504    CDp =  0.00283
 plradd ia,ip,cpol            3           0  1.25738079E-04

 Point added to stored polar  1
 Point written to save file  mh122_Re500k.base.pol                           
 Dump file unspecified or not available
 Calculating wake trajectory ...
 Calculating source influence matrix ...

 Solving BL system ...

 Side 1  free  transition at x/c =  0.9139   72
 Side 2  free  transition at x/c =  0.3729   37

   1   rms: 0.9065E+00   max: -.1660E+02   C at   37  2   RLX: 0.030
       a = -2.500      CL =  0.1972
      Cm = -0.1375     CD =  0.00781   =>   CDf =  0.00505    CDp =  0.00276

 Side 1  free  transition at x/c =  0.9137   72
 Side 2  free  transition at x/c =  0.3847   37

   2   rms: 0.2941E+00   max: -.3345E+01   C at   37  2   RLX: 0.149
       a = -2.500      CL =  0.2058
      Cm = -0.1377     CD =  0.00780   =>   CDf =  0.00502    CDp =  0.00278

 Side 1  free  transition at x/c =  0.9127   72
 Side 2  free  transition at x/c =  0.4563   43

   3   rms: 0.3478E+00   max: -.5135E+01   C at   43  2   RLX: 0.097
       a = -2.500      CL =  0.2059
      Cm = -0.1368     CD =  0.00761   =>   CDf =  0.00481    CDp =  0.00280

 Side 1  free  transition at x/c =  0.9123   72
 Side 2  free  transition at x/c =  0.4665   44

   4   rms: 0.1979E+00   max: -.1702E+01   C at   44  2   RLX: 0.294
       a = -2.500      CL =  0.2199
      Cm = -0.1374     CD =  0.00753   =>   CDf =  0.00482    CDp =  0.00271

 Side 1  free  transition at x/c =  0.9111   72
 Side 2  free  transition at x/c =  0.4783   44

   5   rms: 0.8120E-01   max: 0.8279E+00   C at   44  2   RLX: 0.673
       a = -2.500      CL =  0.2449
      Cm = -0.1385     CD =  0.00803   =>   CDf =  0.00513    CDp =  0.00290

 MRCHDU: Convergence failed at  45  side 2    Res =  0.2119E+01
 Side 1  free  transition at x/c =  0.9093   73
 Side 2  free  transition at x/c =  0.4985   45

   6   rms: 0.2993E-01   max: -.3757E+00   D at    2  1
       a = -2.500      CL =  0.2541
      Cm = -0.1384     CD =  0.00758   =>   CDf =  0.00475    CDp =  0.00282

 Side 1  free  transition at x/c =  0.9087   73
 Side 2  free  transition at x/c =  0.5102   46

   7   rms: 0.3524E-02   max: 0.3875E-01   C at   46  2
       a = -2.500      CL =  0.2540
      Cm = -0.1384     CD =  0.00756   =>   CDf =  0.00478    CDp =  0.00278

 Side 1  free  transition at x/c =  0.9087   73
 Side 2  free  transition at x/c =  0.5083   46

   8   rms: 0.2032E-03   max: -.2925E-02   D at   48  2
       a = -2.500      CL =  0.2540
      Cm = -0.1384     CD =  0.00756   =>   CDf =  0.00478    CDp =  0.00278

 Side 1  free  transition at x/c =  0.9087   73
 Side 2  free  transition at x/c =  0.5082   46

   9   rms: 0.7128E-06   max: -.5283E-05   D at   48  2
       a = -2.500      CL =  0.2540
      Cm = -0.1384     CD =  0.00756   =>   CDf =  0.00478    CDp =  0.00278
 plradd ia,ip,cpol            4           0  1.17143604E-03

 Point added to stored polar  1
 Point written to save file  mh122_Re500k.base.pol                           
 Dump file unspecified or not available
 Calculating wake trajectory ...
 Calculating source influence matrix ...

 Solving BL system ...

 Side 1  free  transition at x/c =  0.9087   73
 Side 2  free  transition at x/c =  0.5082   46

   1   rms: 0.1232E+00   max: -.9246E+00   C at   46  2   RLX: 0.541
       a = -2.000      CL =  0.2868
      Cm = -0.1391     CD =  0.00743   =>   CDf =  0.00479    CDp =  0.00264

 Side 1  free  transition at x/c =  0.9064   73
 Side 2  free  transition at x/c =  0.5314   47

   2   rms: 0.5051E-01   max: -.3711E+00   T at   47  2
       a = -2.000      CL =  0.3166
      Cm = -0.1400     CD =  0.00755   =>   CDf =  0.00484    CDp =  0.00271

 Side 1  free  transition at x/c =  0.9050   72
 Side 2  free  transition at x/c =  0.5538   49

   3   rms: 0.9565E-02   max: 0.1643E+00   D at   49  2
       a = -2.000      CL =  0.3145
      Cm = -0.1395     CD =  0.00748   =>   CDf =  0.00480    CDp =  0.00269

 Side 1  free  transition at x/c =  0.9045   72
 Side 2  free  transition at x/c =  0.5558   49

   4   rms: 0.7099E-03   max: 0.1043E-01   D at   51  2
       a = -2.000      CL =  0.3146
      Cm = -0.1396     CD =  0.00749   =>   CDf =  0.00477    CDp =  0.00271

 Side 1  free  transition at x/c =  0.9045   72
 Side 2  free  transition at x/c =  0.5562   49

   5   rms: 0.6793E-05   max: -.7160E-04   C at   49  2
       a = -2.000      CL =  0.3146
      Cm = -0.1396     CD =  0.00749   =>   CDf =  0.00477    CDp =  0.00272
 plradd ia,ip,cpol            5           0  1.17143604E-03

 Point added to stored polar  1
 Point written to save file  mh122_Re500k.base.pol                           
 Dump file unspecified or not available
 Calculating wake trajectory ...
 Calculating source influence matrix ...

 Solving BL system ...

 Side 1  free  transition at x/c =  0.9045   72
 Side 2  free  transition at x/c =  0.5562   49

   1   rms: 0.9448E-01   max: 0.4795E+00   D at   50  2
       a = -1.500      CL =  0.3599
      Cm = -0.1376     CD =  0.00762   =>   CDf =  0.00487    CDp =  0.00275

 Side 1  free  transition at x/c =  0.8950   73
 Side 2  free  transition at x/c =  0.5882   50

   2   rms: 0.3415E-01   max: -.4161E+00   T at    2  1
       a = -1.500      CL =  0.3679
      Cm = -0.1392     CD =  0.00750   =>   CDf =  0.00475    CDp =  0.00276

 Side 1  free  transition at x/c =  0.8977   73
 Side 2  free  transition at x/c =  0.5947   51

   3   rms: 0.7201E-02   max: -.8988E-01   C at   51  2
       a = -1.500      CL =  0.3673
      Cm = -0.1391     CD =  0.00750   =>   CDf =  0.00476    CDp =  0.00275

 Side 1  free  transition at x/c =  0.8977   73
 Side 2  free  transition at x/c =  0.5967   51

   4   rms: 0.4138E-03   max: -.5199E-02   D at   51  2
       a = -1.500      CL =  0.3673
      Cm = -0.1391     CD =  0.00751   =>   CDf =  0.00473    CDp =  0.00278

 Side 1  free  transition at x/c =  0.8977   73
 Side 2  free  transition at x/c =  0.5967   51

   5   rms: 0.2061E-05   max: 0.3582E-04   D at   51  2
       a = -1.500      CL =  0.3673
      Cm = -0.1391     CD =  0.00751   =>   CDf =  0.00473    CDp =  0.00278
 plradd ia,ip,cpol            6           0  0.59770155    

 Point added to stored polar  1
 Point written to save file  mh122_Re500k.base.pol                           
 Dump file unspecified or not available
 Calculating wake trajectory ...
 Calculating source influence matrix ...

 Solving BL system ...

 Side 1  free  transition at x/c =  0.8977   73
 Side 2  free  transition at x/c =  0.5967   51

   1   rms: 0.9029E-01   max: -.4026E+00   T at   51  2
       a = -1.000      CL =  0.4252
      Cm = -0.1397     CD =  0.00749   =>   CDf =  0.00473    CDp =  0.00276

 Side 1  free  transition at x/c =  0.8924   73
 Side 2  free  transition at x/c =  0.6122   52

   2   rms: 0.3100E-01   max: -.2270E+00   D at   52  2
       a = -1.000      CL =  0.4280
      Cm = -0.1403     CD =  0.00748   =>   CDf =  0.00485    CDp =  0.00263

 Side 1  free  transition at x/c =  0.8931   73
 Side 2  free  transition at x/c =  0.6277   53

   3   rms: 0.2064E-01   max: 0.3390E+00   C at   53  2
       a = -1.000      CL =  0.4275
      Cm = -0.1402     CD =  0.00745   =>   CDf =  0.00468    CDp =  0.00277

 Side 1  free  transition at x/c =  0.8931   73
 Side 2  free  transition at x/c =  0.6240   53

   4   rms: 0.2995E-02   max: -.4041E-01   D at   56  2
       a = -1.000      CL =  0.4274
      Cm = -0.1401     CD =  0.00745   =>   CDf =  0.00472    CDp =  0.00274

 Side 1  free  transition at x/c =  0.8931   73
 Side 2  free  transition at x/c =  0.6228   53

   5   rms: 0.9729E-04   max: -.1034E-02   D at   53  2
       a = -1.000      CL =  0.4274
      Cm = -0.1401     CD =  0.00745   =>   CDf =  0.00473    CDp =  0.00273
 plradd ia,ip,cpol            7           0  0.58419108    

 Point added to stored polar  1
 Point written to save file  mh122_Re500k.base.pol                           
 Dump file unspecified or not available
 Calculating wake trajectory ...
 Calculating source influence matrix ...

 Solving BL system ...

 Side 1  free  transition at x/c =  0.8931   73
 Side 2  free  transition at x/c =  0.6228   53

   1   rms: 0.8827E-01   max: -.3205E+00   C at   53  2
       a = -0.500      CL =  0.4890
      Cm = -0.1415     CD =  0.00742   =>   CDf =  0.00477    CDp =  0.00265

 Side 1  free  transition at x/c =  0.8889   73
 Side 2  free  transition at x/c =  0.6436   53

   2   rms: 0.1975E-01   max: -.1172E+00   C at   53  2
       a = -0.500      CL =  0.4789
      Cm = -0.1394     CD =  0.00753   =>   CDf =  0.00474    CDp =  0.00279

 Side 1  free  transition at x/c =  0.8855   73
 Side 2  free  transition at x/c =  0.6486   54

   3   rms: 0.4492E-02   max: -.4904E-01   D at   53  2
       a = -0.500      CL =  0.4809
      Cm = -0.1398     CD =  0.00748   =>   CDf =  0.00467    CDp =  0.00281

 Side 1  free  transition at x/c =  0.8861   73
 Side 2  free  transition at x/c =  0.6474   54

   4   rms: 0.4112E-03   max: 0.5610E-02   C at   54  2
       a = -0.500      CL =  0.4809
      Cm = -0.1398     CD =  0.00748   =>   CDf =  0.00467    CDp =  0.00281

 Side 1  free  transition at x/c =  0.8861   73
 Side 2  free  transition at x/c =  0.6472   54

   5   rms: 0.2156E-05   max: -.3156E-04   D at   56  2
       a = -0.500      CL =  0.4809
      Cm = -0.1398     CD =  0.00748   =>   CDf =  0.00467    CDp =  0.00281
 plradd ia,ip,cpol            8           0  0.55712146    

 Point added to stored polar  1
 Point written to save file  mh122_Re500k.base.pol                           
 Dump file unspecified or not available
 Calculating wake trajectory ...
 Calculating source influence matrix ...

 Solving BL system ...

 Side 1  free  transition at x/c =  0.8861   73
 Side 2  free  transition at x/c =  0.6472   54

   1   rms: 0.8606E-01   max: -.4338E+00   C at   54  2
       a =  0.000      CL =  0.5352
      Cm = -0.1396     CD =  0.00743   =>   CDf =  0.00468    CDp =  0.00276

 Side 1  free  transition at x/c =  0.8778   72
 Side 2  free  transition at x/c =  0.6679   55

   2   rms: 0.2842E-01   max: -.1826E+00   C at   55  2
       a =  0.000      CL =  0.5444
      Cm = -0.1415     CD =  0.00741   =>   CDf =  0.00471    CDp =  0.00270

 Side 1  free  transition at x/c =  0.8817   73
 Side 2  free  transition at x/c =  0.6771   56

   3   rms: 0.1330E-01   max: 0.1679E+00   D at   73  1
       a =  0.000      CL =  0.5408
      Cm = -0.1408     CD =  0.00740   =>   CDf =  0.00460    CDp =  0.00279

 Side 1  free  transition at x/c =  0.8800   73
 Side 2  free  transition at x/c =  0.6750   56

   4   rms: 0.1343E-02   max: 0.1025E-01   T at   73  1
       a =  0.000      CL =  0.5399
      Cm = -0.1406     CD =  0.00741   =>   CDf =  0.00462    CDp =  0.00279

 Side 1  free  transition at x/c =  0.8798   73
 Side 2  free  transition at x/c =  0.6747   56

   5   rms: 0.2256E-04   max: -.2098E-03   D at   75  1
       a =  0.000      CL =  0.5399
      Cm = -0.1406     CD =  0.00741   =>   CDf =  0.00462    CDp =  0.00279
 plradd ia,ip,cpol            9           0  0.48931053    

 Point added to stored polar  1
 Point written to save file  mh122_Re500k.base.pol                           
 Dump file unspecified or not available
 Calculating wake trajectory ...
 Calculating source influence matrix ...

 Solving BL system ...

 Side 1  free  transition at x/c =  0.8798   73
 Side 2  free  transition at x/c =  0.6747   56

   1   rms: 0.9325E-01   max: -.5262E+00   C at   56  2   RLX: 0.950
       a =  0.500      CL =  0.5986
      Cm = -0.1418     CD =  0.00732   =>   CDf =  0.00462    CDp =  0.00269

 Side 1  free  transition at x/c =  0.8732   72
 Side 2  free  transition at x/c =  0.6971   57

   2   rms: 0.2188E-01   max: -.1665E+00   C at   57  2
       a =  0.500      CL =  0.5916
      Cm = -0.1398     CD =  0.00743   =>   CDf =  0.00460    CDp =  0.00284

 Side 1  free  transition at x/c =  0.8696   72
 Side 2  free  transition at x/c =  0.7094   58

   3   rms: 0.1240E-01   max: -.1878E+00   C at   58  2
       a =  0.500      CL =  0.5929
      Cm = -0.1400     CD =  0.00735   =>   CDf =  0.00454    CDp =  0.00281

 Side 1  free  transition at x/c =  0.8703   72
 Side 2  free  transition at x/c =  0.7055   58

   4   rms: 0.1383E-02   max: -.1792E-01   C at   58  2
       a =  0.500      CL =  0.5930
      Cm = -0.1400     CD =  0.00736   =>   CDf =  0.00451    CDp =  0.00286

 Side 1  free  transition at x/c =  0.8703   72
 Side 2  free  transition at x/c =  0.7062   58

   5   rms: 0.2207E-04   max: -.3337E-03   C at   58  2
       a =  0.500      CL =  0.5930
      Cm = -0.1400     CD =  0.00736   =>   CDf =  0.00450    CDp =  0.00286
 plradd ia,ip,cpol           10           0  0.38074222    

 Point added to stored polar  1
 Point written to save file  mh122_Re500k.base.pol                           
 Dump file unspecified or not available
 Calculating wake trajectory ...
 Calculating source influence matrix ...

 Solving BL system ...

 Side 1  free  transition at x/c =  0.8703   72
 Side 2  free  transition at x/c =  0.7062   58

   1   rms: 0.9103E-01   max: -.5178E+00   C at   58  2   RLX: 0.966
       a =  1.000      CL =  0.6489
      Cm = -0.1404     CD =  0.00724   =>   CDf =  0.00443    CDp =  0.00280

 Side 1  free  transition at x/c =  0.8596   72
 Side 2  free  transition at x/c =  0.7359   59

   2   rms: 0.2111E-01   max: -.2245E+00   C at   59  2
       a =  1.000      CL =  0.6481
      Cm = -0.1397     CD =  0.00723   =>   CDf =  0.00442    CDp =  0.00282

 Side 1  free  transition at x/c =  0.8595   72
 Side 2  free  transition at x/c =  0.7423   60

   3   rms: 0.6454E-02   max: -.1064E+00   C at   60  2
       a =  1.000      CL =  0.6478
      Cm = -0.1397     CD =  0.00724   =>   CDf =  0.00439    CDp =  0.00285

 Side 1  free  transition at x/c =  0.8594   72
 Side 2  free  transition at x/c =  0.7439   60

   4   rms: 0.2196E-03   max: -.3025E-02   D at   62  2
       a =  1.000      CL =  0.6478
      Cm = -0.1397     CD =  0.00724   =>   CDf =  0.00437    CDp =  0.00287

 Side 1  free  transition at x/c =  0.8594   72
 Side 2  free  transition at x/c =  0.7438   60

   5   rms: 0.1259E-05   max: -.1028E-04   D at   62  2
       a =  1.000      CL =  0.6478
      Cm = -0.1397     CD =  0.00724   =>   CDf =  0.00437    CDp =  0.00287
 plradd ia,ip,cpol           11           0  6.09120503E-02

 Point added to stored polar  1
 Point written to save file  mh122_Re500k.base.pol                           
 Dump file unspecified or not available
 Calculating wake trajectory ...
 Calculating source influence matrix ...

 Solving BL system ...

 Side 1  free  transition at x/c =  0.8594   72
 Side 2  free  transition at x/c =  0.7438   60

   1   rms: 0.9539E-01   max: -.7787E+00   C at   60  2   RLX: 0.642
       a =  1.500      CL =  0.6811
      Cm = -0.1390     CD =  0.00713   =>   CDf =  0.00437    CDp =  0.00275

 Side 1  free  transition at x/c =  0.8496   71
 Side 2  free  transition at x/c =  0.7648   61

   2   rms: 0.3906E-01   max: -.1945E+00   C at   61  2
       a =  1.500      CL =  0.7015
      Cm = -0.1390     CD =  0.00711   =>   CDf =  0.00438    CDp =  0.00273

 Side 1  free  transition at x/c =  0.8441   71
 Side 2  free  transition at x/c =  0.7920   63

   3   rms: 0.1586E-01   max: -.2457E+00   C at   63  2
       a =  1.500      CL =  0.7009
      Cm = -0.1388     CD =  0.00705   =>   CDf =  0.00427    CDp =  0.00278

 Side 1  free  transition at x/c =  0.8451   71
 Side 2  free  transition at x/c =  0.7909   63

   4   rms: 0.1327E-02   max: 0.2257E-01   C at   63  2
       a =  1.500      CL =  0.7009
      Cm = -0.1388     CD =  0.00705   =>   CDf =  0.00422    CDp =  0.00284

 Side 1  free  transition at x/c =  0.8451   71
 Side 2  free  transition at x/c =  0.7903   63

   5   rms: 0.8700E-05   max: -.1115E-03   D at   66  2
       a =  1.500      CL =  0.7009
      Cm = -0.1388     CD =  0.00705   =>   CDf =  0.00422    CDp =  0.00283
 plradd ia,ip,cpol           12           0  3.68482992E-02

 Point added to stored polar  1
 Point written to save file  mh122_Re500k.base.pol                           
 Dump file unspecified or not available
 Calculating wake trajectory ...
 Calculating source influence matrix ...

 Solving BL system ...

 Side 1  free  transition at x/c =  0.8451   71
 Side 2  free  transition at x/c =  0.7903   63

   1   rms: 0.9935E-01   max: -.7996E+00   C at   63  2   RLX: 0.625
       a =  2.000      CL =  0.7337
      Cm = -0.1381     CD =  0.00691   =>   CDf =  0.00407    CDp =  0.00285

 Side 1  free  transition at x/c =  0.8320   71
 Side 2  free  transition at x/c =  0.8192   64

   2   rms: 0.1048E+00   max: 0.1602E+01   D at    2  1   RLX: 0.572
       a =  2.000      CL =  0.7436
      Cm = -0.1374     CD =  0.00700   =>   CDf =  0.00417    CDp =  0.00283

 Side 1  free  transition at x/c =  0.8276   71
 Side 2  free  transition at x/c =  0.8382   66

   3   rms: 0.2963E-01   max: -.3940E+00   C at   66  2
       a =  2.000      CL =  0.7511
      Cm = -0.1369     CD =  0.00675   =>   CDf =  0.00408    CDp =  0.00266

 Side 1  free  transition at x/c =  0.8260   71
 Side 2  free  transition at x/c =  0.8478   67

   4   rms: 0.8527E-02   max: -.1483E+00   C at   67  2
       a =  2.000      CL =  0.7513
      Cm = -0.1370     CD =  0.00677   =>   CDf =  0.00405    CDp =  0.00272

 Side 1  free  transition at x/c =  0.8260   71
 Side 2  free  transition at x/c =  0.8516   67

   5   rms: 0.2145E-03   max: -.2950E-02   D at   69  2
       a =  2.000      CL =  0.7513
      Cm = -0.1370     CD =  0.00678   =>   CDf =  0.00403    CDp =  0.00275

 Side 1  free  transition at x/c =  0.8260   71
 Side 2  free  transition at x/c =  0.8515   67

   6   rms: 0.7011E-06   max: -.5946E-05   D at   71  1
       a =  2.000      CL =  0.7513
      Cm = -0.1370     CD =  0.00678   =>   CDf =  0.00403    CDp =  0.00275
 plradd ia,ip,cpol           13           0  2.57680807E-02

 Point added to stored polar  1
 Point written to save file  mh122_Re500k.base.pol                           
 Dump file unspecified or not available
 Calculating wake trajectory ...
 Calculating source influence matrix ...

 Solving BL system ...

 Side 1  free  transition at x/c =  0.8260   71
 Side 2  free  transition at x/c =  0.8515   67

   1   rms: 0.1299E+00   max: -.1534E+01   C at   67  2   RLX: 0.326
       a =  2.500      CL =  0.7687
      Cm = -0.1366     CD =  0.00668   =>   CDf =  0.00403    CDp =  0.00265

 Side 1  free  transition at x/c =  0.8220   70
 Side 2  free  transition at x/c =  0.8711   68

   2   rms: 0.7473E-01   max: -.1006E+01   C at   68  2   RLX: 0.497
       a =  2.500      CL =  0.7798
      Cm = -0.1352     CD =  0.00664   =>   CDf =  0.00395    CDp =  0.00268

 Side 1  free  transition at x/c =  0.8126   70
 Side 2  free  transition at x/c =  0.9030   71

   3   rms: 0.7198E-01   max: -.1242E+01   C at   71  2   RLX: 0.403
       a =  2.500      CL =  0.7842
      Cm = -0.1341     CD =  0.00661   =>   CDf =  0.00391    CDp =  0.00270

 Side 1  free  transition at x/c =  0.8112   69
 Side 2  free  transition at x/c =  0.9167   72

   4   rms: 0.6634E-01   max: -.1208E+01   C at   72  2   RLX: 0.414
       a =  2.500      CL =  0.7863
      Cm = -0.1335     CD =  0.00656   =>   CDf =  0.00387    CDp =  0.00269

 Side 1  free  transition at x/c =  0.8098   69
 Side 2  free  transition at x/c =  0.9315   73

   5   rms: 0.6710E-01   max: -.1216E+01   C at   73  2   RLX: 0.411
       a =  2.500      CL =  0.7885
      Cm = -0.1333     CD =  0.00653   =>   CDf =  0.00382    CDp =  0.00270

 Side 1  free  transition at x/c =  0.8089   69
 Side 2  free  transition at x/c =  0.9449   74

   6   rms: 0.6327E-01   max: -.1116E+01   C at   74  2   RLX: 0.448
       a =  2.500      CL =  0.7918
      Cm = -0.1337     CD =  0.00650   =>   CDf =  0.00380    CDp =  0.00271

 Side 1  free  transition at x/c =  0.8083   69
 Side 2  free  transition at x/c =  0.9584   75

   7   rms: 0.5724E-01   max: -.9797E+00   C at   75  2   RLX: 0.510
       a =  2.500      CL =  0.7956
      Cm = -0.1342     CD =  0.00649   =>   CDf =  0.00378    CDp =  0.00271

 Side 1  free  transition at x/c =  0.8077   69
 Side 2  free  transition at x/c =  0.9722   76

   8   rms: 0.6433E-01   max: -.1117E+01   C at   76  2   RLX: 0.448
       a =  2.500      CL =  0.7977
      Cm = -0.1346     CD =  0.00648   =>   CDf =  0.00377    CDp =  0.00271

 Side 1  free  transition at x/c =  0.8075   69
 Side 2  free  transition at x/c =  0.9842   77

   9   rms: 0.9904E-01   max: -.1929E+01   C at   77  2   RLX: 0.259
       a =  2.500      CL =  0.7984
      Cm = -0.1347     CD =  0.00647   =>   CDf =  0.00377    CDp =  0.00271

 Side 1  free  transition at x/c =  0.8074   69
 Side 2  free  transition at x/c =  0.9942   78

  10   rms: 0.1506E+00   max: -.4052E+01   C at   78  2   RLX: 0.123
       a =  2.500      CL =  0.7984
      Cm = -0.1347     CD =  0.00647   =>   CDf =  0.00377    CDp =  0.00271

 Side 1  free  transition at x/c =  0.8074   69
 Side 2 forced transition at x/c =  1.0000   78

  11   rms: 0.2098E-02   max: -.1903E-01   D at   77  2
       a =  2.500      CL =  0.7981
      Cm = -0.1345     CD =  0.00647   =>   CDf =  0.00377    CDp =  0.00270

 Side 1  free  transition at x/c =  0.8073   69
 Side 2 forced transition at x/c =  1.0000   78

  12   rms: 0.2488E-04   max: 0.3188E-03   C at   78  2
       a =  2.500      CL =  0.7981
      Cm = -0.1345     CD =  0.00647   =>   CDf =  0.00377    CDp =  0.00270
 plradd ia,ip,cpol           14           0  1.60458013E-02

 Point added to stored polar  1
 Point written to save file  mh122_Re500k.base.pol                           
 Dump file unspecified or not available
 Calculating wake trajectory ...
 Calculating source influence matrix ...

 Solving BL system ...

 Side 1  free  transition at x/c =  0.8073   69
 Side 2 forced transition at x/c =  1.0000   78

   1   rms: 0.8973E-01   max: -.2418E+00   C at   78  2
       a =  3.000      CL =  0.8483
      Cm = -0.1333     CD =  0.00650   =>   CDf =  0.00356    CDp =  0.00295

 Side 1  free  transition at x/c =  0.7782   68
 Side 2 forced transition at x/c =  1.0000   77

   2   rms: 0.2896E-01   max: -.3897E+00   D at   69  1
       a =  3.000      CL =  0.8523
      Cm = -0.1340     CD =  0.00649   =>   CDf =  0.00380    CDp =  0.00269

 Side 1  free  transition at x/c =  0.7846   68
 Side 2 forced transition at x/c =  1.0000   77

   3   rms: 0.3913E-02   max: 0.4114E-01   D at   69  1
       a =  3.000      CL =  0.8507
      Cm = -0.1337     CD =  0.00649   =>   CDf =  0.00374    CDp =  0.00275

 Side 1  free  transition at x/c =  0.7838   68
 Side 2 forced transition at x/c =  1.0000   77

   4   rms: 0.4216E-04   max: 0.4426E-03   D at    7  1
       a =  3.000      CL =  0.8507
      Cm = -0.1337     CD =  0.00649   =>   CDf =  0.00374    CDp =  0.00275
 plradd ia,ip,cpol           15           0  8.66999011E-03

 Point added to stored polar  1
 Point written to save file  mh122_Re500k.base.pol                           
 Dump file unspecified or not available
 Calculating wake trajectory ...
 Calculating source influence matrix ...

 Solving BL system ...

 Side 1  free  transition at x/c =  0.7838   68
 Side 2 forced transition at x/c =  1.0000   77

   1   rms: 0.8768E-01   max: 0.3650E+00   T at   68  1
       a =  3.500      CL =  0.8941
      Cm = -0.1312     CD =  0.00654   =>   CDf =  0.00375    CDp =  0.00280

 Side 1  free  transition at x/c =  0.7371   65
 Side 2 forced transition at x/c =  1.0000   77

   2   rms: 0.2836E-01   max: -.3719E+00   D at   66  1
       a =  3.500      CL =  0.8985
      Cm = -0.1318     CD =  0.00661   =>   CDf =  0.00387    CDp =  0.00274

 Side 1  free  transition at x/c =  0.7494   66
 Side 2 forced transition at x/c =  1.0000   77

   3   rms: 0.9604E-02   max: 0.1466E+00   C at   66  1
       a =  3.500      CL =  0.8995
      Cm = -0.1321     CD =  0.00656   =>   CDf =  0.00369    CDp =  0.00287

 Side 1  free  transition at x/c =  0.7462   66
 Side 2 forced transition at x/c =  1.0000   77

   4   rms: 0.4641E-03   max: -.6681E-02   D at   69  1
       a =  3.500      CL =  0.8996
      Cm = -0.1321     CD =  0.00657   =>   CDf =  0.00374    CDp =  0.00284

 Side 1  free  transition at x/c =  0.7461   66
 Side 2 forced transition at x/c =  1.0000   77

   5   rms: 0.4642E-05   max: -.3832E-04   D at   69  1
       a =  3.500      CL =  0.8996
      Cm = -0.1321     CD =  0.00657   =>   CDf =  0.00374    CDp =  0.00283
 plradd ia,ip,cpol           16           0  4.18629544E-03

 Point added to stored polar  1
 Point written to save file  mh122_Re500k.base.pol                           
 Dump file unspecified or not available
 Calculating wake trajectory ...
 Calculating source influence matrix ...

 Solving BL system ...

 Side 1  free  transition at x/c =  0.7461   66
 Side 2 forced transition at x/c =  1.0000   77

   1   rms: 0.1152E+00   max: 0.8467E+00   C at   66  1   RLX: 0.710
       a =  4.000      CL =  0.9346
      Cm = -0.1308     CD =  0.00670   =>   CDf =  0.00374    CDp =  0.00296

 Side 1  free  transition at x/c =  0.6701   60
 Side 2 forced transition at x/c =  1.0000   77

   2   rms: 0.3422E-01   max: 0.3018E+00   C at   60  1
       a =  4.000      CL =  0.9396
      Cm = -0.1284     CD =  0.00700   =>   CDf =  0.00399    CDp =  0.00301

 Side 1  free  transition at x/c =  0.6249   57
 Side 2 forced transition at x/c =  1.0000   77

   3   rms: 0.1789E-01   max: -.3183E+00   C at   57  1
       a =  4.000      CL =  0.9378
      Cm = -0.1281     CD =  0.00708   =>   CDf =  0.00419    CDp =  0.00289

 Side 1  free  transition at x/c =  0.6347   57
 Side 2 forced transition at x/c =  1.0000   77

   4   rms: 0.7558E-03   max: -.9443E-02   C at   57  1
       a =  4.000      CL =  0.9376
      Cm = -0.1280     CD =  0.00709   =>   CDf =  0.00412    CDp =  0.00297

 Side 1  free  transition at x/c =  0.6353   57
 Side 2 forced transition at x/c =  1.0000   77

   5   rms: 0.3467E-04   max: -.6169E-03   C at   57  1
       a =  4.000      CL =  0.9376
      Cm = -0.1280     CD =  0.00709   =>   CDf =  0.00412    CDp =  0.00297
 plradd ia,ip,cpol           17           0  7.40143223E-05

 Point added to stored polar  1
 Point written to save file  mh122_Re500k.base.pol                           
 Dump file unspecified or not available
 Calculating wake trajectory ...
 Calculating source influence matrix ...

 Solving BL system ...

 Side 1  free  transition at x/c =  0.6353   57
 Side 2 forced transition at x/c =  1.0000   77

   1   rms: 0.2821E+00   max: 0.5017E+01   C at   57  1   RLX: 0.299
       a =  4.500      CL =  0.9446
      Cm = -0.1259     CD =  0.00747   =>   CDf =  0.00412    CDp =  0.00335

 Side 1  free  transition at x/c =  0.5483   51
 Side 2 forced transition at x/c =  1.0000   77

   2   rms: 0.1925E+00   max: 0.3464E+01   C at   51  1   RLX: 0.433
       a =  4.500      CL =  0.9466
      Cm = -0.1229     CD =  0.00834   =>   CDf =  0.00458    CDp =  0.00375

 Side 1  free  transition at x/c =  0.4737   45
 Side 2 forced transition at x/c =  1.0000   77

   3   rms: 0.9429E-01   max: 0.1707E+01   C at   45  1   RLX: 0.879
       a =  4.500      CL =  0.9516
      Cm = -0.1203     CD =  0.00900   =>   CDf =  0.00496    CDp =  0.00404

 Side 1  free  transition at x/c =  0.3886   39
 Side 2 forced transition at x/c =  1.0000   77

   4   rms: 0.1824E-01   max: -.3080E+00   C at   39  1
       a =  4.500      CL =  0.9484
      Cm = -0.1192     CD =  0.00927   =>   CDf =  0.00539    CDp =  0.00388

 Side 1  free  transition at x/c =  0.3974   40
 Side 2 forced transition at x/c =  1.0000   77

   5   rms: 0.2011E-02   max: 0.3799E-01   C at   40  1
       a =  4.500      CL =  0.9486
      Cm = -0.1192     CD =  0.00927   =>   CDf =  0.00533    CDp =  0.00394

 Side 1  free  transition at x/c =  0.3965   40
 Side 2 forced transition at x/c =  1.0000   77

   6   rms: 0.3491E-04   max: -.6736E-03   C at   40  1
       a =  4.500      CL =  0.9486
      Cm = -0.1192     CD =  0.00927   =>   CDf =  0.00533    CDp =  0.00394
 plradd ia,ip,cpol           18           0  7.40143223E-05

 Point added to stored polar  1
 Point written to save file  mh122_Re500k.base.pol                           
 Dump file unspecified or not available
 Calculating wake trajectory ...
 Calculating source influence matrix ...

 Solving BL system ...

 Side 1  free  transition at x/c =  0.3965   40
 Side 2 forced transition at x/c =  1.0000   77

   1   rms: 0.3995E+00   max: 0.7717E+01   C at   40  1   RLX: 0.194
       a =  5.000      CL =  0.9514
      Cm = -0.1178     CD =  0.00976   =>   CDf =  0.00498    CDp =  0.00478

 Side 1  free  transition at x/c =  0.3518   37
 Side 2 forced transition at x/c =  1.0000   76

   2   rms: 0.3573E+00   max: 0.4802E+01   C at   37  1   RLX: 0.227
       a =  5.000      CL =  0.9565
      Cm = -0.1170     CD =  0.01003   =>   CDf =  0.00553    CDp =  0.00450

 Side 1  free  transition at x/c =  0.3105   34
 Side 2 forced transition at x/c =  1.0000   76

   3   rms: 0.1566E+00   max: 0.3042E+01   C at   34  1   RLX: 0.493
       a =  5.000      CL =  0.9661
      Cm = -0.1157     CD =  0.01058   =>   CDf =  0.00573    CDp =  0.00485

 Side 1  free  transition at x/c =  0.2503   30
 Side 2 forced transition at x/c =  1.0000   76

   4   rms: 0.6572E-01   max: 0.1232E+01   C at   30  1
       a =  5.000      CL =  0.9737
      Cm = -0.1140     CD =  0.01127   =>   CDf =  0.00603    CDp =  0.00524

 Side 1  free  transition at x/c =  0.2025   26
 Side 2 forced transition at x/c =  1.0000   76

   5   rms: 0.1419E-01   max: -.2513E+00   C at   26  1
       a =  5.000      CL =  0.9728
      Cm = -0.1139     CD =  0.01131   =>   CDf =  0.00627    CDp =  0.00504

 Side 1  free  transition at x/c =  0.2077   27
 Side 2 forced transition at x/c =  1.0000   76

   6   rms: 0.7154E-03   max: -.1066E-01   D at   26  1
       a =  5.000      CL =  0.9729
      Cm = -0.1139     CD =  0.01130   =>   CDf =  0.00624    CDp =  0.00507

 Side 1  free  transition at x/c =  0.2075   27
 Side 2 forced transition at x/c =  1.0000   76

   7   rms: 0.1700E-04   max: -.3457E-03   C at   27  1
       a =  5.000      CL =  0.9729
      Cm = -0.1139     CD =  0.01130   =>   CDf =  0.00624    CDp =  0.00507
 plradd ia,ip,cpol           19           0  7.40143223E-05

 Point added to stored polar  1
 Point written to save file  mh122_Re500k.base.pol                           
 Dump file unspecified or not available
 Calculating wake trajectory ...
 Calculating source influence matrix ...

 Solving BL system ...

 Side 1  free  transition at x/c =  0.2075   27
 Side 2 forced transition at x/c =  1.0000   76

   1   rms: 0.3168E+00   max: 0.6270E+01   C at   27  1   RLX: 0.239
       a =  5.500      CL =  0.9793
      Cm = -0.1128     CD =  0.01184   =>   CDf =  0.00624    CDp =  0.00560

 Side 1  free  transition at x/c =  0.1713   24
 Side 2 forced transition at x/c =  1.0000   76

   2   rms: 0.1865E+00   max: 0.3686E+01   C at   24  1   RLX: 0.407
       a =  5.500      CL =  0.9898
      Cm = -0.1117     CD =  0.01229   =>   CDf =  0.00643    CDp =  0.00587

 Side 1  free  transition at x/c =  0.1352   21
 Side 2 forced transition at x/c =  1.0000   76

   3   rms: 0.6567E-01   max: 0.1075E+01   C at   21  1
       a =  5.500      CL =  1.0086
      Cm = -0.1107     CD =  0.01279   =>   CDf =  0.00662    CDp =  0.00617

 Side 1  free  transition at x/c =  0.1019   19
 Side 2 forced transition at x/c =  1.0000   76

   4   rms: 0.1006E-01   max: 0.1284E+00   D at   20  1
       a =  5.500      CL =  1.0070
      Cm = -0.1104     CD =  0.01288   =>   CDf =  0.00678    CDp =  0.00609

 Side 1  free  transition at x/c =  0.1022   19
 Side 2 forced transition at x/c =  1.0000   76

   5   rms: 0.1178E-02   max: 0.1935E-01   C at   19  1
       a =  5.500      CL =  1.0069
      Cm = -0.1104     CD =  0.01288   =>   CDf =  0.00678    CDp =  0.00611

 Side 1  free  transition at x/c =  0.1018   19
 Side 2 forced transition at x/c =  1.0000   76

   6   rms: 0.1036E-04   max: -.1127E-03   D at   20  1
       a =  5.500      CL =  1.0069
      Cm = -0.1104     CD =  0.01288   =>   CDf =  0.00678    CDp =  0.00610
 plradd ia,ip,cpol           20           0  7.40143223E-05

 Point added to stored polar  1
 Point written to save file  mh122_Re500k.base.pol                           
 Dump file unspecified or not available
 Calculating wake trajectory ...
 Calculating source influence matrix ...

 Solving BL system ...

 Side 1  free  transition at x/c =  0.1018   19
 Side 2 forced transition at x/c =  1.0000   76

   1   rms: 0.1627E+00   max: 0.2132E+01   C at   19  1   RLX: 0.341
       a =  6.000      CL =  1.0192
      Cm = -0.1093     CD =  0.01343   =>   CDf =  0.00678    CDp =  0.00665

 Side 1  free  transition at x/c =  0.0854   17
 Side 2 forced transition at x/c =  1.0000   76

   2   rms: 0.6488E-01   max: -.4832E+00   D at   17  1
       a =  6.000      CL =  1.0498
      Cm = -0.1082     CD =  0.01384   =>   CDf =  0.00687    CDp =  0.00698

 Side 1  free  transition at x/c =  0.0600   15
 Side 2 forced transition at x/c =  1.0000   76

   3   rms: 0.1996E-01   max: -.2828E+00   C at   15  1
       a =  6.000      CL =  1.0462
      Cm = -0.1077     CD =  0.01409   =>   CDf =  0.00699    CDp =  0.00710

 Side 1  free  transition at x/c =  0.0584   15
 Side 2 forced transition at x/c =  1.0000   76

   4   rms: 0.2921E-02   max: 0.4852E-01   C at   15  1
       a =  6.000      CL =  1.0462
      Cm = -0.1077     CD =  0.01409   =>   CDf =  0.00696    CDp =  0.00713

 Side 1  free  transition at x/c =  0.0575   15
 Side 2 forced transition at x/c =  1.0000   76

   5   rms: 0.9178E-04   max: -.1375E-02   C at   15  1
       a =  6.000      CL =  1.0462
      Cm = -0.1077     CD =  0.01409   =>   CDf =  0.00696    CDp =  0.00713
 plradd ia,ip,cpol           21           0  7.40143223E-05

 Point added to stored polar  1
 Point written to save file  mh122_Re500k.base.pol                           
 Dump file unspecified or not available
 Calculating wake trajectory ...
 Calculating source influence matrix ...

 Solving BL system ...

 Side 1  free  transition at x/c =  0.0575   15
 Side 2 forced transition at x/c =  1.0000   76

   1   rms: 0.1070E+00   max: -.9632E+00   D at   15  1   RLX: 0.519
       a =  6.500      CL =  1.0680
      Cm = -0.1065     CD =  0.01465   =>   CDf =  0.00696    CDp =  0.00769

 Side 1  free  transition at x/c =  0.0448   14
 Side 2 forced transition at x/c =  1.0000   76

   2   rms: 0.6166E-01   max: -.7183E+00   D at   14  1   RLX: 0.696
       a =  6.500      CL =  1.0835
      Cm = -0.1060     CD =  0.01482   =>   CDf =  0.00695    CDp =  0.00787

 Side 1  free  transition at x/c =  0.0360   13
 Side 2 forced transition at x/c =  1.0000   76

   3   rms: 0.3110E-01   max: -.3653E+00   C at   13  1
       a =  6.500      CL =  1.0867
      Cm = -0.1051     CD =  0.01508   =>   CDf =  0.00700    CDp =  0.00807

 Side 1  free  transition at x/c =  0.0331   13
 Side 2 forced transition at x/c =  1.0000   76

   4   rms: 0.3998E-02   max: 0.3924E-01   C at   13  1
       a =  6.500      CL =  1.0848
      Cm = -0.1048     CD =  0.01527   =>   CDf =  0.00703    CDp =  0.00824

 Side 1  free  transition at x/c =  0.0327   13
 Side 2 forced transition at x/c =  1.0000   76

   5   rms: 0.6484E-04   max: -.4375E-03   D at   14  1
       a =  6.500      CL =  1.0847
      Cm = -0.1048     CD =  0.01527   =>   CDf =  0.00703    CDp =  0.00824
 plradd ia,ip,cpol           22           0  7.40143223E-05

 Point added to stored polar  1
 Point written to save file  mh122_Re500k.base.pol                           
 Dump file unspecified or not available
 Calculating wake trajectory ...
 Calculating source influence matrix ...

 Solving BL system ...

 Side 1  free  transition at x/c =  0.0327   13
 Side 2 forced transition at x/c =  1.0000   76

   1   rms: 0.1076E+00   max: -.1232E+01   D at   13  1   RLX: 0.406
       a =  7.000      CL =  1.1017
      Cm = -0.1039     CD =  0.01564   =>   CDf =  0.00703    CDp =  0.00861

 Side 1  free  transition at x/c =  0.0255   12
 Side 2 forced transition at x/c =  1.0000   76

   2   rms: 0.7282E-01   max: -.9736E+00   C at   12  1   RLX: 0.514
       a =  7.000      CL =  1.1169
      Cm = -0.1036     CD =  0.01578   =>   CDf =  0.00704    CDp =  0.00874

 Side 1  free  transition at x/c =  0.0230   12
 Side 2 forced transition at x/c =  1.0000   76

   3   rms: 0.3438E-01   max: 0.3318E+00   T at   12  1
       a =  7.000      CL =  1.1243
      Cm = -0.1021     CD =  0.01633   =>   CDf =  0.00702    CDp =  0.00931

 Side 1  free  transition at x/c =  0.0168   12
 Side 2 forced transition at x/c =  1.0000   76

   4   rms: 0.8232E-01   max: 0.4176E+00   D at   11  1
       a =  7.000      CL =  1.1083
      Cm = -0.0990     CD =  0.01814   =>   CDf =  0.00704    CDp =  0.01111

 Side 1  free  transition at x/c =  0.0129   11
 Side 2 forced transition at x/c =  1.0000   76

   5   rms: 0.9227E-01   max: -.6673E+00   D at   11  1   RLX: 0.749
       a =  7.000      CL =  1.1116
      Cm = -0.1000     CD =  0.01707   =>   CDf =  0.00682    CDp =  0.01025

 Side 1  free  transition at x/c =  0.0157   11
 Side 2 forced transition at x/c =  1.0000   76

   6   rms: 0.3970E-01   max: -.3257E+00   D at   11  1
       a =  7.000      CL =  1.1215
      Cm = -0.1016     CD =  0.01648   =>   CDf =  0.00699    CDp =  0.00949

 Side 1  free  transition at x/c =  0.0152   11
 Side 2 forced transition at x/c =  1.0000   76

   7   rms: 0.7814E-02   max: 0.9975E-01   T at   11  1
       a =  7.000      CL =  1.1210
      Cm = -0.1015     CD =  0.01664   =>   CDf =  0.00707    CDp =  0.00957

 Side 1  free  transition at x/c =  0.0143   11
 Side 2 forced transition at x/c =  1.0000   76

   8   rms: 0.8162E-03   max: -.4631E-02   D at   12  1
       a =  7.000      CL =  1.1209
      Cm = -0.1014     CD =  0.01664   =>   CDf =  0.00706    CDp =  0.00958

 Side 1  free  transition at x/c =  0.0142   11
 Side 2 forced transition at x/c =  1.0000   76

   9   rms: 0.1066E-04   max: -.7203E-04   D at   12  1
       a =  7.000      CL =  1.1209
      Cm = -0.1014     CD =  0.01664   =>   CDf =  0.00706    CDp =  0.00958
 plradd ia,ip,cpol           23           0  7.40143223E-05

 Point added to stored polar  1
 Point written to save file  mh122_Re500k.base.pol                           
 Dump file unspecified or not available
 Calculating wake trajectory ...
 Calculating source influence matrix ...

 Solving BL system ...

 Side 1  free  transition at x/c =  0.0142   11
 Side 2 forced transition at x/c =  1.0000   76

   1   rms: 0.1847E+00   max: 0.1972E+01   T at   11  1   RLX: 0.300
       a =  7.500      CL =  1.1333
      Cm = -0.1006     CD =  0.01699   =>   CDf =  0.00656    CDp =  0.01044

 Side 1  free  transition at x/c =  0.0083   11
 Side 2 forced transition at x/c =  1.0000   75

   2   rms: 0.1308E+00   max: -.9479E+00   C at   11  1   RLX: 0.527
       a =  7.500      CL =  1.1510
      Cm = -0.1003     CD =  0.01739   =>   CDf =  0.00686    CDp =  0.01053

 Side 1  free  transition at x/c =  0.0068   11
 Side 2 forced transition at x/c =  1.0000   75

   3   rms: 0.2595E-01   max: -.2764E+00   D at   12  1
       a =  7.500      CL =  1.1561
      Cm = -0.0980     CD =  0.01818   =>   CDf =  0.00695    CDp =  0.01123

 Side 1  free  transition at x/c =  0.0054   11
 Side 2 forced transition at x/c =  1.0000   75

   4   rms: 0.3743E-02   max: -.2850E-01   D at   12  1
       a =  7.500      CL =  1.1541
      Cm = -0.0976     CD =  0.01837   =>   CDf =  0.00696    CDp =  0.01141

 Side 1  free  transition at x/c =  0.0054   11
 Side 2 forced transition at x/c =  1.0000   75

   5   rms: 0.8236E-04   max: 0.5940E-03   T at   11  1
       a =  7.500      CL =  1.1542
      Cm = -0.0976     CD =  0.01837   =>   CDf =  0.00696    CDp =  0.01141
 plradd ia,ip,cpol           24           0  1.25738079E-04

 Point added to stored polar  1
 Point written to save file  mh122_Re500k.base.pol                           
 Dump file unspecified or not available
 Calculating wake trajectory ...
 Calculating source influence matrix ...

 Solving BL system ...

 Side 1  free  transition at x/c =  0.0054   11
 Side 2 forced transition at x/c =  1.0000   75

   1   rms: 0.9914E-01   max: 0.5148E+00   T at   11  1
       a =  8.000      CL =  1.1879
      Cm = -0.0940     CD =  0.02040   =>   CDf =  0.00697    CDp =  0.01344

 MRCHDU: Convergence failed at  11  side 1    Res =  0.6863E+01
 MRCHDU: Convergence failed at  12  side 1    Res =  0.6017E+01
 MRCHDU: Convergence failed at  13  side 1    Res =  0.3060E+01
 MRCHDU: Convergence failed at  14  side 1    Res =  0.3000E+01
 MRCHDU: Convergence failed at  15  side 1    Res =  0.3784E+01
 MRCHDU: Convergence failed at  16  side 1    Res =  0.6882E+02
 MRCHDU: Convergence failed at  17  side 1    Res =  0.8859E+02
 MRCHDU: Convergence failed at  18  side 1    Res =  0.3746E+02
 MRCHDU: Convergence failed at  19  side 1    Res =  0.3805E+02
 MRCHDU: Convergence failed at  20  side 1    Res =  0.9202E+02
 MRCHDU: Convergence failed at  21  side 1    Res =  0.1116E+03
 MRCHDU: Convergence failed at  22  side 1    Res =  0.1155E+03
 MRCHDU: Convergence failed at  23  side 1    Res =  0.2590E+03
 MRCHDU: Convergence failed at  24  side 1    Res =  0.2805E+02
 MRCHDU: Convergence failed at  25  side 1    Res =  0.2849E+02
 MRCHDU: Convergence failed at  26  side 1    Res =  0.3038E+02
 MRCHDU: Convergence failed at  27  side 1    Res =  0.3426E+02
 MRCHDU: Convergence failed at  28  side 1    Res =  0.3640E+02
 MRCHDU: Convergence failed at  29  side 1    Res =  0.2285E+02
 MRCHDU: Convergence failed at  30  side 1    Res =  0.2365E+02
 MRCHDU: Convergence failed at  31  side 1    Res =  0.2446E+02
 MRCHDU: Convergence failed at  32  side 1    Res =  0.2529E+02
 MRCHDU: Convergence failed at  33  side 1    Res =  0.3940E+02
 MRCHDU: Convergence failed at  34  side 1    Res =  0.3805E+02
 MRCHDU: Convergence failed at  35  side 1    Res =  0.3688E+02
 MRCHDU: Convergence failed at  36  side 1    Res =  0.1899E+02
 MRCHDU: Convergence failed at  37  side 1    Res =  0.1947E+02
 MRCHDU: Convergence failed at  38  side 1    Res =  0.1997E+02
 MRCHDU: Convergence failed at  39  side 1    Res =  0.2535E+02
 MRCHDU: Convergence failed at  40  side 1    Res =  0.2602E+02
 MRCHDU: Convergence failed at  41  side 1    Res =  0.3747E+02
 MRCHDU: Convergence failed at  42  side 1    Res =  0.3646E+02
 MRCHDU: Convergence failed at  43  side 1    Res =  0.1989E+02
 MRCHDU: Convergence failed at  44  side 1    Res =  0.2038E+02
 MRCHDU: Convergence failed at  45  side 1    Res =  0.2185E+02
 MRCHDU: Convergence failed at  46  side 1    Res =  0.2233E+02
 MRCHDU: Convergence failed at  47  side 1    Res =  0.2279E+02
 MRCHDU: Convergence failed at  48  side 1    Res =  0.2328E+02
 MRCHDU: Convergence failed at  49  side 1    Res =  0.2375E+02
 MRCHDU: Convergence failed at  50  side 1    Res =  0.2430E+02
 MRCHDU: Convergence failed at  51  side 1    Res =  0.3905E+02
 MRCHDU: Convergence failed at  52  side 1    Res =  0.3812E+02
 MRCHDU: Convergence failed at  53  side 1    Res =  0.3714E+02
 MRCHDU: Convergence failed at  54  side 1    Res =  0.3626E+02
 MRCHDU: Convergence failed at  55  side 1    Res =  0.2179E+02
 MRCHDU: Convergence failed at  56  side 1    Res =  0.2238E+02
 MRCHDU: Convergence failed at  57  side 1    Res =  0.2299E+02
 MRCHDU: Convergence failed at  58  side 1    Res =  0.2370E+02
 MRCHDU: Convergence failed at  59  side 1    Res =  0.2471E+02
 MRCHDU: Convergence failed at  60  side 1    Res =  0.2559E+02
 MRCHDU: Convergence failed at  61  side 1    Res =  0.3813E+02
 MRCHDU: Convergence failed at  62  side 1    Res =  0.4189E+02
 MRCHDU: Convergence failed at  63  side 1    Res =  0.1329E+03
 MRCHDU: Convergence failed at  64  side 1    Res =  0.1527E+03
 MRCHDU: Convergence failed at  65  side 1    Res =  0.1810E+03
 MRCHDU: Convergence failed at  66  side 1    Res =  0.2249E+03
 MRCHDU: Convergence failed at  67  side 1    Res =  0.2977E+03
 MRCHDU: Convergence failed at  68  side 1    Res =  0.4468E+03
 MRCHDU: Convergence failed at  69  side 1    Res =  0.1015E+03
 MRCHDU: Convergence failed at  70  side 1    Res =  0.1410E+03
 MRCHDU: Convergence failed at  71  side 1    Res =  0.2159E+03
 MRCHDU: Convergence failed at  72  side 1    Res =  0.3998E+03
 MRCHDU: Convergence failed at  73  side 1    Res =  0.5208E+02
 MRCHDU: Convergence failed at  74  side 1    Res =  0.6238E+04
 MRCHDU: Convergence failed at  75  side 1    Res =  0.1394E+04
 MRCHDU: Convergence failed at  76  side 1    Res =  0.4727E+02
 MRCHDU: Convergence failed at  77  side 1    Res =  0.3087E+05
 MRCHDU: Convergence failed at  78  side 1    Res =  0.6268E+03
 MRCHDU: Convergence failed at  79  side 1    Res =  0.3353E+03
 MRCHDU: Convergence failed at  80  side 1    Res =  0.2540E+03
 MRCHDU: Convergence failed at  81  side 1    Res =  0.1942E+03
 MRCHDU: Convergence failed at  82  side 1    Res =  0.1615E+03
 MRCHDU: Convergence failed at  83  side 1    Res =  0.1406E+03
 MRCHDU: Convergence failed at  84  side 1    Res =  0.1303E+03
 MRCHDU: Convergence failed at  85  side 1    Res =  0.1258E+03
 MRCHDU: Convergence failed at  86  side 1    Res =  0.1233E+03
 MRCHDU: Convergence failed at  87  side 1    Res =  0.7187E+02
 Side 1  free  transition at x/c =  0.0041   10
 Side 2 forced transition at x/c =  1.0000   75

   2   rms: 0.2711E+01   max: 0.8923E+01   D at   78  2   RLX: 0.168
       a =  8.000      CL =  4.7066
      Cm = -1.1299     CD =  0.00322   =>   CDf =  0.00029    CDp =  0.00292

 MRCHDU: Convergence failed at  14  side 1    Res =  0.3521E+00
 MRCHDU: Convergence failed at  15  side 1    Res =  0.3901E+00
 MRCHDU: Convergence failed at  17  side 1    Res =  0.3668E+00
 MRCHDU: Convergence failed at  19  side 1    Res =  0.5623E+00
 MRCHDU: Convergence failed at  21  side 1    Res =  0.3682E+00
 MRCHDU: Convergence failed at  22  side 1    Res =  0.3650E+00
 MRCHDU: Convergence failed at  23  side 1    Res =  0.3614E+00
 MRCHDU: Convergence failed at  24  side 1    Res =  0.3572E+00
 MRCHDU: Convergence failed at  25  side 1    Res =  0.3532E+00
 MRCHDU: Convergence failed at  26  side 1    Res =  0.3485E+00
 MRCHDU: Convergence failed at  27  side 1    Res =  0.3438E+00
 MRCHDU: Convergence failed at  28  side 1    Res =  0.3388E+00
 MRCHDU: Convergence failed at  29  side 1    Res =  0.3331E+00
 MRCHDU: Convergence failed at  30  side 1    Res =  0.3274E+00
 MRCHDU: Convergence failed at  31  side 1    Res =  0.3216E+00
 MRCHDU: Convergence failed at  32  side 1    Res =  0.3157E+00
 MRCHDU: Convergence failed at  33  side 1    Res =  0.3090E+00
 MRCHDU: Convergence failed at  34  side 1    Res =  0.3016E+00
 MRCHDU: Convergence failed at  35  side 1    Res =  0.2920E+00
 MRCHDU: Convergence failed at  36  side 1    Res =  0.2802E+00
 MRCHDU: Convergence failed at  37  side 1    Res =  0.2673E+00
 MRCHDU: Convergence failed at  38  side 1    Res =  0.2507E+00
 MRCHDU: Convergence failed at  39  side 1    Res =  0.2317E+00
 MRCHDU: Convergence failed at  40  side 1    Res =  0.2060E+00
 MRCHDU: Convergence failed at  41  side 1    Res =  0.1459E+00
 MRCHDU: Convergence failed at  78  side 2    Res =  0.1244E+02
 MRCHDU: Convergence failed at  79  side 2    Res =  0.8554E+01
 MRCHDU: Convergence failed at  80  side 2    Res =  0.3381E+01
 MRCHDU: Convergence failed at  81  side 2    Res =  0.3403E+01
 Side 1  free  transition at x/c =  0.0049   11
 Side 2 forced transition at x/c =  1.0000   75

   3   rms: 0.9222E+00   max: 0.3877E+01   C at   75  2   RLX: 0.131
       a =  8.000      CL =  2.5841
      Cm = -0.5717     CD =  0.05026   =>   CDf =  0.00172    CDp =  0.04855

 MRCHDU: Convergence failed at  32  side 1    Res =  0.3259E+00
 MRCHDU: Convergence failed at  37  side 1    Res =  0.5461E+00
 MRCHDU: Convergence failed at  38  side 1    Res =  0.4578E+00
 MRCHDU: Convergence failed at  39  side 1    Res =  0.3549E+00
 MRCHDU: Convergence failed at  40  side 1    Res =  0.4540E+01
 MRCHDU: Convergence failed at  41  side 1    Res =  0.2071E+02
 Side 1  free  transition at x/c =  0.0060   11
 Side 2 forced transition at x/c =  1.0000   75
 idif Ue xi dudx           1  0.25658596      1.05429888E-02   24.337118    
 Uenew xinew           2  1.47961744E-03  6.07967377E-05

   4   rms: 0.8240E+00   max: -.3302E+01   T at   11  1   RLX: 0.151
       a =  8.000      CL =  2.2464
      Cm = -0.5016     CD =  0.05243   =>   CDf =  0.00525    CDp =  0.04719

 Side 1  free  transition at x/c =  0.0082   10
 Side 2 forced transition at x/c =  1.0000   76

   5   rms: 0.2797E+01   max: -.4562E+02   T at    2  2   RLX: 0.011
       a =  8.000      CL =  2.2467
      Cm = -0.5041     CD =  0.05970   =>   CDf =  0.00447    CDp =  0.05522

 Side 1  free  transition at x/c =  0.0081   10
 Side 2 forced transition at x/c =  1.0000   76

   6   rms: 0.9664E+00   max: -.5885E+01   T at   11  1   RLX: 0.085
       a =  8.000      CL =  2.1162
      Cm = -0.4570     CD =  0.05813   =>   CDf =  0.00442    CDp =  0.05370

 Side 1  free  transition at x/c =  0.0079   10
 Side 2 forced transition at x/c =  1.0000   76

   7   rms: 0.1569E+01   max: -.1821E+02   T at   11  1   RLX: 0.027
       a =  8.000      CL =  2.1007
      Cm = -0.4475     CD =  0.06304   =>   CDf =  0.00376    CDp =  0.05928

 Side 1  free  transition at x/c =  0.0074   10
 Side 2 forced transition at x/c =  1.0000   76

   8   rms: 0.8168E+00   max: 0.8569E+01   T at   11  1   RLX: 0.083
       a =  8.000      CL =  1.9799
      Cm = -0.4139     CD =  0.06354   =>   CDf =  0.00346    CDp =  0.06008

 Side 1  free  transition at x/c =  0.0086   10
 Side 2 forced transition at x/c =  1.0000   76

   9   rms: 0.1847E+01   max: -.1767E+02   T at   11  1   RLX: 0.028
       a =  8.000      CL =  1.8892
      Cm = -0.3897     CD =  0.06601   =>   CDf =  0.00422    CDp =  0.06180

 Side 1  free  transition at x/c =  0.0081   10
 Side 2 forced transition at x/c =  1.0000   76

  10   rms: 0.7137E+00   max: 0.7398E+01   T at   11  1   RLX: 0.125
       a =  8.000      CL =  1.7313
      Cm = -0.3462     CD =  0.06438   =>   CDf =  0.00386    CDp =  0.06052

 Side 1  free  transition at x/c =  0.0107   11
 Side 2 forced transition at x/c =  1.0000   76

  11   rms: 0.5939E+00   max: -.5552E+01   T at   11  1   RLX: 0.090
       a =  8.000      CL =  1.6015
      Cm = -0.3086     CD =  0.06743   =>   CDf =  0.00437    CDp =  0.06306

 Side 1  free  transition at x/c =  0.0139   11
 Side 2 forced transition at x/c =  1.0000   76

  12   rms: 0.1420E+01   max: -.2073E+02   T at   11  1   RLX: 0.024
       a =  8.000      CL =  1.5818
      Cm = -0.3031     CD =  0.07189   =>   CDf =  0.00411    CDp =  0.06778

 Side 1  free  transition at x/c =  0.0141   11
 Side 2 forced transition at x/c =  1.0000   76

  13   rms: 0.2385E+01   max: -.2985E+02   T at   11  1   RLX: 0.017
       a =  8.000      CL =  1.5619
      Cm = -0.2967     CD =  0.07134   =>   CDf =  0.00414    CDp =  0.06720

 Side 1  free  transition at x/c =  0.0141   11
 Side 2 forced transition at x/c =  1.0000   76

  14   rms: 0.4625E+00   max: -.7738E+00   T at   89  2   RLX: 0.522
       a =  8.000      CL =  1.1367
      Cm = -0.1609     CD =  0.05418   =>   CDf =  0.00434    CDp =  0.04984

 Side 1  free  transition at x/c =  0.0155   11
 Side 2 forced transition at x/c =  1.0000   76

  15   rms: 0.3868E+00   max: -.1484E+01   D at   19  1   RLX: 0.337
       a =  8.000      CL =  1.0298
      Cm = -0.1167     CD =  0.05878   =>   CDf =  0.00396    CDp =  0.05482

 MRCHDU: Convergence failed at  13  side 1    Res =  0.3255E+02
 MRCHDU: Convergence failed at  14  side 1    Res =  0.4670E+01
 MRCHDU: Convergence failed at  15  side 1    Res =  0.3622E+01
 MRCHDU: Convergence failed at  16  side 1    Res =  0.7063E+01
 MRCHDU: Convergence failed at  17  side 1    Res =  0.3616E+02
 MRCHDU: Convergence failed at  18  side 1    Res =  0.2123E+02
 MRCHDU: Convergence failed at  19  side 1    Res =  0.7187E+01
 MRCHDU: Convergence failed at  20  side 1    Res =  0.2546E+02
 MRCHDU: Convergence failed at  21  side 1    Res =  0.4043E+02
 MRCHDU: Convergence failed at  22  side 1    Res =  0.2550E+02
 MRCHDU: Convergence failed at  23  side 1    Res =  0.3807E+01
 MRCHDU: Convergence failed at  24  side 1    Res =  0.1267E+02
 MRCHDU: Convergence failed at  25  side 1    Res =  0.5515E+02
 MRCHDU: Convergence failed at  26  side 1    Res =  0.1319E+02
 MRCHDU: Convergence failed at  27  side 1    Res =  0.7965E+01
[...]

 MRCHDU: Convergence failed at  18  side 1    Res =  0.1609E-01
 Side 1  free  transition at x/c =  0.0095   11
 Side 2 forced transition at x/c =  1.0000   76

  96   rms: 0.1192E+01   max: -.1062E+02   T at   11  1   RLX: 0.047
       a = 14.750      CL =  0.7481
      Cm = -0.1318     CD =  0.34768   =>   CDf =  0.00167    CDp =  0.34601

 MRCHDU: Convergence failed at  18  side 1    Res =  0.2092E-01
 Side 1  free  transition at x/c =  0.0111   11
 Side 2 forced transition at x/c =  1.0000   76

  97   rms: 0.6091E+00   max: 0.7445E+01   C at   76  2   RLX: 0.075
       a = 14.750      CL =  0.7505
      Cm = -0.1321     CD =  0.32950   =>   CDf =  0.00167    CDp =  0.32783

 MRCHDU: Convergence failed at  18  side 1    Res =  0.2061E-01
 Side 1  free  transition at x/c =  0.0107   11
 Side 2 forced transition at x/c =  1.0000   76

  98   rms: 0.8902E+01   max: 0.1506E+03   T at   11  1   RLX: 0.010
       a = 14.750      CL =  0.7438
      Cm = -0.1310     CD =  0.34236   =>   CDf =  0.00167    CDp =  0.34069

 Side 1  free  transition at x/c =  0.0086   10
 Side 2 forced transition at x/c =  1.0000   76

  99   rms: 0.7910E+00   max: 0.1654E+02   C at   76  2   RLX: 0.091
       a = 14.750      CL =  0.7033
      Cm = -0.1247     CD =  0.44621   =>   CDf =  0.00169    CDp =  0.44452

 Side 1  free  transition at x/c =  0.0087   10
 Side 2 forced transition at x/c =  1.0000   76

 100   rms: 0.7112E+00   max: 0.1447E+02   C at   76  2   RLX: 0.104
       a = 14.750      CL =  0.7044
      Cm = -0.1245     CD =  0.42875   =>   CDf =  0.00169    CDp =  0.42706

 Side 1  free  transition at x/c =  0.0085   10
 Side 2 forced transition at x/c =  1.0000   76

 101   rms: 0.7600E+00   max: 0.9149E+01   C at   76  2   RLX: 0.120
       a = 14.750      CL =  0.7461
      Cm = -0.1318     CD =  0.40814   =>   CDf =  0.00169    CDp =  0.40645

 MRCHDU: Convergence failed at  18  side 1    Res =  0.5163E-01
 Side 1  free  transition at x/c =  0.0082   10
 Side 2 forced transition at x/c =  1.0000   76

 102   rms: 0.5413E+00   max: 0.7807E+01   C at   76  2   RLX: 0.117
       a = 14.750      CL =  0.7563
      Cm = -0.1301     CD =  0.44642   =>   CDf =  0.00169    CDp =  0.44473

 MRCHDU: Convergence failed at  18  side 1    Res =  0.3374E-01
 Side 1  free  transition at x/c =  0.0080   10
 Side 2 forced transition at x/c =  1.0000   76

 103   rms: 0.9316E+00   max: 0.9784E+01   C at   76  2   RLX: 0.126
       a = 14.750      CL =  0.7342
      Cm = -0.1274     CD =  0.35306   =>   CDf =  0.00170    CDp =  0.35135

 Side 1  free  transition at x/c =  0.0087   11
 Side 2 forced transition at x/c =  1.0000   76

 104   rms: 0.1068E+01   max: -.9761E+01   T at   16  1   RLX: 0.051
       a = 14.750      CL =  0.7503
      Cm = -0.1367     CD =  0.25233   =>   CDf =  0.00169    CDp =  0.25064

 Side 1  free  transition at x/c =  0.0087   11
 Side 2 forced transition at x/c =  1.0000   76

 105   rms: 0.1010E+01   max: 0.5819E+01   T at   14  1   RLX: 0.115
       a = 14.750      CL =  0.7407
      Cm = -0.1375     CD =  0.25513   =>   CDf =  0.00169    CDp =  0.25345

 Side 1  free  transition at x/c =  0.0087   11
 Side 2 forced transition at x/c =  1.0000   76

 106   rms: 0.6445E+00   max: 0.5329E+01   T at   17  1   RLX: 0.281
       a = 14.750      CL =  0.7338
      Cm = -0.1381     CD =  0.23762   =>   CDf =  0.00167    CDp =  0.23595

 MRCHDU: Convergence failed at  11  side 1    Res =  0.2458E+01
 MRCHDU: Convergence failed at  12  side 1    Res =  0.5000E+02
 MRCHDU: Convergence failed at  15  side 1    Res =  0.3036E-02
 MRCHDU: Convergence failed at  16  side 1    Res =  0.7628E-02
 MRCHDU: Convergence failed at  17  side 1    Res =  0.7794E-03
 Side 1  free  transition at x/c =  0.0087   11
 Side 2 forced transition at x/c =  1.0000   76

 107   rms: 0.1945E+01   max: 0.4968E+02   C at   76  2   RLX: 0.030
       a = 14.750      CL =  1.3390
      Cm = -0.2922     CD =  0.71994   =>   CDf =  0.00164    CDp =  0.71831

 MRCHDU: Convergence failed at  15  side 1    Res =  0.5893E-01
 MRCHDU: Convergence failed at  16  side 1    Res =  0.3567E-02
 MRCHDU: Convergence failed at  17  side 1    Res =  0.7153E-03
 Side 1  free  transition at x/c =  0.0088   11
 Side 2 forced transition at x/c =  1.0000   76

 108   rms: 0.1916E+01   max: 0.4912E+02   C at   76  2   RLX: 0.031
       a = 14.750      CL =  0.9739
      Cm = -0.1994     CD =  0.75681   =>   CDf =  0.00167    CDp =  0.75515

 MRCHDU: Convergence failed at  15  side 1    Res =  0.4064E-01
 MRCHDU: Convergence failed at  16  side 1    Res =  0.3845E-02
 MRCHDU: Convergence failed at  17  side 1    Res =  0.7091E-03
 Side 1  free  transition at x/c =  0.0088   11
 Side 2 forced transition at x/c =  1.0000   76

 109   rms: 0.1895E+01   max: 0.4919E+02   C at   76  2   RLX: 0.030
       a = 14.750      CL =  0.9648
      Cm = -0.1966     CD =  0.77264   =>   CDf =  0.00167    CDp =  0.77097

 MRCHDU: Convergence failed at  15  side 1    Res =  0.2877E-01
 MRCHDU: Convergence failed at  16  side 1    Res =  0.3956E-02
 MRCHDU: Convergence failed at  17  side 1    Res =  0.6692E-03
 Side 1  free  transition at x/c =  0.0088   11
 Side 2 forced transition at x/c =  1.0000   76

 110   rms: 0.1932E+01   max: 0.4829E+02   C at   76  2   RLX: 0.031
       a = 14.750      CL =  0.9553
      Cm = -0.1939     CD =  0.78696   =>   CDf =  0.00168    CDp =  0.78528

 MRCHDU: Convergence failed at  15  side 1    Res =  0.1844E-01
 MRCHDU: Convergence failed at  16  side 1    Res =  0.3942E-02
 MRCHDU: Convergence failed at  17  side 1    Res =  0.6125E-03
 Side 1  free  transition at x/c =  0.0088   11
 Side 2 forced transition at x/c =  1.0000   76

 111   rms: 0.1856E+01   max: 0.4848E+02   C at   76  2   RLX: 0.031
       a = 14.750      CL =  0.9475
      Cm = -0.1916     CD =  0.82866   =>   CDf =  0.00169    CDp =  0.82697

 MRCHDU: Convergence failed at  15  side 1    Res =  0.1560E-01
 MRCHDU: Convergence failed at  16  side 1    Res =  0.4046E-02
 MRCHDU: Convergence failed at  17  side 1    Res =  0.6107E-03
 Side 1  free  transition at x/c =  0.0088   11
 Side 2 forced transition at x/c =  1.0000   76

 112   rms: 0.1998E+01   max: 0.5079E+02   C at   76  2   RLX: 0.030
       a = 14.750      CL =  0.9397
      Cm = -0.1894     CD =  0.83482   =>   CDf =  0.00170    CDp =  0.83313

 MRCHDU: Convergence failed at  15  side 1    Res =  0.9140E-02
 MRCHDU: Convergence failed at  16  side 1    Res =  0.3935E-02
 MRCHDU: Convergence failed at  17  side 1    Res =  0.5463E-03
 Side 1  free  transition at x/c =  0.0088   11
 Side 2 forced transition at x/c =  1.0000   76

 113   rms: 0.2212E+01   max: 0.5814E+02   C at   76  2   RLX: 0.026
       a = 14.750      CL =  0.9338
      Cm = -0.1877     CD =  0.88842   =>   CDf =  0.00170    CDp =  0.88672

 MRCHDU: Convergence failed at  15  side 1    Res =  0.5014E-02
 MRCHDU: Convergence failed at  16  side 1    Res =  0.3872E-02
 MRCHDU: Convergence failed at  17  side 1    Res =  0.5002E-03
 Side 1  free  transition at x/c =  0.0089   11
 Side 2 forced transition at x/c =  1.0000   76

 114   rms: 0.2095E+01   max: 0.5344E+02   C at   76  2   RLX: 0.028
       a = 14.750      CL =  0.9272
      Cm = -0.1858     CD =  0.90620   =>   CDf =  0.00171    CDp =  0.90449

 MRCHDU: Convergence failed at  15  side 1    Res =  0.1761E-02
 MRCHDU: Convergence failed at  16  side 1    Res =  0.3723E-02
 MRCHDU: Convergence failed at  17  side 1    Res =  0.4505E-03
 Side 1  free  transition at x/c =  0.0089   11
 Side 2 forced transition at x/c =  1.0000   76

 115   rms: 0.2250E+01   max: 0.5860E+02   C at   76  2   RLX: 0.026
       a = 14.750      CL =  0.9224
      Cm = -0.1840     CD =  0.96729   =>   CDf =  0.00172    CDp =  0.96557

 MRCHDU: Convergence failed at  15  side 1    Res =  0.8134E-03
 MRCHDU: Convergence failed at  16  side 1    Res =  0.3712E-02
 MRCHDU: Convergence failed at  17  side 1    Res =  0.4217E-03
 Side 1  free  transition at x/c =  0.0089   11
 Side 2 forced transition at x/c =  1.0000   76

 116   rms: 0.2747E+01   max: 0.5988E+02   C at   76  2   RLX: 0.025
       a = 14.750      CL =  0.9145
      Cm = -0.1820     CD =  0.95112   =>   CDf =  0.00173    CDp =  0.94940

 Side 1  free  transition at x/c =  0.0089   11
 Side 2 forced transition at x/c =  1.0000   76

 117   rms: 0.3434E+01   max: 0.5860E+02   C at   76  2   RLX: 0.026
       a = 14.750      CL =  0.9042
      Cm = -0.1798     CD =  0.98419   =>   CDf =  0.00173    CDp =  0.98246

 Side 1  free  transition at x/c =  0.0088   11
 Side 2 forced transition at x/c =  1.0000   76

 118   rms: 0.5273E+01   max: 0.5815E+02   C at   76  2   RLX: 0.022
       a = 14.750      CL =  0.9010
      Cm = -0.1790     CD =  1.03158   =>   CDf =  0.00173    CDp =  1.02985

 Side 1  free  transition at x/c =  0.0088   11
 Side 2 forced transition at x/c =  1.0000   76

 119   rms: 0.2962E+02   max: 0.1069E+03   T at   11  1   RLX: 0.003
       a = 14.750      CL =  0.9289
      Cm = -0.1813     CD =  1.28486   =>   CDf =  0.00172    CDp =  1.28315

 MRCHDU: Convergence failed at  11  side 1    Res =  0.2629E+02
 MRCHDU: Convergence failed at  12  side 1    Res =  0.6473E+01
 MRCHDU: Convergence failed at  13  side 1    Res =  0.4829E+01
 MRCHDU: Convergence failed at  22  side 1    Res =  0.4061E+01
 MRCHDU: Convergence failed at  23  side 1    Res =  0.7521E+01
 MRCHDU: Convergence failed at  24  side 1    Res =  0.9688E+01
 MRCHDU: Convergence failed at  25  side 1    Res =  0.5363E+01
 Side 1  free  transition at x/c =  0.0089   11
 Side 2 forced transition at x/c =  1.0000   76

 120   rms: 0.3402E+01   max: 0.8742E+02   C at   76  2   RLX: 0.017
       a = 14.750      CL =  1.9316
      Cm = -0.4408     CD =  1.36556   =>   CDf =  0.00164    CDp =  1.36391

 Side 1  free  transition at x/c =  0.0089   11
 Side 2 forced transition at x/c =  1.0000   76

 121   rms: 0.1170E+02   max: 0.1016E+03   C at   76  2   RLX: 0.015
       a = 14.750      CL =  1.8793
      Cm = -0.4323     CD =  1.81734   =>   CDf =  0.00247    CDp =  1.81487

 Side 1  free  transition at x/c =  0.0414   14
 Side 2 forced transition at x/c =  1.0000   76

 122   rms: 0.5236E+01   max: 0.1344E+03   C at   76  2   RLX: 0.011
       a = 14.750      CL =  1.7979
      Cm = -0.4079     CD =  2.39775   =>   CDf =  0.00212    CDp =  2.39563

 Side 1  free  transition at x/c =  0.0405   14
 Side 2 forced transition at x/c =  1.0000   76

 123   rms: 0.4552E+01   max: 0.1149E+03   C at   76  2   RLX: 0.013
       a = 14.750      CL =  1.7836
      Cm = -0.4042     CD =  2.78305   =>   CDf =  0.00211    CDp =  2.78094

 Side 1  free  transition at x/c =  0.0394   14
 Side 2 forced transition at x/c =  1.0000   76

 124   rms: 0.1549E+02   max: 0.1647E+03   C at   76  2   RLX: 0.009
       a = 14.750      CL =  1.7778
      Cm = -0.4038     CD =  3.33715   =>   CDf =  0.00210    CDp =  3.33505

 MRCHDU: Convergence failed at  47  side 1    Res =  0.6589E-02
 Side 1  free  transition at x/c =  0.0425   14
 Side 2 forced transition at x/c =  1.0000   76

 125   rms: 0.3266E+02   max: -.2609E+03   C at   52  1   RLX: 0.002
       a = 14.750      CL =  1.8810
      Cm = -0.4326     CD =  3.53112   =>   CDf =  0.00213    CDp =  3.52899

 MRCHDU: Convergence failed at  47  side 1    Res =  0.1890E-01
 Side 1  free  transition at x/c =  0.0420   14
 Side 2 forced transition at x/c =  1.0000   76

 126   rms: 0.1022E+04   max: -.5984E+04   C at   52  1   RLX: 0.000
       a = 14.750      CL =  1.8826
      Cm = -0.4331     CD =  3.21432   =>   CDf =  0.00213    CDp =  3.21219

 Side 1  free  transition at x/c =  0.0417   14
 Side 2 forced transition at x/c =  1.0000   76

 127   rms: 0.3174E+03   max: 0.2143E+04   C at   51  1   RLX: 0.001
       a = 14.750      CL =  1.8812
      Cm = -0.4325     CD =  3.93150   =>   CDf =  0.00213    CDp =  3.92937

 Side 1  free  transition at x/c =  0.0420   14
 Side 2 forced transition at x/c =  1.0000   76

 128   rms: 0.2175E+03   max: -.1743E+04   C at   51  1   RLX: 0.000
       a = 14.750      CL =  1.8808
      Cm = -0.4324     CD =  3.83887   =>   CDf =  0.00213    CDp =  3.83674

 Side 1  free  transition at x/c =  0.0414   14
 Side 2 forced transition at x/c =  1.0000   76

 129   rms: 0.1798E+03   max: 0.1274E+04   C at   52  1   RLX: 0.001
       a = 14.750      CL =  1.8801
      Cm = -0.4322     CD =  4.46288   =>   CDf =  0.00213    CDp =  4.46075

 Side 1  free  transition at x/c =  0.0421   14
 Side 2 forced transition at x/c =  1.0000   76

 130   rms: 0.3763E+02   max: 0.3068E+03   C at   52  1   RLX: 0.005
       a = 14.750      CL =  1.8758
      Cm = -0.4311     CD =  5.70023   =>   CDf =  0.00213    CDp =  5.69810

 Side 1  free  transition at x/c =  0.0443   14
 Side 2 forced transition at x/c =  1.0000   76

 131   rms: 0.2291E+02   max: 0.3770E+03   C at   51  1   RLX: 0.003
       a = 14.750      CL =  1.8891
      Cm = -0.4345     CD =  7.80691   =>   CDf =  0.00212    CDp =  7.80479

 Side 1  free  transition at x/c =  0.0436   14
 Side 2 forced transition at x/c =  1.0000   76

 132   rms: 0.1084E+03   max: -.5690E+03   C at   51  1   RLX: 0.001
       a = 14.750      CL =  1.8929
      Cm = -0.4363     CD =  7.08497   =>   CDf =  0.00212    CDp =  7.08285

 Side 1  free  transition at x/c =  0.0429   14
 Side 2 forced transition at x/c =  1.0000   76

 133   rms: 0.4928E+02   max: -.2259E+03   C at   51  1   RLX: 0.002
       a = 14.750      CL =  1.8913
      Cm = -0.4358     CD = 11.44152   =>   CDf =  0.00212    CDp = 11.43940

 Side 1  free  transition at x/c =  0.0421   14
 Side 2 forced transition at x/c =  1.0000   76

 134   rms: 0.2501E+02   max: 0.1271E+03   C at   76  2   RLX: 0.005
       a = 14.750      CL =  1.8863
      Cm = -0.4344     CD = 24.97978   =>   CDf =  0.00212    CDp = 24.97766

 Side 1  free  transition at x/c =  0.0420   14
 Side 2 forced transition at x/c =  1.0000   76

 135   rms: 0.3549E+02   max: -.1374E+03   C at   52  1   RLX: 0.004
       a = 14.750      CL =  1.8806
      Cm = -0.4328     CD = 58.13512   =>   CDf =  0.00212    CDp = 58.13301

 Side 1  free  transition at x/c =  0.0417   14
 Side 2 forced transition at x/c =  1.0000   76

 136   rms: 0.3708E+02   max: 0.1435E+03   C at   54  1   RLX: 0.010
       a = 14.750      CL =  1.8639
      Cm = -0.4285     CD = 15.05756   =>   CDf =  0.00211    CDp = 15.05545

 Side 1  free  transition at x/c =  0.0421   14
 Side 2 forced transition at x/c =  1.0000   76

 137   rms: 0.1215E+03   max: -.5191E+03   C at   51  1   RLX: 0.001
       a = 14.750      CL =  1.8620
      Cm = -0.4278     CD = 31.88358   =>   CDf =  0.00211    CDp = 31.88148

 Side 1  free  transition at x/c =  0.0415   14
 Side 2 forced transition at x/c =  1.0000   76

 138   rms: 0.8876E+02   max: -.3531E+03   C at   52  1   RLX: 0.001
       a = 14.750      CL =  1.8615
      Cm = -0.4275     CD = 77.23461   =>   CDf =  0.00210    CDp = 77.23251

 Side 1  free  transition at x/c =  0.0407   14
 Side 2 forced transition at x/c =  1.0000   76

 139   rms: 0.2658E+02   max: 0.1377E+03   C at   76  2   RLX: 0.011
       a = 14.750      CL =  1.8461
      Cm = -0.4235     CD = 22.10450   =>   CDf =  0.00210    CDp = 22.10239

 Side 1  free  transition at x/c =  0.0401   14
 Side 2 forced transition at x/c =  1.0000   76

 140   rms: 0.2046E+02   max: 0.1167E+03   C at   76  2   RLX: 0.006
       a = 14.750      CL =  1.8386
      Cm = -0.4216     CD = 52.29971   =>   CDf =  0.00209    CDp = 52.29762

 Side 1  free  transition at x/c =  0.0399   14
 Side 2 forced transition at x/c =  1.0000   76

 141   rms: 0.3253E+02   max: -.1747E+03   C at   77  2   RLX: 0.003
       a = 14.750      CL =  1.8343
      Cm = -0.4204     CD =170.95740   =>   CDf =  0.00209    CDp =170.95531

 Side 1  free  transition at x/c =  0.0400   14
 Side 2 forced transition at x/c =  1.0000   76

 142   rms: 0.4925E+02   max: -.1923E+03   C at   53  1   RLX: 0.003
       a = 14.750      CL =  1.8303
      Cm = -0.4193     CD =596.54932   =>   CDf =  0.00209    CDp =596.54724

 Side 1  free  transition at x/c =  0.0399   14
 Side 2 forced transition at x/c =  1.0000   76

 143   rms: 0.2217E+03   max: -.8529E+03   C at   63  1   RLX: 0.001
       a = 14.750      CL =  1.8295
      Cm = -0.4191     CD =*********   =>   CDf =  0.00208    CDp =*********

 Side 1  free  transition at x/c =  0.0399   14
 Side 2 forced transition at x/c =  1.0000   76

 144   rms: 0.7068E+03   max: 0.2635E+04   C at   54  1   RLX: 0.001
       a = 14.750      CL =  1.8277
      Cm = -0.4187     CD =191.28717   =>   CDf =  0.00208    CDp =191.28510

 Side 1  free  transition at x/c =  0.0398   14
 Side 2 forced transition at x/c =  1.0000   76

 145   rms: 0.2309E+02   max: 0.1251E+03   C at   76  2   RLX: 0.005
       a = 14.750      CL =  1.8202
      Cm = -0.4168     CD =507.57938   =>   CDf =  0.00208    CDp =507.57730

 Side 1  free  transition at x/c =  0.0395   14
 Side 2 forced transition at x/c =  1.0000   76

 146   rms: 0.8690E+01   max: 0.1263E+03   C at   76  2   RLX: 0.012
       a = 14.750      CL =  1.8042
      Cm = -0.4129     CD =*********   =>   CDf =  0.00207    CDp =*********

 Side 1  free  transition at x/c =  0.0395   14
 Side 2 forced transition at x/c =  1.0000   76

 147   rms: 0.3816E+02   max: -.1647E+03   C at   80  1   RLX: 0.003
       a = 14.750      CL =  1.7989
      Cm = -0.4113     CD =*********   =>   CDf =  0.00206    CDp =*********

 Side 1  free  transition at x/c =  0.0395   14
 Side 2 forced transition at x/c =  1.0000   76

 148   rms: 0.2810E+02   max: 0.1430E+03   C at   79  1   RLX: 0.010
       a = 14.750      CL =  1.7857
      Cm = -0.4080     CD =725.22467   =>   CDf =  0.00206    CDp =725.22260

 Side 1  free  transition at x/c =  0.0387   14
 Side 2 forced transition at x/c =  1.0000   76

 149   rms: 0.1342E+03   max: -.5616E+03   C at   68  1   RLX: 0.001
       a = 14.750      CL =  1.7898
      Cm = -0.4091     CD =*********   =>   CDf =  0.00205    CDp =*********

 Side 1  free  transition at x/c =  0.0389   14
 Side 2 forced transition at x/c =  1.0000   76

 150   rms: 0.6488E+02   max: 0.2661E+03   C at   78  2   RLX: 0.004
       a = 14.750      CL =  1.7852
      Cm = -0.4079     CD =360.13632   =>   CDf =  0.00205    CDp =360.13428

 Side 1  free  transition at x/c =  0.0393   14
 Side 2 forced transition at x/c =  1.0000   76

 151   rms: 0.5313E+02   max: 0.2649E+03   C at   53  1   RLX: 0.006
       a = 14.750      CL =  1.7841
      Cm = -0.4078     CD =126.57471   =>   CDf =  0.00205    CDp =126.57265

 Side 1  free  transition at x/c =  0.0292   13
 Side 2 forced transition at x/c =  1.0000   76

 152   rms: 0.1622E+03   max: -.7979E+03   C at   51  1   RLX: 0.001
       a = 14.750      CL =  1.7494
      Cm = -0.3980     CD =254.37173   =>   CDf =  0.00207    CDp =254.36966

 Side 1  free  transition at x/c =  0.0289   13
 Side 2 forced transition at x/c =  1.0000   76

 153   rms: 0.1286E+04   max: -.5969E+04   C at   51  1   RLX: 0.000
       a = 14.750      CL =  1.7482
      Cm = -0.3976     CD =536.54205   =>   CDf =  0.00207    CDp =536.53998

 Side 1  free  transition at x/c =  0.0288   13
 Side 2 forced transition at x/c =  1.0000   76

 154   rms: 0.8446E+03   max: -.3610E+04   C at   51  1   RLX: 0.000
       a = 14.750      CL =  1.7468
      Cm = -0.3973     CD =*********   =>   CDf =  0.00208    CDp =*********

 Side 1  free  transition at x/c =  0.0287   13
 Side 2 forced transition at x/c =  1.0000   76

 155   rms: 0.2823E+04   max: -.1157E+05   C at   52  1   RLX: 0.000
       a = 14.750      CL =  1.7457
      Cm = -0.3970     CD =*********   =>   CDf =  0.00208    CDp =*********
 VISCAL:  Convergence failed

 Sequence halted since previous  4 points did not converge
 Last-converged  alpha =  13.750    CL =   0.98915

.OPERva   c>  
 Polar accumulation disabled

.OPERv   c>  
 XFOIL   c>  
 XFOIL   c>  