
 ===================================================
  XFOIL Version 6.99
  Copyright (C) 2000   Mark Drela, Harold Youngren

  This software comes with ABSOLUTELY NO WARRANTY,
    subject to the GNU General Public License.

  Caveat computor
 ===================================================

 File  xfoil.def  not found

   QUIT    Exit program

  .OPER    Direct operating point(s)
  .MDES    Complex mapping design routine
  .QDES    Surface speed design routine
  .GDES    Geometry design routine

   SAVE f  Write airfoil to labeled coordinate file
   PSAV f  Write airfoil to plain coordinate file
   ISAV f  Write airfoil to ISES coordinate file
   MSAV f  Write airfoil to MSES coordinate file
   REVE    Reverse written-airfoil node ordering

   LOAD f  Read buffer airfoil from coordinate file
   NACA i  Set NACA 4,5-digit airfoil and buffer airfoil
   INTE    Set buffer airfoil by interpolating two airfoils
   NORM    Buffer airfoil normalization toggle
   XYCM rr Change CM reference location, currently  0.25000 0.00000

   BEND    Display structural properties of current airfoil

   PCOP    Set current-airfoil panel nodes directly from buffer airfoil points
   PANE    Set current-airfoil panel nodes ( 160 ) based on curvature
  .PPAR    Show/change paneling

  .PLOP    Plotting options

   WDEF f  Write  current-settings file
   RDEF f  Reread current-settings file
   NAME s  Specify new airfoil name
   NINC    Increment name version number

   Z       Zoom    | (available in all menus)
   U       Unzoom  | 

 XFOIL   c>  
 Labeled airfoil file.  Name:  MH 120  8.0%                                    

 Number of input coordinate points:  61
 Counterclockwise ordering
 Max thickness =     0.080632  at x =   0.335
 Max camber    =     0.027153  at x =   0.649

  LE  x,y  =  -0.00000   0.00062  |   Chord =   1.00000
  TE  x,y  =   1.00000   0.00000  |

 Current airfoil nodes set from buffer airfoil nodes (  61 )

 WARNING: Poor input coordinate distribution
          Excessive panel angle   63.0  at i =  32
          Repaneling with PANE and/or PPAR suggested
           (doing GDES,CADD before repaneling _may_
            improve excessively coarse LE spacing

 XFOIL   c>  
 XFOIL   c>  
 Sharp trailing edge

 Paneling parameters used...
   Number of panel nodes       160
   Panel bunching parameter    1.000
   TE/LE panel density ratio   0.150
   Refined-area/LE panel density ratio    0.200
   Top    side refined area x/c limits  1.000 1.000
   Bottom side refined area x/c limits  1.000 1.000

 XFOIL   c>  
.OPERi   c>  
 Xtr/c     =  1.0000    top    side
 Xtr/c     =  1.0000    bottom side
 Ncrit     =    9.00   ( 0.070 % turb. level )
 Vacc      =  0.0100

 Klag  =  5.6000     Uxwt  =    1.00
 A     =  6.7000     B     =  0.7500       KCt = 0.01485
 CtiniK=  1.8000     CtiniX=  3.3000

..VPAR   c>  
..VPAR   c>  
.OPERi   c>  
 M  =    0.0000
 Re =    400000

.OPERv   c>  
.OPERv   c>  
.OPERv   c>  
 Polar  1 newly created for accumulation
 Airfoil archived with polar: MH 120  8.0%                                    

Enter  polar save filename  OR  <return> for no file   s>  
 New polar save file available

Enter  polar dump filename  OR  <return> for no file   s>  
 Polar dump file will NOT be written

 Polar accumulation enabled

.OPERva   c>   Calculating unit vorticity distributions ...
 Calculating wake trajectory ...
 Calculating source influence matrix ...

 Solving BL system ...

 Initializing BL ...
    side            1  ...
 MRCHUE: Inverse mode at  64     Hk =   4.065
 MRCHUE: Inverse mode at  65     Hk =   4.523
 MRCHUE: Inverse mode at  66     Hk =   4.974
 MRCHUE: Inverse mode at  67     Hk =   5.419
 MRCHUE: Inverse mode at  68     Hk =   5.858
 MRCHUE: Inverse mode at  69     Hk =   6.294
 MRCHUE: Inverse mode at  70     Hk =   6.725
 MRCHUE: Inverse mode at  71     Hk =   7.153
 MRCHUE: Inverse mode at  72     Hk =   7.577
 MRCHUE: Inverse mode at  73     Hk =   7.997
 MRCHUE: Inverse mode at  74     Hk =   8.410
 MRCHUE: Inverse mode at  75     Hk =   8.813
 MRCHUE: Inverse mode at  76     Hk =   9.205
 MRCHUE: Inverse mode at  77     Hk =   9.590
 MRCHUE: Inverse mode at  78     Hk =   7.719
 MRCHUE: Inverse mode at  79     Hk =   7.135
    side            2  ...
 MRCHUE: Inverse mode at   8     Hk =   4.966
 MRCHUE: Convergence failed at   9  side 2    Res =  0.1780E+02
 MRCHUE: Inverse mode at  10     Hk =   7.899
 MRCHUE: Inverse mode at  11     Hk =   2.500

 MRCHDU: Convergence failed at  12  side 2    Res =  0.1876E+01
 MRCHDU: Convergence failed at  13  side 2    Res =  0.2638E+01
 MRCHDU: Convergence failed at  14  side 2    Res =  0.3139E+01
 MRCHDU: Convergence failed at  15  side 2    Res =  0.3304E+01
 MRCHDU: Convergence failed at  16  side 2    Res =  0.3419E+01
 MRCHDU: Convergence failed at  17  side 2    Res =  0.3428E+01
 MRCHDU: Convergence failed at  18  side 2    Res =  0.5426E+01
 MRCHDU: Convergence failed at  19  side 2    Res =  0.6354E+01
 MRCHDU: Convergence failed at  20  side 2    Res =  0.7392E+01
 MRCHDU: Convergence failed at  21  side 2    Res =  0.8557E+01
 MRCHDU: Convergence failed at  22  side 2    Res =  0.1014E+02
 MRCHDU: Convergence failed at  23  side 2    Res =  0.1191E+02
 MRCHDU: Convergence failed at  24  side 2    Res =  0.1443E+02
 MRCHDU: Convergence failed at  25  side 2    Res =  0.2283E+02
 MRCHDU: Convergence failed at  26  side 2    Res =  0.3357E+02
 MRCHDU: Convergence failed at  27  side 2    Res =  0.1382E+03
 MRCHDU: Convergence failed at  28  side 2    Res =  0.5947E+02
 MRCHDU: Convergence failed at  29  side 2    Res =  0.3845E+02
 MRCHDU: Convergence failed at  30  side 2    Res =  0.2883E+02
 MRCHDU: Convergence failed at  31  side 2    Res =  0.1014E+02
 MRCHDU: Convergence failed at  32  side 2    Res =  0.1294E+02
 MRCHDU: Convergence failed at  33  side 2    Res =  0.1757E+02
 MRCHDU: Convergence failed at  34  side 2    Res =  0.1832E+02
 MRCHDU: Convergence failed at  35  side 2    Res =  0.1997E+02
 MRCHDU: Convergence failed at  36  side 2    Res =  0.3320E+02
 MRCHDU: Convergence failed at  37  side 2    Res =  0.2928E+02
 MRCHDU: Convergence failed at  38  side 2    Res =  0.3604E+02
 MRCHDU: Convergence failed at  39  side 2    Res =  0.5345E+03
 MRCHDU: Convergence failed at  40  side 2    Res =  0.8680E+02
 MRCHDU: Convergence failed at  41  side 2    Res =  0.5501E+02
 MRCHDU: Convergence failed at  42  side 2    Res =  0.2306E+02
 MRCHDU: Convergence failed at  43  side 2    Res =  0.1914E+02
 MRCHDU: Convergence failed at  44  side 2    Res =  0.1882E+02
 MRCHDU: Convergence failed at  45  side 2    Res =  0.3779E+02
 MRCHDU: Convergence failed at  46  side 2    Res =  0.4013E+02
 MRCHDU: Convergence failed at  47  side 2    Res =  0.4307E+02
 MRCHDU: Convergence failed at  48  side 2    Res =  0.4609E+02
 MRCHDU: Convergence failed at  49  side 2    Res =  0.4947E+02
 MRCHDU: Convergence failed at  50  side 2    Res =  0.5311E+02
 MRCHDU: Convergence failed at  51  side 2    Res =  0.5728E+02
 MRCHDU: Convergence failed at  52  side 2    Res =  0.6188E+02
 MRCHDU: Convergence failed at  53  side 2    Res =  0.6675E+02
 MRCHDU: Convergence failed at  54  side 2    Res =  0.4076E+02
 MRCHDU: Convergence failed at  55  side 2    Res =  0.4416E+02
 MRCHDU: Convergence failed at  56  side 2    Res =  0.4637E+02
 MRCHDU: Convergence failed at  57  side 2    Res =  0.4963E+02
 MRCHDU: Convergence failed at  58  side 2    Res =  0.5236E+02
 MRCHDU: Convergence failed at  59  side 2    Res =  0.4943E+02
 MRCHDU: Convergence failed at  60  side 2    Res =  0.5105E+02
 MRCHDU: Convergence failed at  61  side 2    Res =  0.5620E+02
 MRCHDU: Convergence failed at  62  side 2    Res =  0.4338E+02
 MRCHDU: Convergence failed at  63  side 2    Res =  0.4736E+02
 MRCHDU: Convergence failed at  64  side 2    Res =  0.5166E+02
 MRCHDU: Convergence failed at  65  side 2    Res =  0.5629E+02
 MRCHDU: Convergence failed at  66  side 2    Res =  0.6095E+02
 MRCHDU: Convergence failed at  67  side 2    Res =  0.6873E+02
 MRCHDU: Convergence failed at  68  side 2    Res =  0.4109E+02
 MRCHDU: Convergence failed at  69  side 2    Res =  0.4376E+02
 MRCHDU: Convergence failed at  70  side 2    Res =  0.4726E+02
 MRCHDU: Convergence failed at  71  side 2    Res =  0.5031E+02
 MRCHDU: Convergence failed at  72  side 2    Res =  0.5392E+02
 MRCHDU: Convergence failed at  73  side 2    Res =  0.5920E+02
 MRCHDU: Convergence failed at  74  side 2    Res =  0.6303E+02
 MRCHDU: Convergence failed at  75  side 2    Res =  0.7035E+02
 MRCHDU: Convergence failed at  76  side 2    Res =  0.5348E+02
 MRCHDU: Convergence failed at  77  side 2    Res =  0.5696E+02
 MRCHDU: Convergence failed at  78  side 2    Res =  0.6048E+02
 MRCHDU: Convergence failed at  79  side 2    Res =  0.6478E+02
 MRCHDU: Convergence failed at  80  side 2    Res =  0.6575E+02
 MRCHDU: Convergence failed at  81  side 2    Res =  0.6677E+02
 MRCHDU: Convergence failed at  82  side 2    Res =  0.9599E+02
 MRCHDU: Convergence failed at  83  side 2    Res =  0.3050E+03
 Side 1  free  transition at x/c =  0.9823   77
 Side 2  free  transition at x/c =  0.0325   11

   1   rms: 0.1479E+01   max: 0.7566E+01   T at   11  2   RLX: 0.087
       a = -4.000      CL = -1.1160
      Cm =  0.2306     CD =  0.00392   =>   CDf =  0.00244    CDp =  0.00148

 MRCHDU: Convergence failed at  14  side 2    Res =  0.8471E-01
 MRCHDU: Convergence failed at  44  side 2    Res =  0.1013E+00
 MRCHDU: Convergence failed at  45  side 2    Res =  0.8584E-01
 MRCHDU: Convergence failed at  62  side 2    Res =  0.3858E-01
 MRCHDU: Convergence failed at  63  side 2    Res =  0.3166E+01
 MRCHDU: Convergence failed at  64  side 2    Res =  0.3133E+01
 MRCHDU: Convergence failed at  65  side 2    Res =  0.3106E+01
 MRCHDU: Convergence failed at  66  side 2    Res =  0.3081E+01
 MRCHDU: Convergence failed at  67  side 2    Res =  0.3064E+01
 MRCHDU: Convergence failed at  68  side 2    Res =  0.3048E+01
 MRCHDU: Convergence failed at  69  side 2    Res =  0.3038E+01
 MRCHDU: Convergence failed at  70  side 2    Res =  0.3031E+01
 MRCHDU: Convergence failed at  71  side 2    Res =  0.3029E+01
 MRCHDU: Convergence failed at  72  side 2    Res =  0.3031E+01
 MRCHDU: Convergence failed at  73  side 2    Res =  0.2773E+01
 MRCHDU: Convergence failed at  74  side 2    Res =  0.2789E+01
 MRCHDU: Convergence failed at  75  side 2    Res =  0.2807E+01
 MRCHDU: Convergence failed at  76  side 2    Res =  0.2827E+01
 Side 1  free  transition at x/c =  0.9865   78
 Side 2  free  transition at x/c =  0.0261   11
 idif Ue xi dudx           1  0.39330047      2.67279148E-03   147.14970    
 Uenew xinew           2  5.03093414E-02  3.41892242E-04

   2   rms: 0.6744E+00   max: -.4692E+01   D at   11  2   RLX: 0.107
       a = -4.000      CL = -0.8101
      Cm =  0.1295     CD =  0.01202   =>   CDf =  0.00899    CDp =  0.00304

 MRCHDU: Convergence failed at  12  side 2    Res =  0.2622E+01
 Side 1  free  transition at x/c =  0.9848   77
 Side 2  free  transition at x/c =  0.0229   11

   3   rms: 0.6340E+00   max: 0.2370E+01   D at   10  2   RLX: 0.372
       a = -4.000      CL = -0.5893
      Cm =  0.0453     CD =  0.01534   =>   CDf =  0.00846    CDp =  0.00687

 Side 1  free  transition at x/c =  0.9789   76
 Side 2  free  transition at x/c =  0.0230   11

   4   rms: 0.6027E+00   max: 0.2420E+01   T at   12  2   RLX: 0.353
       a = -4.000      CL = -0.4707
      Cm =  0.0103     CD =  0.02803   =>   CDf =  0.00548    CDp =  0.02255

 Side 1  free  transition at x/c =  0.9629   75
 Side 2  free  transition at x/c =  0.0234   12

   5   rms: 0.1106E+01   max: -.1993E+01   C at   52  2   RLX: 0.122
       a = -4.000      CL = -0.4691
      Cm =  0.0022     CD =  0.01994   =>   CDf =  0.00648    CDp =  0.01345

 MRCHDU: Convergence failed at  12  side 2    Res =  0.5185E+01
 MRCHDU: Convergence failed at  13  side 2    Res =  0.3192E+03
 MRCHDU: Convergence failed at  14  side 2    Res =  0.9110E+02
 MRCHDU: Convergence failed at  15  side 2    Res =  0.2014E+02
 MRCHDU: Convergence failed at  16  side 2    Res =  0.3070E+02
 MRCHDU: Convergence failed at  17  side 2    Res =  0.1004E+03
 MRCHDU: Convergence failed at  18  side 2    Res =  0.4931E+02
 MRCHDU: Convergence failed at  19  side 2    Res =  0.5779E+03
 MRCHDU: Convergence failed at  20  side 2    Res =  0.1090E+03
 MRCHDU: Convergence failed at  21  side 2    Res =  0.6634E+02
 MRCHDU: Convergence failed at  22  side 2    Res =  0.4617E+02
 MRCHDU: Convergence failed at  23  side 2    Res =  0.1444E+03
 MRCHDU: Convergence failed at  24  side 2    Res =  0.9662E+02
 MRCHDU: Convergence failed at  25  side 2    Res =  0.7787E+02
 MRCHDU: Convergence failed at  26  side 2    Res =  0.6819E+02
 MRCHDU: Convergence failed at  27  side 2    Res =  0.6277E+02
 MRCHDU: Convergence failed at  28  side 2    Res =  0.6066E+02
 MRCHDU: Convergence failed at  29  side 2    Res =  0.6351E+02
 MRCHDU: Convergence failed at  30  side 2    Res =  0.1427E+03
 MRCHDU: Convergence failed at  31  side 2    Res =  0.4329E+02
 MRCHDU: Convergence failed at  33  side 2    Res =  0.6615E+00
 MRCHDU: Convergence failed at  34  side 2    Res =  0.1240E+01
 MRCHDU: Convergence failed at  35  side 2    Res =  0.1261E+01
 MRCHDU: Convergence failed at  36  side 2    Res =  0.1223E+01
 MRCHDU: Convergence failed at  37  side 2    Res =  0.1644E+02
 MRCHDU: Convergence failed at  38  side 2    Res =  0.6402E+01
 MRCHDU: Convergence failed at  39  side 2    Res =  0.1235E+01
 MRCHDU: Convergence failed at  40  side 2    Res =  0.1102E+01
 MRCHDU: Convergence failed at  41  side 2    Res =  0.1102E+01
 MRCHDU: Convergence failed at  42  side 2    Res =  0.1294E+01
 MRCHDU: Convergence failed at  43  side 2    Res =  0.1213E+01
 MRCHDU: Convergence failed at  44  side 2    Res =  0.2218E+01
 MRCHDU: Convergence failed at  45  side 2    Res =  0.7219E+01
 MRCHDU: Convergence failed at  48  side 2    Res =  0.9594E+00
 MRCHDU: Convergence failed at  49  side 2    Res =  0.1683E+01
 MRCHDU: Convergence failed at  50  side 2    Res =  0.1155E+01
 MRCHDU: Convergence failed at  51  side 2    Res =  0.2348E+01
 MRCHDU: Convergence failed at  52  side 2    Res =  0.4005E+01
 MRCHDU: Convergence failed at  53  side 2    Res =  0.1731E+01
 MRCHDU: Convergence failed at  54  side 2    Res =  0.1622E+01
 MRCHDU: Convergence failed at  55  side 2    Res =  0.1655E+01
 MRCHDU: Convergence failed at  56  side 2    Res =  0.1676E+01
 MRCHDU: Convergence failed at  57  side 2    Res =  0.1724E+01
 MRCHDU: Convergence failed at  58  side 2    Res =  0.1792E+01
 MRCHDU: Convergence failed at  59  side 2    Res =  0.1872E+01
 MRCHDU: Convergence failed at  60  side 2    Res =  0.2112E+01
 MRCHDU: Convergence failed at  61  side 2    Res =  0.2192E+01
 MRCHDU: Convergence failed at  62  side 2    Res =  0.2396E+01
 Side 1  free  transition at x/c =  0.9571   74
 Side 2  free  transition at x/c =  0.0231   11

   6   rms: 0.2939E+01   max: 0.2334E+02   D at   32  2   RLX: 0.023
       a = -4.000      CL = -1.4696
      Cm =  0.1451     CD =  0.01162   =>   CDf =  0.01059    CDp =  0.00104

 MRCHDU: Convergence failed at  32  side 2    Res =  0.1989E+01
 MRCHDU: Convergence failed at  33  side 2    Res =  0.1963E+01
 MRCHDU: Convergence failed at  34  side 2    Res =  0.2046E+01
 MRCHDU: Convergence failed at  35  side 2    Res =  0.2088E+01
 MRCHDU: Convergence failed at  36  side 2    Res =  0.2109E+01
 MRCHDU: Convergence failed at  37  side 2    Res =  0.2124E+01
 MRCHDU: Convergence failed at  38  side 2    Res =  0.2135E+01
 MRCHDU: Convergence failed at  39  side 2    Res =  0.2145E+01
 MRCHDU: Convergence failed at  40  side 2    Res =  0.2153E+01
 MRCHDU: Convergence failed at  41  side 2    Res =  0.2161E+01
 MRCHDU: Convergence failed at  42  side 2    Res =  0.2169E+01
 MRCHDU: Convergence failed at  43  side 2    Res =  0.2175E+01
 MRCHDU: Convergence failed at  44  side 2    Res =  0.2180E+01
 MRCHDU: Convergence failed at  45  side 2    Res =  0.2186E+01
 MRCHDU: Convergence failed at  46  side 2    Res =  0.1957E+01
 MRCHDU: Convergence failed at  47  side 2    Res =  0.1439E+01
 MRCHDU: Convergence failed at  48  side 2    Res =  0.1441E+01
 MRCHDU: Convergence failed at  49  side 2    Res =  0.1443E+01
 MRCHDU: Convergence failed at  50  side 2    Res =  0.1445E+01
 MRCHDU: Convergence failed at  51  side 2    Res =  0.1447E+01
 MRCHDU: Convergence failed at  52  side 2    Res =  0.1448E+01
 MRCHDU: Convergence failed at  53  side 2    Res =  0.1450E+01
 MRCHDU: Convergence failed at  54  side 2    Res =  0.1452E+01
 MRCHDU: Convergence failed at  55  side 2    Res =  0.1453E+01
 MRCHDU: Convergence failed at  56  side 2    Res =  0.1455E+01
 MRCHDU: Convergence failed at  57  side 2    Res =  0.1456E+01
 MRCHDU: Convergence failed at  58  side 2    Res =  0.1458E+01
 MRCHDU: Convergence failed at  59  side 2    Res =  0.1459E+01
 MRCHDU: Convergence failed at  60  side 2    Res =  0.1462E+01
 MRCHDU: Convergence failed at  61  side 2    Res =  0.1465E+01
 MRCHDU: Convergence failed at  62  side 2    Res =  0.1470E+01
 MRCHDU: Convergence failed at  63  side 2    Res =  0.1890E+03
 MRCHDU: Convergence failed at  64  side 2    Res =  0.1126E+03
 MRCHDU: Convergence failed at  65  side 2    Res =  0.1673E+03
 MRCHDU: Convergence failed at  66  side 2    Res =  0.2507E+03
 MRCHDU: Convergence failed at  67  side 2    Res =  0.3512E+03
 MRCHDU: Convergence failed at  68  side 2    Res =  0.1101E+03
 MRCHDU: Convergence failed at  69  side 2    Res =  0.9907E+02
 MRCHDU: Convergence failed at  70  side 2    Res =  0.8983E+02
 MRCHDU: Convergence failed at  71  side 2    Res =  0.8156E+02
 MRCHDU: Convergence failed at  72  side 2    Res =  0.6306E+02
 MRCHDU: Convergence failed at  73  side 2    Res =  0.5432E+02
 MRCHDU: Convergence failed at  74  side 2    Res =  0.5033E+02
 MRCHDU: Convergence failed at  75  side 2    Res =  0.4057E+02
 MRCHDU: Convergence failed at  76  side 2    Res =  0.3691E+02
 MRCHDU: Convergence failed at  77  side 2    Res =  0.2934E+02
 MRCHDU: Convergence failed at  78  side 2    Res =  0.2275E+02
 MRCHDU: Convergence failed at  79  side 2    Res =  0.7649E+02
 MRCHDU: Convergence failed at  80  side 2    Res =  0.9951E+02
 MRCHDU: Convergence failed at  81  side 2    Res =  0.1629E+03
 MRCHDU: Convergence failed at  82  side 2    Res =  0.5365E+03
 MRCHDU: Convergence failed at  83  side 2    Res =  0.3758E+03
 MRCHDU: Convergence failed at  84  side 2    Res =  0.2167E+03
 Side 1  free  transition at x/c =  0.9461   74
 Side 2  free  transition at x/c =  0.0249   12

   7   rms: 0.1143E+01   max: 0.1035E+02   T at   12  2   RLX: 0.145
       a = -4.000      CL = -1.1271
      Cm =  0.2090     CD =  0.02985   =>   CDf =  0.00236    CDp =  0.02749

 MRCHDU: Convergence failed at  12  side 2    Res =  0.5577E+01
 Side 1  free  transition at x/c =  0.9507   74
 Side 2  free  transition at x/c =  0.0225   11

   8   rms: 0.3309E+01   max: -.1920E+02   T at   13  2   RLX: 0.026
       a = -4.000      CL = -1.4320
      Cm =  0.2652     CD =  0.06518   =>   CDf =  0.00238    CDp =  0.06280

 Side 1  free  transition at x/c =  0.9581   75
 Side 2  free  transition at x/c =  0.0231   11

   9   rms: 0.8253E+00   max: -.4333E+01   T at   75  1   RLX: 0.115
       a = -4.000      CL = -1.1609
      Cm =  0.2077     CD =  0.07448   =>   CDf =  0.00243    CDp =  0.07205

 Side 1  free  transition at x/c =  0.9725   76
 Side 2  free  transition at x/c =  0.0233   12

  10   rms: 0.6447E+00   max: -.2458E+01   T at   76  1   RLX: 0.203
       a = -4.000      CL = -1.0066
      Cm =  0.1546     CD =  0.06834   =>   CDf =  0.00243    CDp =  0.06591

 Side 1  free  transition at x/c =  0.9895   77
 Side 2  free  transition at x/c =  0.0232   12

  11   rms: 0.6225E+00   max: 0.1997E+01   T at   12  2   RLX: 0.327
       a = -4.000      CL = -0.7488
      Cm =  0.0777     CD =  0.07006   =>   CDf =  0.00246    CDp =  0.06760

 MRCHDU: Convergence failed at  12  side 2    Res =  0.5906E+01
 MRCHDU: Convergence failed at  13  side 2    Res =  0.1101E+02
 MRCHDU: Convergence failed at  14  side 2    Res =  0.6548E+01
 MRCHDU: Convergence failed at  15  side 2    Res =  0.2020E+02
 MRCHDU: Convergence failed at  16  side 2    Res =  0.8937E+01
 MRCHDU: Convergence failed at  17  side 2    Res =  0.2382E+02
 MRCHDU: Convergence failed at  18  side 2    Res =  0.5962E+02
 MRCHDU: Convergence failed at  19  side 2    Res =  0.1622E+02
 MRCHDU: Convergence failed at  20  side 2    Res =  0.1137E+02
 MRCHDU: Convergence failed at  21  side 2    Res =  0.1500E+02
 MRCHDU: Convergence failed at  22  side 2    Res =  0.1960E+02
 MRCHDU: Convergence failed at  23  side 2    Res =  0.2673E+02
 MRCHDU: Convergence failed at  24  side 2    Res =  0.4004E+02
 MRCHDU: Convergence failed at  25  side 2    Res =  0.6892E+02
 MRCHDU: Convergence failed at  26  side 2    Res =  0.2150E+03
 MRCHDU: Convergence failed at  27  side 2    Res =  0.3086E+03
 MRCHDU: Convergence failed at  28  side 2    Res =  0.9629E+02
 MRCHDU: Convergence failed at  29  side 2    Res =  0.6092E+02
 MRCHDU: Convergence failed at  30  side 2    Res =  0.4903E+02
 MRCHDU: Convergence failed at  31  side 2    Res =  0.4452E+02
 MRCHDU: Convergence failed at  32  side 2    Res =  0.3190E+02
 MRCHDU: Convergence failed at  33  side 2    Res =  0.2463E+02
 MRCHDU: Convergence failed at  34  side 2    Res =  0.2510E+02
 MRCHDU: Convergence failed at  35  side 2    Res =  0.2985E+02
 MRCHDU: Convergence failed at  36  side 2    Res =  0.3573E+02
 MRCHDU: Convergence failed at  37  side 2    Res =  0.4640E+02
 MRCHDU: Convergence failed at  38  side 2    Res =  0.6780E+02
 MRCHDU: Convergence failed at  39  side 2    Res =  0.1172E+03
 MRCHDU: Convergence failed at  40  side 2    Res =  0.7990E+03
 MRCHDU: Convergence failed at  41  side 2    Res =  0.1803E+03
 MRCHDU: Convergence failed at  42  side 2    Res =  0.6736E+02
 MRCHDU: Convergence failed at  43  side 2    Res =  0.4690E+02
 MRCHDU: Convergence failed at  44  side 2    Res =  0.3220E+02
 MRCHDU: Convergence failed at  45  side 2    Res =  0.4744E+02
 MRCHDU: Convergence failed at  46  side 2    Res =  0.5252E+02
 MRCHDU: Convergence failed at  47  side 2    Res =  0.6164E+02
 MRCHDU: Convergence failed at  48  side 2    Res =  0.7486E+02
 MRCHDU: Convergence failed at  49  side 2    Res =  0.1219E+03
 MRCHDU: Convergence failed at  50  side 2    Res =  0.3131E+03
 MRCHDU: Convergence failed at  51  side 2    Res =  0.8141E+03
 MRCHDU: Convergence failed at  52  side 2    Res =  0.1424E+03
 MRCHDU: Convergence failed at  53  side 2    Res =  0.6866E+02
 MRCHDU: Convergence failed at  54  side 2    Res =  0.5584E+02
 MRCHDU: Convergence failed at  55  side 2    Res =  0.9177E+02
 MRCHDU: Convergence failed at  56  side 2    Res =  0.8088E+02
 MRCHDU: Convergence failed at  57  side 2    Res =  0.1581E+03
 MRCHDU: Convergence failed at  58  side 2    Res =  0.1730E+03
 MRCHDU: Convergence failed at  59  side 2    Res =  0.1487E+03
 MRCHDU: Convergence failed at  60  side 2    Res =  0.1546E+03
 MRCHDU: Convergence failed at  61  side 2    Res =  0.1639E+04
 MRCHDU: Convergence failed at  62  side 2    Res =  0.6450E+02
 MRCHDU: Convergence failed at  63  side 2    Res =  0.1105E+03
 MRCHDU: Convergence failed at  64  side 2    Res =  0.2729E+03
 MRCHDU: Convergence failed at  65  side 2    Res =  0.1367E+03
 MRCHDU: Convergence failed at  66  side 2    Res =  0.4401E+02
 MRCHDU: Convergence failed at  67  side 2    Res =  0.1514E+03
 MRCHDU: Convergence failed at  68  side 2    Res =  0.4153E+02
 MRCHDU: Convergence failed at  69  side 2    Res =  0.5206E+02
 MRCHDU: Convergence failed at  70  side 2    Res =  0.4435E+02
 MRCHDU: Convergence failed at  71  side 2    Res =  0.1439E+03
 MRCHDU: Convergence failed at  72  side 2    Res =  0.1455E+03
 MRCHDU: Convergence failed at  73  side 2    Res =  0.4607E+02
 MRCHDU: Convergence failed at  74  side 2    Res =  0.1443E+03
 MRCHDU: Convergence failed at  75  side 2    Res =  0.1504E+03
 MRCHDU: Convergence failed at  76  side 2    Res =  0.4737E+03
 MRCHDU: Convergence failed at  77  side 2    Res =  0.1393E+03
 MRCHDU: Convergence failed at  78  side 2    Res =  0.1896E+03
 MRCHDU: Convergence failed at  79  side 2    Res =  0.2476E+03
 MRCHDU: Convergence failed at  80  side 2    Res =  0.4186E+03
 MRCHDU: Convergence failed at  81  side 2    Res =  0.8559E+02
 MRCHDU: Convergence failed at  82  side 2    Res =  0.3714E+03
 MRCHDU: Convergence failed at  83  side 2    Res =  0.1917E+04
 MRCHDU: Convergence failed at  84  side 2    Res =  0.1482E+03
 Side 1  free  transition at x/c =  0.9964   78
 Side 2  free  transition at x/c =  0.0231   11

  12   rms: 0.1528E+01   max: 0.4850E+01   D at   87  2   RLX: 0.198
       a = -4.000      CL = -2.2174
      Cm =  0.5060     CD =  0.00625   =>   CDf =  0.00185    CDp =  0.00440

 MRCHDU: Convergence failed at  87  side 2    Res =  0.9547E+01
 MRCHDU: Convergence failed at  88  side 2    Res =  0.1026E+02
 MRCHDU: Convergence failed at  89  side 2    Res =  0.3908E+01
 MRCHDU: Convergence failed at  90  side 2    Res =  0.5220E+01
 Side 1 forced transition at x/c =  1.0000   78
 Side 2  free  transition at x/c =  0.0256   12

  13   rms: 0.1189E+01   max: 0.5438E+01   T at   12  2   RLX: 0.096
       a = -4.000      CL = -1.2667
      Cm =  0.2276     CD =  0.08144   =>   CDf =  0.00244    CDp =  0.07899

 Side 1 forced transition at x/c =  1.0000   78
 Side 2  free  transition at x/c =  0.0236   12

  14   rms: 0.7265E+00   max: -.1973E+01   T at  106  2   RLX: 0.253
       a = -4.000      CL = -0.9382
      Cm =  0.1431     CD =  0.05827   =>   CDf =  0.00267    CDp =  0.05560

 Side 1 forced transition at x/c =  1.0000   78
 Side 2  free  transition at x/c =  0.0235   12

  15   rms: 0.6219E+00   max: -.1718E+01   T at  106  2   RLX: 0.291
       a = -4.000      CL = -0.7046
      Cm =  0.0758     CD =  0.06614   =>   CDf =  0.00285    CDp =  0.06329

 MRCHDU: Convergence failed at  12  side 2    Res =  0.3054E+01
 MRCHDU: Convergence failed at 100  side 2    Res =  0.1889E+01
 MRCHDU: Convergence failed at 101  side 2    Res =  0.4201E+01
 Side 1 forced transition at x/c =  1.0000   78
 Side 2  free  transition at x/c =  0.0230   11

  16   rms: 0.9171E+01   max: -.3399E+02   T at   13  2   RLX: 0.015
       a = -4.000      CL = -0.8493
      Cm =  0.1245     CD =  0.15959   =>   CDf =  0.00292    CDp =  0.15667

 Side 1 forced transition at x/c =  1.0000   78
 Side 2  free  transition at x/c =  0.0238   12

  17   rms: 0.6343E+00   max: 0.1862E+01   T at   12  2   RLX: 0.292
       a = -4.000      CL = -0.6505
      Cm =  0.0705     CD =  0.07507   =>   CDf =  0.00295    CDp =  0.07212

 MRCHDU: Convergence failed at 100  side 2    Res =  0.2810E+01
 MRCHDU: Convergence failed at 101  side 2    Res =  0.2430E+01
 MRCHDU: Convergence failed at 102  side 2    Res =  0.1497E+01
 MRCHDU: Convergence failed at 103  side 2    Res =  0.1132E+01
 Side 1 forced transition at x/c =  1.0000   78
 Side 2  free  transition at x/c =  0.0231   11

  18   rms: 0.5671E+00   max: -.1622E+01   D at  104  2   RLX: 0.308
       a = -4.000      CL = -0.5047
      Cm =  0.0251     CD =  0.08057   =>   CDf =  0.00302    CDp =  0.07755

 MRCHDU: Convergence failed at  12  side 2    Res =  0.3639E+01
 MRCHDU: Convergence failed at  13  side 2    Res =  0.3844E+02
 MRCHDU: Convergence failed at  14  side 2    Res =  0.2498E+02
 MRCHDU: Convergence failed at  15  side 2    Res =  0.3159E+02
 MRCHDU: Convergence failed at  16  side 2    Res =  0.1658E+02
 MRCHDU: Convergence failed at  17  side 2    Res =  0.3137E+02
 MRCHDU: Convergence failed at  18  side 2    Res =  0.4398E+02
 MRCHDU: Convergence failed at  19  side 2    Res =  0.1146E+02
 MRCHDU: Convergence failed at  20  side 2    Res =  0.1399E+02
 MRCHDU: Convergence failed at  21  side 2    Res =  0.1852E+02
 MRCHDU: Convergence failed at  22  side 2    Res =  0.2543E+02
 MRCHDU: Convergence failed at  23  side 2    Res =  0.3343E+02
 MRCHDU: Convergence failed at  24  side 2    Res =  0.5727E+02
 MRCHDU: Convergence failed at  25  side 2    Res =  0.1230E+03
 MRCHDU: Convergence failed at  26  side 2    Res =  0.9297E+03
 MRCHDU: Convergence failed at  27  side 2    Res =  0.1141E+03
 MRCHDU: Convergence failed at  28  side 2    Res =  0.6188E+02
 MRCHDU: Convergence failed at  29  side 2    Res =  0.4623E+02
 MRCHDU: Convergence failed at  30  side 2    Res =  0.3421E+02
 MRCHDU: Convergence failed at  31  side 2    Res =  0.2814E+02
 MRCHDU: Convergence failed at  32  side 2    Res =  0.2287E+02
 MRCHDU: Convergence failed at  33  side 2    Res =  0.1656E+02
 MRCHDU: Convergence failed at  34  side 2    Res =  0.1878E+02
 MRCHDU: Convergence failed at  35  side 2    Res =  0.2182E+02
 MRCHDU: Convergence failed at  36  side 2    Res =  0.2615E+02
 MRCHDU: Convergence failed at  37  side 2    Res =  0.3234E+02
 MRCHDU: Convergence failed at  38  side 2    Res =  0.4295E+02
 MRCHDU: Convergence failed at  39  side 2    Res =  0.5310E+02
 MRCHDU: Convergence failed at  40  side 2    Res =  0.1206E+03
 MRCHDU: Convergence failed at  41  side 2    Res =  0.3093E+04
 MRCHDU: Convergence failed at  42  side 2    Res =  0.1171E+03
 MRCHDU: Convergence failed at  43  side 2    Res =  0.5617E+02
 MRCHDU: Convergence failed at  44  side 2    Res =  0.3712E+02
 MRCHDU: Convergence failed at  45  side 2    Res =  0.2812E+02
 MRCHDU: Convergence failed at  46  side 2    Res =  0.2224E+02
 MRCHDU: Convergence failed at  47  side 2    Res =  0.1775E+02
 MRCHDU: Convergence failed at  48  side 2    Res =  0.2095E+02
 MRCHDU: Convergence failed at  49  side 2    Res =  0.2466E+02
 MRCHDU: Convergence failed at  50  side 2    Res =  0.3290E+02
 MRCHDU: Convergence failed at  51  side 2    Res =  0.4929E+02
 MRCHDU: Convergence failed at  52  side 2    Res =  0.1104E+03
 MRCHDU: Convergence failed at  53  side 2    Res =  0.9278E+03
 MRCHDU: Convergence failed at  54  side 2    Res =  0.9869E+02
 MRCHDU: Convergence failed at  55  side 2    Res =  0.4247E+02
 MRCHDU: Convergence failed at  56  side 2    Res =  0.2847E+02
 MRCHDU: Convergence failed at  57  side 2    Res =  0.1581E+02
 MRCHDU: Convergence failed at  58  side 2    Res =  0.2221E+02
 MRCHDU: Convergence failed at  59  side 2    Res =  0.2738E+02
 MRCHDU: Convergence failed at  60  side 2    Res =  0.3644E+02
 MRCHDU: Convergence failed at  61  side 2    Res =  0.4325E+02
 MRCHDU: Convergence failed at  62  side 2    Res =  0.8210E+02
 MRCHDU: Convergence failed at  63  side 2    Res =  0.9194E+05
 MRCHDU: Convergence failed at  64  side 2    Res =  0.6250E+02
 MRCHDU: Convergence failed at  65  side 2    Res =  0.3688E+02
 MRCHDU: Convergence failed at  66  side 2    Res =  0.2802E+02
 MRCHDU: Convergence failed at  67  side 2    Res =  0.2041E+02
 MRCHDU: Convergence failed at  68  side 2    Res =  0.2508E+02
 MRCHDU: Convergence failed at  69  side 2    Res =  0.3815E+02
 MRCHDU: Convergence failed at  70  side 2    Res =  0.4883E+02
 MRCHDU: Convergence failed at  71  side 2    Res =  0.1186E+03
 MRCHDU: Convergence failed at  72  side 2    Res =  0.1174E+05
 MRCHDU: Convergence failed at  73  side 2    Res =  0.6888E+02
 MRCHDU: Convergence failed at  74  side 2    Res =  0.3366E+02
 MRCHDU: Convergence failed at  75  side 2    Res =  0.2290E+02
 MRCHDU: Convergence failed at  76  side 2    Res =  0.2390E+02
 MRCHDU: Convergence failed at  77  side 2    Res =  0.2802E+02
 MRCHDU: Convergence failed at  78  side 2    Res =  0.3658E+02
 MRCHDU: Convergence failed at  79  side 2    Res =  0.5012E+02
 MRCHDU: Convergence failed at  80  side 2    Res =  0.8035E+02
 MRCHDU: Convergence failed at  81  side 2    Res =  0.1567E+03
 MRCHDU: Convergence failed at  82  side 2    Res =  0.4248E+03
 MRCHDU: Convergence failed at  83  side 2    Res =  0.3295E+04
 MRCHDU: Convergence failed at  84  side 2    Res =  0.4953E+02
 MRCHDU: Convergence failed at  95  side 2    Res =  0.2937E+01
 Side 1 forced transition at x/c =  1.0000   78
 Side 2  free  transition at x/c =  0.0238   12

  19   rms: 0.1487E+01   max: 0.2586E+01   D at   92  2   RLX: 0.488
       a = -4.000      CL = -0.9892
      Cm =  0.1850     CD =  0.01425   =>   CDf =  0.00245    CDp =  0.01180

 MRCHDU: Convergence failed at  92  side 2    Res =  0.2803E+01
 MRCHDU: Convergence failed at  93  side 2    Res =  0.6179E+02
 MRCHDU: Convergence failed at  94  side 2    Res =  0.2332E+01
 Side 1 forced transition at x/c =  1.0000   78
 Side 2  free  transition at x/c =  0.0245   12

  20   rms: 0.1230E+01   max: 0.8811E+01   T at   12  2   RLX: 0.170
       a = -4.000      CL = -0.4162
      Cm =  0.0013     CD =  0.07360   =>   CDf =  0.00285    CDp =  0.07075

 MRCHDU: Convergence failed at  12  side 2    Res =  0.9383E+01
 MRCHDU: Convergence failed at  13  side 2    Res =  0.1115E+02
 MRCHDU: Convergence failed at  14  side 2    Res =  0.6365E+02
 MRCHDU: Convergence failed at  15  side 2    Res =  0.1006E+02
 MRCHDU: Convergence failed at  16  side 2    Res =  0.1226E+02
 MRCHDU: Convergence failed at  17  side 2    Res =  0.5164E+02
 MRCHDU: Convergence failed at  18  side 2    Res =  0.2716E+02
 MRCHDU: Convergence failed at  19  side 2    Res =  0.1184E+02
 MRCHDU: Convergence failed at  20  side 2    Res =  0.1737E+02
 MRCHDU: Convergence failed at  21  side 2    Res =  0.3570E+02
 MRCHDU: Convergence failed at  22  side 2    Res =  0.2277E+04
 MRCHDU: Convergence failed at  23  side 2    Res =  0.4073E+02
 MRCHDU: Convergence failed at  24  side 2    Res =  0.1921E+02
 MRCHDU: Convergence failed at  25  side 2    Res =  0.3284E+02
 MRCHDU: Convergence failed at  26  side 2    Res =  0.4159E+02
 MRCHDU: Convergence failed at  27  side 2    Res =  0.7663E+02
 MRCHDU: Convergence failed at  28  side 2    Res =  0.2212E+03
 MRCHDU: Convergence failed at  29  side 2    Res =  0.9972E+02
 MRCHDU: Convergence failed at  30  side 2    Res =  0.3447E+02
 MRCHDU: Convergence failed at  31  side 2    Res =  0.3158E+02
 MRCHDU: Convergence failed at  32  side 2    Res =  0.3853E+02
 MRCHDU: Convergence failed at  33  side 2    Res =  0.5799E+02
 MRCHDU: Convergence failed at  34  side 2    Res =  0.5717E+02
 MRCHDU: Convergence failed at  35  side 2    Res =  0.5780E+02
 MRCHDU: Convergence failed at  36  side 2    Res =  0.6266E+02
 MRCHDU: Convergence failed at  37  side 2    Res =  0.7432E+02
 MRCHDU: Convergence failed at  38  side 2    Res =  0.9989E+02
 MRCHDU: Convergence failed at  39  side 2    Res =  0.6261E+02
 MRCHDU: Convergence failed at  40  side 2    Res =  0.6045E+02
 MRCHDU: Convergence failed at  41  side 2    Res =  0.8860E+02
 MRCHDU: Convergence failed at  42  side 2    Res =  0.2682E+03
 MRCHDU: Convergence failed at  43  side 2    Res =  0.3040E+04
 MRCHDU: Convergence failed at  44  side 2    Res =  0.2164E+03
 MRCHDU: Convergence failed at  45  side 2    Res =  0.9644E+02
 MRCHDU: Convergence failed at  46  side 2    Res =  0.6362E+02
 MRCHDU: Convergence failed at  47  side 2    Res =  0.5264E+02
 MRCHDU: Convergence failed at  48  side 2    Res =  0.4565E+02
 MRCHDU: Convergence failed at  49  side 2    Res =  0.4064E+02
 MRCHDU: Convergence failed at  50  side 2    Res =  0.4638E+02
 MRCHDU: Convergence failed at  51  side 2    Res =  0.1108E+04
 MRCHDU: Convergence failed at  52  side 2    Res =  0.8117E+02
 MRCHDU: Convergence failed at  53  side 2    Res =  0.4952E+02
 MRCHDU: Convergence failed at  54  side 2    Res =  0.4115E+02
 MRCHDU: Convergence failed at  55  side 2    Res =  0.2808E+02
 MRCHDU: Convergence failed at  56  side 2    Res =  0.2909E+02
 MRCHDU: Convergence failed at  57  side 2    Res =  0.3020E+02
 MRCHDU: Convergence failed at  58  side 2    Res =  0.4053E+02
 MRCHDU: Convergence failed at  59  side 2    Res =  0.5048E+02
 MRCHDU: Convergence failed at  60  side 2    Res =  0.4115E+02
 MRCHDU: Convergence failed at  61  side 2    Res =  0.2735E+03
 MRCHDU: Convergence failed at  62  side 2    Res =  0.7150E+02
 MRCHDU: Convergence failed at  63  side 2    Res =  0.6951E+02
 MRCHDU: Convergence failed at  64  side 2    Res =  0.6862E+02
 MRCHDU: Convergence failed at  65  side 2    Res =  0.6815E+02
 MRCHDU: Convergence failed at  66  side 2    Res =  0.6801E+02
 MRCHDU: Convergence failed at  67  side 2    Res =  0.6778E+02
 MRCHDU: Convergence failed at  68  side 2    Res =  0.4348E+02
 MRCHDU: Convergence failed at  69  side 2    Res =  0.4092E+02
 MRCHDU: Convergence failed at  70  side 2    Res =  0.4137E+02
 MRCHDU: Convergence failed at  71  side 2    Res =  0.4556E+02
 MRCHDU: Convergence failed at  72  side 2    Res =  0.6918E+02
 MRCHDU: Convergence failed at  73  side 2    Res =  0.6967E+02
 MRCHDU: Convergence failed at  74  side 2    Res =  0.7037E+02
 MRCHDU: Convergence failed at  75  side 2    Res =  0.7124E+02
 MRCHDU: Convergence failed at  76  side 2    Res =  0.7224E+02
 MRCHDU: Convergence failed at  77  side 2    Res =  0.7189E+02
 MRCHDU: Convergence failed at  78  side 2    Res =  0.7364E+02
 MRCHDU: Convergence failed at  79  side 2    Res =  0.7939E+02
 MRCHDU: Convergence failed at  80  side 2    Res =  0.2784E+02
 MRCHDU: Convergence failed at  81  side 2    Res =  0.3995E+02
 MRCHDU: Convergence failed at  82  side 2    Res =  0.3244E+02
 MRCHDU: Convergence failed at  83  side 2    Res =  0.3726E+02
 MRCHDU: Convergence failed at  84  side 2    Res =  0.4622E+02
 Side 1 forced transition at x/c =  1.0000   78
 Side 2  free  transition at x/c =  0.0224   11

  21   rms: 0.1312E+01   max: 0.3304E+01   D at   91  2   RLX: 0.454
       a = -4.000      CL = -1.1350
      Cm =  0.2207     CD =  0.01608   =>   CDf =  0.00238    CDp =  0.01370

 MRCHDU: Convergence failed at  91  side 2    Res =  0.2733E+02
 MRCHDU: Convergence failed at  92  side 2    Res =  0.3224E+01
 MRCHDU: Convergence failed at  93  side 2    Res =  0.2845E+01
 Side 1 forced transition at x/c =  1.0000   78
 Side 2  free  transition at x/c =  0.0238   12

  22   rms: 0.5032E+00   max: -.1515E+01   T at  106  2   RLX: 0.330
       a = -4.000      CL = -0.4200
      Cm =  0.0166     CD =  0.05372   =>   CDf =  0.00271    CDp =  0.05101

 Side 1 forced transition at x/c =  1.0000   78
 Side 2  free  transition at x/c =  0.0234   12

  23   rms: 0.4138E+02   max: -.3876E+03   T at   12  2   RLX: 0.001
       a = -4.000      CL = -0.3877
      Cm =  0.0080     CD =  0.11944   =>   CDf =  0.00271    CDp =  0.11673

 Side 1 forced transition at x/c =  1.0000   78
 Side 2  free  transition at x/c =  0.0243   12

  24   rms: 0.8419E+00   max: 0.4868E+01   T at   12  2   RLX: 0.263
       a = -4.000      CL = -0.4506
      Cm =  0.0050     CD =  0.06215   =>   CDf =  0.00271    CDp =  0.05944

 MRCHDU: Convergence failed at  12  side 2    Res =  0.2117E+02
 MRCHDU: Convergence failed at  13  side 2    Res =  0.4229E+01
 MRCHDU: Convergence failed at  14  side 2    Res =  0.1184E+02
 MRCHDU: Convergence failed at  15  side 2    Res =  0.1031E+02
 MRCHDU: Convergence failed at  16  side 2    Res =  0.1044E+02
 MRCHDU: Convergence failed at  17  side 2    Res =  0.2184E+02
 MRCHDU: Convergence failed at  18  side 2    Res =  0.6559E+04
 MRCHDU: Convergence failed at  19  side 2    Res =  0.2717E+02
 MRCHDU: Convergence failed at  20  side 2    Res =  0.1413E+02
 MRCHDU: Convergence failed at  21  side 2    Res =  0.1725E+02
 MRCHDU: Convergence failed at  22  side 2    Res =  0.2584E+02
 MRCHDU: Convergence failed at  23  side 2    Res =  0.4865E+02
 MRCHDU: Convergence failed at  24  side 2    Res =  0.4531E+04
 MRCHDU: Convergence failed at  25  side 2    Res =  0.5142E+02
 MRCHDU: Convergence failed at  26  side 2    Res =  0.2570E+02
 MRCHDU: Convergence failed at  27  side 2    Res =  0.3308E+02
 MRCHDU: Convergence failed at  28  side 2    Res =  0.4004E+02
 MRCHDU: Convergence failed at  29  side 2    Res =  0.5455E+02
 MRCHDU: Convergence failed at  30  side 2    Res =  0.1149E+03
 MRCHDU: Convergence failed at  31  side 2    Res =  0.3117E+03
 MRCHDU: Convergence failed at  32  side 2    Res =  0.4687E+02
 MRCHDU: Convergence failed at  33  side 2    Res =  0.1859E+02
 MRCHDU: Convergence failed at  34  side 2    Res =  0.1138E+03
 MRCHDU: Convergence failed at  35  side 2    Res =  0.1064E+03
 MRCHDU: Convergence failed at  36  side 2    Res =  0.1357E+03
 MRCHDU: Convergence failed at  37  side 2    Res =  0.1024E+03
 MRCHDU: Convergence failed at  38  side 2    Res =  0.1690E+03
 MRCHDU: Convergence failed at  39  side 2    Res =  0.1546E+04
 MRCHDU: Convergence failed at  40  side 2    Res =  0.1929E+03
 MRCHDU: Convergence failed at  41  side 2    Res =  0.2146E+03
 MRCHDU: Convergence failed at  42  side 2    Res =  0.3549E+03
 MRCHDU: Convergence failed at  43  side 2    Res =  0.1465E+03
 MRCHDU: Convergence failed at  44  side 2    Res =  0.4863E+02
 MRCHDU: Convergence failed at  45  side 2    Res =  0.1454E+03
 MRCHDU: Convergence failed at  46  side 2    Res =  0.1054E+04
 MRCHDU: Convergence failed at  47  side 2    Res =  0.3499E+02
 MRCHDU: Convergence failed at  48  side 2    Res =  0.3561E+02
 MRCHDU: Convergence failed at  49  side 2    Res =  0.3479E+02
 MRCHDU: Convergence failed at  50  side 2    Res =  0.3371E+02
 MRCHDU: Convergence failed at  51  side 2    Res =  0.1124E+03
 MRCHDU: Convergence failed at  52  side 2    Res =  0.7127E+02
 MRCHDU: Convergence failed at  53  side 2    Res =  0.1194E+03
 MRCHDU: Convergence failed at  54  side 2    Res =  0.1129E+03
 MRCHDU: Convergence failed at  55  side 2    Res =  0.1150E+03
 MRCHDU: Convergence failed at  56  side 2    Res =  0.1143E+03
 MRCHDU: Convergence failed at  57  side 2    Res =  0.1094E+03
 MRCHDU: Convergence failed at  58  side 2    Res =  0.1060E+04
 MRCHDU: Convergence failed at  59  side 2    Res =  0.1145E+03
 MRCHDU: Convergence failed at  60  side 2    Res =  0.1136E+03
 MRCHDU: Convergence failed at  61  side 2    Res =  0.1169E+03
 MRCHDU: Convergence failed at  62  side 2    Res =  0.1196E+03
 MRCHDU: Convergence failed at  63  side 2    Res =  0.1440E+04
 MRCHDU: Convergence failed at  64  side 2    Res =  0.4971E+03
 MRCHDU: Convergence failed at  65  side 2    Res =  0.2009E+03
 MRCHDU: Convergence failed at  66  side 2    Res =  0.3770E+03
 MRCHDU: Convergence failed at  67  side 2    Res =  0.2604E+03
 MRCHDU: Convergence failed at  68  side 2    Res =  0.5842E+02
 MRCHDU: Convergence failed at  69  side 2    Res =  0.5167E+02
 MRCHDU: Convergence failed at  70  side 2    Res =  0.4761E+02
 MRCHDU: Convergence failed at  71  side 2    Res =  0.4530E+02
 MRCHDU: Convergence failed at  72  side 2    Res =  0.4275E+02
 MRCHDU: Convergence failed at  73  side 2    Res =  0.4114E+02
 MRCHDU: Convergence failed at  74  side 2    Res =  0.3947E+02
 MRCHDU: Convergence failed at  75  side 2    Res =  0.3838E+02
 MRCHDU: Convergence failed at  76  side 2    Res =  0.3749E+02
 MRCHDU: Convergence failed at  77  side 2    Res =  0.3677E+02
 MRCHDU: Convergence failed at  78  side 2    Res =  0.3672E+02
 MRCHDU: Convergence failed at  79  side 2    Res =  0.3656E+02
 MRCHDU: Convergence failed at  80  side 2    Res =  0.3808E+02
 MRCHDU: Convergence failed at  81  side 2    Res =  0.4028E+02
 MRCHDU: Convergence failed at  82  side 2    Res =  0.4482E+02
 MRCHDU: Convergence failed at  83  side 2    Res =  0.5008E+02
 MRCHDU: Convergence failed at  84  side 2    Res =  0.1813E+03
 Side 1 forced transition at x/c =  1.0000   78
 Side 2  free  transition at x/c =  0.0227   11

  25   rms: 0.1349E+01   max: 0.3426E+01   D at   65  2   RLX: 0.438
       a = -4.000      CL = -1.2623
      Cm =  0.2566     CD =  0.01710   =>   CDf =  0.00218    CDp =  0.01492

 MRCHDU: Convergence failed at  92  side 2    Res =  0.1120E+02
 MRCHDU: Convergence failed at  93  side 2    Res =  0.2076E+01
 Side 1 forced transition at x/c =  1.0000   78
 Side 2  free  transition at x/c =  0.0245   12

  26   rms: 0.6164E+00   max: 0.2036E+01   T at   12  2   RLX: 0.303
       a = -4.000      CL = -0.5204
      Cm =  0.0403     CD =  0.05381   =>   CDf =  0.00260    CDp =  0.05121

 Side 1 forced transition at x/c =  1.0000   78
 Side 2  free  transition at x/c =  0.0231   11

  27   rms: 0.4928E+00   max: -.1651E+01   D at  105  2   RLX: 0.303
       a = -4.000      CL = -0.4379
      Cm =  0.0139     CD =  0.06559   =>   CDf =  0.00283    CDp =  0.06276

 Side 1 forced transition at x/c =  1.0000   78
 Side 2  free  transition at x/c =  0.0250   12

  28   rms: 0.6385E+00   max: -.2278E+01   D at  103  2   RLX: 0.220
       a = -4.000      CL = -0.2576
      Cm = -0.0589     CD =  0.06923   =>   CDf =  0.00279    CDp =  0.06645

 Side 1 forced transition at x/c =  1.0000   78
 Side 2  free  transition at x/c =  0.0267   12

  29   rms: 0.5142E+00   max: 0.3796E+01   D at   12  2   RLX: 0.250
       a = -4.000      CL = -0.2391
      Cm = -0.0675     CD =  0.07063   =>   CDf =  0.00271    CDp =  0.06792

 Side 1 forced transition at x/c =  1.0000   78
 Side 2  free  transition at x/c =  0.0331   12

  30   rms: 0.6002E+00   max: -.2337E+01   D at  103  2   RLX: 0.214
       a = -4.000      CL = -0.2782
      Cm = -0.0664     CD =  0.06522   =>   CDf =  0.00265    CDp =  0.06258

 Side 1 forced transition at x/c =  1.0000   78
 Side 2  free  transition at x/c =  0.0331   12

  31   rms: 0.1935E+01   max: -.6173E+01   D at   24  2   RLX: 0.081
       a = -4.000      CL = -0.2958
      Cm = -0.0818     CD =  0.06035   =>   CDf =  0.00258    CDp =  0.05777

 Side 1 forced transition at x/c =  1.0000   78
 Side 2  free  transition at x/c =  0.0392   13

  32   rms: 0.8774E+00   max: 0.4664E+01   T at   13  2   RLX: 0.192
       a = -4.000      CL = -0.2789
      Cm = -0.0974     CD =  0.03801   =>   CDf =  0.00345    CDp =  0.03456

 MRCHDU: Convergence failed at  13  side 2    Res =  0.1263E+03
 MRCHDU: Convergence failed at  14  side 2    Res =  0.6700E+02
 MRCHDU: Convergence failed at  15  side 2    Res =  0.7604E+02
 MRCHDU: Convergence failed at  16  side 2    Res =  0.2934E+03
 MRCHDU: Convergence failed at  17  side 2    Res =  0.8264E+03
 MRCHDU: Convergence failed at  18  side 2    Res =  0.4582E+03
 MRCHDU: Convergence failed at  19  side 2    Res =  0.2578E+03
 MRCHDU: Convergence failed at  20  side 2    Res =  0.8569E+02
 MRCHDU: Convergence failed at  21  side 2    Res =  0.4908E+02
 MRCHDU: Convergence failed at  22  side 2    Res =  0.5579E+02
 MRCHDU: Convergence failed at  23  side 2    Res =  0.6729E+02
 MRCHDU: Convergence failed at  24  side 2    Res =  0.5170E+02
 MRCHDU: Convergence failed at  25  side 2    Res =  0.5565E+02
 MRCHDU: Convergence failed at  26  side 2    Res =  0.5816E+02
 MRCHDU: Convergence failed at  27  side 2    Res =  0.5991E+02
 MRCHDU: Convergence failed at  28  side 2    Res =  0.6126E+02
 MRCHDU: Convergence failed at  29  side 2    Res =  0.6245E+02
 MRCHDU: Convergence failed at  30  side 2    Res =  0.6366E+02
 MRCHDU: Convergence failed at  31  side 2    Res =  0.6505E+02
 MRCHDU: Convergence failed at  32  side 2    Res =  0.5945E+02
 MRCHDU: Convergence failed at  33  side 2    Res =  0.6079E+02
 MRCHDU: Convergence failed at  34  side 2    Res =  0.1159E+03
 MRCHDU: Convergence failed at  35  side 2    Res =  0.1129E+03
 MRCHDU: Convergence failed at  36  side 2    Res =  0.1100E+03
 MRCHDU: Convergence failed at  37  side 2    Res =  0.1072E+03
 MRCHDU: Convergence failed at  38  side 2    Res =  0.1047E+03
 MRCHDU: Convergence failed at  39  side 2    Res =  0.1025E+03
 MRCHDU: Convergence failed at  40  side 2    Res =  0.1005E+03
 MRCHDU: Convergence failed at  41  side 2    Res =  0.9871E+02
 MRCHDU: Convergence failed at  42  side 2    Res =  0.1035E+03
 MRCHDU: Convergence failed at  43  side 2    Res =  0.1031E+03
 MRCHDU: Convergence failed at  44  side 2    Res =  0.6033E+02
 MRCHDU: Convergence failed at  45  side 2    Res =  0.3699E+03
 MRCHDU: Convergence failed at  46  side 2    Res =  0.3659E+03
 MRCHDU: Convergence failed at  47  side 2    Res =  0.4793E+03
 MRCHDU: Convergence failed at  48  side 2    Res =  0.4132E+03
 MRCHDU: Convergence failed at  49  side 2    Res =  0.1775E+04
 MRCHDU: Convergence failed at  50  side 2    Res =  0.6466E+03
 MRCHDU: Convergence failed at  51  side 2    Res =  0.4869E+03
 MRCHDU: Convergence failed at  52  side 2    Res =  0.3551E+03
 MRCHDU: Convergence failed at  53  side 2    Res =  0.3610E+03
 MRCHDU: Convergence failed at  54  side 2    Res =  0.2472E+03
 MRCHDU: Convergence failed at  55  side 2    Res =  0.2732E+03
 MRCHDU: Convergence failed at  56  side 2    Res =  0.2888E+03
 MRCHDU: Convergence failed at  57  side 2    Res =  0.3021E+03
 MRCHDU: Convergence failed at  58  side 2    Res =  0.1021E+03
 MRCHDU: Convergence failed at  59  side 2    Res =  0.1157E+03
 MRCHDU: Convergence failed at  60  side 2    Res =  0.3185E+03
 MRCHDU: Convergence failed at  61  side 2    Res =  0.2298E+03
 MRCHDU: Convergence failed at  62  side 2    Res =  0.2507E+03
 MRCHDU: Convergence failed at  63  side 2    Res =  0.6954E+04
 MRCHDU: Convergence failed at  64  side 2    Res =  0.3654E+03
 MRCHDU: Convergence failed at  65  side 2    Res =  0.3603E+03
 MRCHDU: Convergence failed at  66  side 2    Res =  0.4268E+03
 MRCHDU: Convergence failed at  67  side 2    Res =  0.4192E+03
 MRCHDU: Convergence failed at  68  side 2    Res =  0.3255E+03
 MRCHDU: Convergence failed at  69  side 2    Res =  0.2660E+03
 MRCHDU: Convergence failed at  70  side 2    Res =  0.9576E+04
 MRCHDU: Convergence failed at  71  side 2    Res =  0.3445E+04
 MRCHDU: Convergence failed at  72  side 2    Res =  0.1905E+04
 MRCHDU: Convergence failed at  73  side 2    Res =  0.1299E+04
 MRCHDU: Convergence failed at  74  side 2    Res =  0.9610E+03
 MRCHDU: Convergence failed at  75  side 2    Res =  0.7935E+03
 MRCHDU: Convergence failed at  76  side 2    Res =  0.7457E+02
 MRCHDU: Convergence failed at  77  side 2    Res =  0.7772E+02
 MRCHDU: Convergence failed at  78  side 2    Res =  0.8098E+02
 MRCHDU: Convergence failed at  79  side 2    Res =  0.8414E+02
 MRCHDU: Convergence failed at  80  side 2    Res =  0.8668E+02
 MRCHDU: Convergence failed at  81  side 2    Res =  0.8897E+02
 MRCHDU: Convergence failed at  82  side 2    Res =  0.9160E+02
 MRCHDU: Convergence failed at  83  side 2    Res =  0.9523E+02
 MRCHDU: Convergence failed at  84  side 2    Res =  0.4304E+03
 MRCHDU: Convergence failed at  91  side 2    Res =  0.5493E-03
 Side 1 forced transition at x/c =  1.0000   78
 Side 2  free  transition at x/c =  0.0333   12

  33   rms: 0.1283E+01   max: 0.4338E+01   D at   90  2   RLX: 0.138
       a = -4.000      CL = -2.2849
      Cm =  0.5240     CD =  0.01146   =>   CDf =  0.00191    CDp =  0.00955

 MRCHDU: Convergence failed at  90  side 2    Res =  0.2637E+01
 MRCHDU: Convergence failed at  91  side 2    Res =  0.3680E+02
 Side 1 forced transition at x/c =  1.0000   78
 Side 2  free  transition at x/c =  0.0318   12

  34   rms: 0.1093E+01   max: -.4249E+01   D at   73  1   RLX: 0.118
       a = -4.000      CL = -1.5703
      Cm =  0.3106     CD =  0.07947   =>   CDf =  0.00246    CDp =  0.07701

 Side 1 forced transition at x/c =  1.0000   78
 Side 2  free  transition at x/c =  0.0325   12

  35   rms: 0.8241E+00   max: -.1886E+01   T at   93  2   RLX: 0.265
       a = -4.000      CL = -1.1769
      Cm =  0.2071     CD =  0.06713   =>   CDf =  0.00271    CDp =  0.06441

 MRCHDU: Convergence failed at 100  side 2    Res =  0.1828E+01
 MRCHDU: Convergence failed at 101  side 2    Res =  0.3613E+01
 MRCHDU: Convergence failed at 102  side 2    Res =  0.3674E+01
 MRCHDU: Convergence failed at 103  side 2    Res =  0.1722E+01
 Side 1 forced transition at x/c =  1.0000   78
 Side 2  free  transition at x/c =  0.0328   12

  36   rms: 0.6919E+00   max: -.1781E+01   C at   98  2   RLX: 0.281
       a = -4.000      CL = -0.8588
      Cm =  0.1240     CD =  0.09041   =>   CDf =  0.00296    CDp =  0.08745

 Side 1 forced transition at x/c =  1.0000   78
 Side 2  free  transition at x/c =  0.0328   12

  37   rms: 0.5590E+00   max: -.2391E+01   D at  106  2   RLX: 0.209
       a = -4.000      CL = -0.6800
      Cm =  0.0725     CD =  0.13955   =>   CDf =  0.00303    CDp =  0.13652

 Side 1 forced transition at x/c =  1.0000   78
 Side 2  free  transition at x/c =  0.0331   12

  38   rms: 0.5239E+00   max: -.1783E+01   D at  106  2   RLX: 0.280
       a = -4.000      CL = -0.5095
      Cm =  0.0280     CD =  0.12308   =>   CDf =  0.00305    CDp =  0.12003

 Side 1 forced transition at x/c =  1.0000   78
 Side 2  free  transition at x/c =  0.0332   12

  39   rms: 0.5028E+00   max: -.1856E+01   D at  106  2   RLX: 0.269
       a = -4.000      CL = -0.3891
      Cm = -0.0079     CD =  0.11923   =>   CDf =  0.00300    CDp =  0.11624

 Side 1 forced transition at x/c =  1.0000   78
 Side 2  free  transition at x/c =  0.0336   12

  40   rms: 0.5010E+00   max: -.1816E+01   T at   85  2   RLX: 0.275
       a = -4.000      CL = -0.3166
      Cm = -0.0313     CD =  0.11796   =>   CDf =  0.00291    CDp =  0.11505

 Side 1 forced transition at x/c =  1.0000   78
 Side 2  free  transition at x/c =  0.0318   12

  41   rms: 0.5625E+00   max: -.1491E+01   D at   25  2   RLX: 0.335
       a = -4.000      CL = -0.2619
      Cm = -0.0698     CD =  0.10862   =>   CDf =  0.00278    CDp =  0.10584

 Side 1 forced transition at x/c =  1.0000   78
 Side 2  free  transition at x/c =  0.0317   12

  42   rms: 0.9556E+00   max: -.3303E+01   D at   29  2   RLX: 0.151
       a = -4.000      CL = -0.2840
      Cm = -0.0865     CD =  0.12605   =>   CDf =  0.00265    CDp =  0.12340

 Side 1 forced transition at x/c =  1.0000   78
 Side 2  free  transition at x/c =  0.0493   14

  43   rms: 0.5599E+00   max: 0.2199E+01   D at   71  1   RLX: 0.231
       a = -4.000      CL = -0.2850
      Cm = -0.0948     CD =  0.11042   =>   CDf =  0.00388    CDp =  0.10653

 TRCHEK2: N2 convergence failed.
 x:  0.08738  0.09743  0.10064  N:  8.566  9.000  9.101  Nx:  68.865   dN:-0.929E+00
 MRCHDU: Convergence failed at  17  side 2    Res =  0.6280E+03
 MRCHDU: Convergence failed at  18  side 2    Res =  0.1010E+03
 MRCHDU: Convergence failed at  19  side 2    Res =  0.1286E+03
 MRCHDU: Convergence failed at  20  side 2    Res =  0.2355E+03
 MRCHDU: Convergence failed at  21  side 2    Res =  0.2747E+03
 MRCHDU: Convergence failed at  22  side 2    Res =  0.8308E+02
 MRCHDU: Convergence failed at  23  side 2    Res =  0.9984E+02
 MRCHDU: Convergence failed at  24  side 2    Res =  0.1132E+03
 MRCHDU: Convergence failed at  25  side 2    Res =  0.9326E+02
 MRCHDU: Convergence failed at  26  side 2    Res =  0.5551E+02
 MRCHDU: Convergence failed at  27  side 2    Res =  0.1323E+03
 MRCHDU: Convergence failed at  28  side 2    Res =  0.7433E+02
 MRCHDU: Convergence failed at  29  side 2    Res =  0.6815E+02
 MRCHDU: Convergence failed at  30  side 2    Res =  0.6826E+02
 MRCHDU: Convergence failed at  31  side 2    Res =  0.6833E+02
 MRCHDU: Convergence failed at  32  side 2    Res =  0.6852E+02
 MRCHDU: Convergence failed at  33  side 2    Res =  0.6889E+02
 MRCHDU: Convergence failed at  34  side 2    Res =  0.6946E+02
 MRCHDU: Convergence failed at  35  side 2    Res =  0.7022E+02
 MRCHDU: Convergence failed at  36  side 2    Res =  0.7111E+02
 MRCHDU: Convergence failed at  37  side 2    Res =  0.7212E+02
 MRCHDU: Convergence failed at  38  side 2    Res =  0.6430E+02
 MRCHDU: Convergence failed at  39  side 2    Res =  0.6528E+02
 MRCHDU: Convergence failed at  40  side 2    Res =  0.6623E+02
 MRCHDU: Convergence failed at  41  side 2    Res =  0.6712E+02
 MRCHDU: Convergence failed at  42  side 2    Res =  0.6788E+02
 MRCHDU: Convergence failed at  43  side 2    Res =  0.6841E+02
 MRCHDU: Convergence failed at  44  side 2    Res =  0.6833E+02
 MRCHDU: Convergence failed at  45  side 2    Res =  0.6731E+02
 MRCHDU: Convergence failed at  46  side 2    Res =  0.8083E+03
 MRCHDU: Convergence failed at  47  side 2    Res =  0.7830E+03
 MRCHDU: Convergence failed at  48  side 2    Res =  0.1319E+04
 MRCHDU: Convergence failed at  49  side 2    Res =  0.7257E+02
 MRCHDU: Convergence failed at  50  side 2    Res =  0.2881E+03
 MRCHDU: Convergence failed at  51  side 2    Res =  0.2921E+03
 MRCHDU: Convergence failed at  52  side 2    Res =  0.2876E+03
 MRCHDU: Convergence failed at  53  side 2    Res =  0.2581E+03
 MRCHDU: Convergence failed at  54  side 2    Res =  0.6334E+03
 MRCHDU: Convergence failed at  55  side 2    Res =  0.7012E+03
 MRCHDU: Convergence failed at  56  side 2    Res =  0.6722E+03
 MRCHDU: Convergence failed at  57  side 2    Res =  0.1520E+04
 MRCHDU: Convergence failed at  58  side 2    Res =  0.9227E+03
 MRCHDU: Convergence failed at  59  side 2    Res =  0.1115E+03
 MRCHDU: Convergence failed at  60  side 2    Res =  0.2926E+03
 MRCHDU: Convergence failed at  61  side 2    Res =  0.2924E+03
 MRCHDU: Convergence failed at  62  side 2    Res =  0.2653E+03
 MRCHDU: Convergence failed at  63  side 2    Res =  0.2707E+03
 MRCHDU: Convergence failed at  64  side 2    Res =  0.1383E+04
 MRCHDU: Convergence failed at  65  side 2    Res =  0.4499E+03
 MRCHDU: Convergence failed at  66  side 2    Res =  0.6539E+03
 MRCHDU: Convergence failed at  67  side 2    Res =  0.1804E+03
 MRCHDU: Convergence failed at  68  side 2    Res =  0.1239E+04
 MRCHDU: Convergence failed at  69  side 2    Res =  0.7202E+02
 MRCHDU: Convergence failed at  70  side 2    Res =  0.7691E+02
 MRCHDU: Convergence failed at  71  side 2    Res =  0.8759E+02
 MRCHDU: Convergence failed at  72  side 2    Res =  0.8636E+02
 MRCHDU: Convergence failed at  73  side 2    Res =  0.1072E+03
 MRCHDU: Convergence failed at  74  side 2    Res =  0.8633E+03
 MRCHDU: Convergence failed at  75  side 2    Res =  0.1213E+04
 MRCHDU: Convergence failed at  76  side 2    Res =  0.2114E+04
 MRCHDU: Convergence failed at  77  side 2    Res =  0.1835E+03
 MRCHDU: Convergence failed at  78  side 2    Res =  0.6325E+02
 MRCHDU: Convergence failed at  79  side 2    Res =  0.1222E+03
 MRCHDU: Convergence failed at  80  side 2    Res =  0.4762E+03
 MRCHDU: Convergence failed at  81  side 2    Res =  0.2777E+03
 MRCHDU: Convergence failed at  82  side 2    Res =  0.5250E+03
 MRCHDU: Convergence failed at  83  side 2    Res =  0.1671E+03
 MRCHDU: Convergence failed at  84  side 2    Res =  0.1441E+03
 MRCHDU: Convergence failed at 105  side 2    Res =  0.1006E+02
 Side 1  free  transition at x/c =  0.9835   77
 Side 2  free  transition at x/c =  0.0865   16

  44   rms: 0.1063E+01   max: 0.7104E+01   T at   16  2   RLX: 0.084
       a = -4.000      CL = -2.0557
      Cm =  0.4700     CD =  0.06165   =>   CDf =  0.00171    CDp =  0.05994

 MRCHDU: Convergence failed at 101  side 2    Res =  0.2236E+01
 MRCHDU: Convergence failed at 102  side 2    Res =  0.4079E+01
 MRCHDU: Convergence failed at 103  side 2    Res =  0.4544E+01
 MRCHDU: Convergence failed at 104  side 2    Res =  0.2214E+02
 MRCHDU: Convergence failed at 105  side 2    Res =  0.1175E+02
 MRCHDU: Convergence failed at 106  side 2    Res =  0.8990E+01
 Side 1  free  transition at x/c =  0.9892   77
 Side 2  free  transition at x/c =  0.0958   17

  45   rms: 0.1375E+01   max: 0.9183E+01   T at   17  2   RLX: 0.149
       a = -4.000      CL = -1.3610
      Cm =  0.2675     CD =  0.07587   =>   CDf =  0.00220    CDp =  0.07368

 Side 1  free  transition at x/c =  0.9809   76
 Side 2  free  transition at x/c =  0.0413   13

  46   rms: 0.1788E+01   max: -.2351E+02   T at   13  2   RLX: 0.021
       a = -4.000      CL = -1.3625
      Cm =  0.2764     CD =  0.14926   =>   CDf =  0.00234    CDp =  0.14691

 Side 1  free  transition at x/c =  0.9788   76
 Side 2  free  transition at x/c =  0.0403   13

  47   rms: 0.1205E+01   max: 0.4521E+01   T at   13  2   RLX: 0.127
       a = -4.000      CL = -1.1278
      Cm =  0.2233     CD =  0.09107   =>   CDf =  0.00235    CDp =  0.08871

 Side 1  free  transition at x/c =  0.9727   76
 Side 2  free  transition at x/c =  0.0321   12

  48   rms: 0.1973E+01   max: -.2623E+02   T at   13  2   RLX: 0.019
       a = -4.000      CL = -1.0716
      Cm =  0.2107     CD =  0.14197   =>   CDf =  0.00242    CDp =  0.13955

 Side 1  free  transition at x/c =  0.9722   76
 Side 2  free  transition at x/c =  0.0310   12

  49   rms: 0.1212E+01   max: 0.1062E+02   T at   12  2   RLX: 0.062
       a = -4.000      CL = -0.9804
      Cm =  0.1900     CD =  0.12006   =>   CDf =  0.00242    CDp =  0.11763

 Side 1  free  transition at x/c =  0.9710   76
 Side 2  free  transition at x/c =  0.0278   12

  50   rms: 0.1070E+01   max: 0.5778E+01   T at   12  2   RLX: 0.119
       a = -4.000      CL = -0.8041
      Cm =  0.1452     CD =  0.08143   =>   CDf =  0.00244    CDp =  0.07898

 Side 1  free  transition at x/c =  0.9698   75
 Side 2  free  transition at x/c =  0.0240   12

  51   rms: 0.2722E+01   max: 0.2712E+02   T at   13  2   RLX: 0.043
       a = -4.000      CL = -0.7278
      Cm =  0.1162     CD =  0.05907   =>   CDf =  0.00248    CDp =  0.05660

 MRCHDU: Convergence failed at  12  side 2    Res =  0.3070E+02
 Side 1  free  transition at x/c =  0.9689   75
 Side 2  free  transition at x/c =  0.0226   11

  52   rms: 0.2357E+01   max: 0.3064E+02   T at   75  1   RLX: 0.024
       a = -4.000      CL = -1.5135
      Cm =  0.3199     CD =  0.07819   =>   CDf =  0.00248    CDp =  0.07571

 Side 1  free  transition at x/c =  0.9539   74
 Side 2  free  transition at x/c =  0.0227   11

  53   rms: 0.1380E+01   max: -.7788E+01   T at   85  2   RLX: 0.064
       a = -4.000      CL = -1.0712
      Cm =  0.2134     CD =  0.05790   =>   CDf =  0.00245    CDp =  0.05545

 Side 1  free  transition at x/c =  0.9507   74
 Side 2  free  transition at x/c =  0.0226   11

  54   rms: 0.1013E+01   max: 0.4112E+01   T at   85  2   RLX: 0.133
       a = -4.000      CL = -0.8637
      Cm =  0.1662     CD =  0.06374   =>   CDf =  0.00246    CDp =  0.06128

 Side 1  free  transition at x/c =  0.9503   74
 Side 2  free  transition at x/c =  0.0226   11

  55   rms: 0.1328E+01   max: 0.8676E+01   T at  103  2   RLX: 0.149
       a = -4.000      CL = -0.7393
      Cm =  0.1322     CD =  0.06140   =>   CDf =  0.00249    CDp =  0.05892

 MRCHDU: Convergence failed at  83  side 2    Res =  0.9058E-02
 MRCHDU: Convergence failed at  84  side 2    Res =  0.8775E-02
 Side 1  free  transition at x/c =  0.9625   75
 Side 2  free  transition at x/c =  0.0226   11

  56   rms: 0.1160E+02   max: -.9580E+02   T at  106  2   RLX: 0.005
       a = -4.000      CL = -0.6983
      Cm =  0.1234     CD =  0.03775   =>   CDf =  0.00274    CDp =  0.03501

 MRCHDU: Convergence failed at  82  side 2    Res =  0.1840E-01
 MRCHDU: Convergence failed at  83  side 2    Res =  0.5592E-02
 Side 1  free  transition at x/c =  0.9592   76
 Side 2  free  transition at x/c =  0.0226   10

  57   rms: 0.2823E+02   max: -.2422E+03   T at  105  2   RLX: 0.002
       a = -4.000      CL = -0.6732
      Cm =  0.1189     CD =  0.00760   =>   CDf =  0.00256    CDp =  0.00504

 MRCHDU: Convergence failed at  81  side 2    Res =  0.6894E-03
 MRCHDU: Convergence failed at  82  side 2    Res =  0.1455E-01
 MRCHDU: Convergence failed at  83  side 2    Res =  0.3994E-02
 Side 1  free  transition at x/c =  0.9578   76
 Side 2  free  transition at x/c =  0.0226   10

  58   rms: 0.4461E+02   max: 0.1029E+04   C at  105  2   RLX: 0.001
       a = -4.000      CL = -0.6564
      Cm =  0.1159     CD =  0.00410   =>   CDf =  0.00256    CDp =  0.00155

 MRCHDU: Convergence failed at  81  side 2    Res =  0.3762E-03
 MRCHDU: Convergence failed at  82  side 2    Res =  0.1205E-01
 MRCHDU: Convergence failed at  83  side 2    Res =  0.3172E-02
 MRCHDU: Convergence failed at 104  side 2    Res =  0.8649E-02
 MRCHDU: Convergence failed at 105  side 2    Res =  0.1962E-01
 Side 1  free  transition at x/c =  0.9571   75
 Side 2  free  transition at x/c =  0.0226   10

  59   rms: 0.2009E+05   max: 0.3461E+06   T at  105  2   RLX: 0.000
       a = -4.000      CL = -0.6488
      Cm =  0.1140     CD =  0.00574   =>   CDf =  0.00256    CDp =  0.00318

 MRCHDU: Convergence failed at  81  side 2    Res =  0.3164E-03
 MRCHDU: Convergence failed at  82  side 2    Res =  0.1171E-01
 MRCHDU: Convergence failed at  83  side 2    Res =  0.3076E-02
 MRCHDU: Convergence failed at 104  side 2    Res =  0.1640E-01
 MRCHDU: Convergence failed at 105  side 2    Res =  0.4251E-01
 Side 1  free  transition at x/c =  0.9597   76
 Side 2  free  transition at x/c =  0.0226   10

  60   rms: 0.2389E+03   max: 0.5168E+04   C at  105  2   RLX: 0.000
       a = -4.000      CL = -0.6395
      Cm =  0.1122     CD =  0.04001   =>   CDf =  0.00257    CDp =  0.03745

 MRCHDU: Convergence failed at  81  side 2    Res =  0.2541E-04
 MRCHDU: Convergence failed at  82  side 2    Res =  0.1143E-01
 MRCHDU: Convergence failed at  83  side 2    Res =  0.3004E-02
 MRCHDU: Convergence failed at 104  side 2    Res =  0.2734E-01
 Side 1  free  transition at x/c =  0.9592   76
 Side 2  free  transition at x/c =  0.0226   10

  61   rms: 0.7863E+02   max: 0.8265E+03   C at  104  2   RLX: 0.001
       a = -4.000      CL = -0.6152
      Cm =  0.1078     CD =  0.10240   =>   CDf =  0.00256    CDp =  0.09983

 Side 1  free  transition at x/c =  0.9579   76
 Side 2  free  transition at x/c =  0.0226   10

  62   rms: 0.2171E+02   max: 0.2120E+03   T at  102  2   RLX: 0.003
       a = -4.000      CL = -0.6332
      Cm =  0.1110     CD =  0.03451   =>   CDf =  0.00256    CDp =  0.03194

 MRCHDU: Convergence failed at  82  side 2    Res =  0.9081E-02
 MRCHDU: Convergence failed at  83  side 2    Res =  0.3376E-02
 Side 1  free  transition at x/c =  0.9588   76
 Side 2  free  transition at x/c =  0.0226   10

  63   rms: 0.1269E+02   max: -.1279E+03   C at  104  2   RLX: 0.004
       a = -4.000      CL = -0.6495
      Cm =  0.1139     CD =  0.02202   =>   CDf =  0.00256    CDp =  0.01946

 MRCHDU: Convergence failed at  81  side 2    Res =  0.3523E-02
 MRCHDU: Convergence failed at  82  side 2    Res =  0.1876E-01
 MRCHDU: Convergence failed at  83  side 2    Res =  0.4880E-02
 Side 1  free  transition at x/c =  0.9599   76
 Side 2  free  transition at x/c =  0.0226   10

  64   rms: 0.2303E+03   max: 0.2897E+04   C at  104  2   RLX: 0.000
       a = -4.000      CL = -0.6286
      Cm =  0.1101     CD =  0.06068   =>   CDf =  0.00256    CDp =  0.05812

 MRCHDU: Convergence failed at  82  side 2    Res =  0.1210E-01
 MRCHDU: Convergence failed at  83  side 2    Res =  0.3705E-02
 Side 1  free  transition at x/c =  0.9586   76
 Side 2  free  transition at x/c =  0.0226   10

  65   rms: 0.3499E+02   max: -.3931E+03   C at  104  2   RLX: 0.001
       a = -4.000      CL = -0.6428
      Cm =  0.1126     CD =  0.02054   =>   CDf =  0.00256    CDp =  0.01798

 MRCHDU: Convergence failed at  81  side 2    Res =  0.2040E-02
 MRCHDU: Convergence failed at  82  side 2    Res =  0.1890E-01
 MRCHDU: Convergence failed at  83  side 2    Res =  0.4800E-02
 Side 1  free  transition at x/c =  0.9594   76
 Side 2  free  transition at x/c =  0.0226   10

  66   rms: 0.4721E+03   max: 0.5732E+04   T at  103  2   RLX: 0.000
       a = -4.000      CL = -0.6704
      Cm =  0.1177     CD =  0.01172   =>   CDf =  0.00256    CDp =  0.00916

 MRCHDU: Convergence failed at  81  side 2    Res =  0.6111E-02
 MRCHDU: Convergence failed at  82  side 2    Res =  0.3109E-01
 MRCHDU: Convergence failed at  83  side 2    Res =  0.8421E-02
 Side 1  free  transition at x/c =  0.9611   76
 Side 2  free  transition at x/c =  0.0226   10

  67   rms: 0.8242E+02   max: -.1375E+04   T at  104  2   RLX: 0.000
       a = -4.000      CL = -0.6589
      Cm =  0.1157     CD =  0.02286   =>   CDf =  0.00256    CDp =  0.02030

 MRCHDU: Convergence failed at  81  side 2    Res =  0.5924E-02
 MRCHDU: Convergence failed at  82  side 2    Res =  0.2724E-01
 MRCHDU: Convergence failed at  83  side 2    Res =  0.7080E-02
 Side 1  free  transition at x/c =  0.9602   76
 Side 2  free  transition at x/c =  0.0226   10

  68   rms: 0.1439E+03   max: -.2176E+04   T at  104  2   RLX: 0.000
       a = -4.000      CL = -0.6470
      Cm =  0.1135     CD =  0.03355   =>   CDf =  0.00256    CDp =  0.03099

 MRCHDU: Convergence failed at  81  side 2    Res =  0.4548E-02
 MRCHDU: Convergence failed at  82  side 2    Res =  0.2340E-01
 MRCHDU: Convergence failed at  83  side 2    Res =  0.5850E-02
 Side 1  free  transition at x/c =  0.9594   76
 Side 2  free  transition at x/c =  0.0226   10

  69   rms: 0.5900E+03   max: -.1063E+05   T at  104  2   RLX: 0.000
       a = -4.000      CL = -0.6555
      Cm =  0.1150     CD =  0.02530   =>   CDf =  0.00256    CDp =  0.02275

 MRCHDU: Convergence failed at  81  side 2    Res =  0.5574E-02
 MRCHDU: Convergence failed at  82  side 2    Res =  0.2619E-01
 MRCHDU: Convergence failed at  83  side 2    Res =  0.6670E-02
 Side 1  free  transition at x/c =  0.9599   76
 Side 2  free  transition at x/c =  0.0226   10

  70   rms: 0.2113E+03   max: -.2838E+04   T at  103  2   RLX: 0.000
       a = -4.000      CL = -0.6395
      Cm =  0.1121     CD =  0.09078   =>   CDf =  0.00256    CDp =  0.08822

 MRCHDU: Convergence failed at  81  side 2    Res =  0.2937E-02
 MRCHDU: Convergence failed at  82  side 2    Res =  0.2148E-01
 MRCHDU: Convergence failed at  83  side 2    Res =  0.5234E-02
 Side 1  free  transition at x/c =  0.9589   76
 Side 2  free  transition at x/c =  0.0226   10

  71   rms: 0.8793E+02   max: 0.1485E+04   T at  103  2   RLX: 0.001
       a = -4.000      CL = -0.6675
      Cm =  0.1173     CD =  0.01992   =>   CDf =  0.00256    CDp =  0.01736

 MRCHDU: Convergence failed at  81  side 2    Res =  0.7935E-02
 MRCHDU: Convergence failed at  82  side 2    Res =  0.3820E-01
 MRCHDU: Convergence failed at  83  side 2    Res =  0.9935E-02
 Side 1  free  transition at x/c =  0.9605   76
 Side 2  free  transition at x/c =  0.0226   10

  72   rms: 0.9541E+02   max: -.1229E+04   T at  103  2   RLX: 0.000
       a = -4.000      CL = -0.6515
      Cm =  0.1144     CD =  0.09031   =>   CDf =  0.00256    CDp =  0.08776

 MRCHDU: Convergence failed at  81  side 2    Res =  0.7409E-02
 MRCHDU: Convergence failed at  82  side 2    Res =  0.3199E-01
 MRCHDU: Convergence failed at  83  side 2    Res =  0.7813E-02
 Side 1  free  transition at x/c =  0.9594   76
 Side 2  free  transition at x/c =  0.0226   10

  73   rms: 0.7861E+03   max: 0.1319E+05   T at  103  2   RLX: 0.000
       a = -4.000      CL = -0.6722
      Cm =  0.1182     CD =  0.02672   =>   CDf =  0.00256    CDp =  0.02417

 MRCHDU: Convergence failed at  81  side 2    Res =  0.8137E-02
 MRCHDU: Convergence failed at  82  side 2    Res =  0.4465E-01
 MRCHDU: Convergence failed at  83  side 2    Res =  0.1191E-01
 Side 1  free  transition at x/c =  0.9607   76
 Side 2  free  transition at x/c =  0.0226   10

  74   rms: 0.7412E+02   max: -.9695E+03   T at  103  2   RLX: 0.001
       a = -4.000      CL = -0.6560
      Cm =  0.1153     CD =  0.10780   =>   CDf =  0.00255    CDp =  0.10525

 MRCHDU: Convergence failed at  81  side 2    Res =  0.8491E-02
 MRCHDU: Convergence failed at  82  side 2    Res =  0.3777E-01
 MRCHDU: Convergence failed at  83  side 2    Res =  0.9351E-02
 Side 1  free  transition at x/c =  0.9595   76
 Side 2  free  transition at x/c =  0.0226   10

  75   rms: 0.1462E+04   max: -.2487E+05   T at  103  2   RLX: 0.000
       a = -4.000      CL = -0.6459
      Cm =  0.1135     CD =  0.13535   =>   CDf =  0.00256    CDp =  0.13279

 MRCHDU: Convergence failed at  81  side 2    Res =  0.7367E-02
 MRCHDU: Convergence failed at  82  side 2    Res =  0.3322E-01
 MRCHDU: Convergence failed at  83  side 2    Res =  0.7897E-02
 Side 1  free  transition at x/c =  0.9589   76
 Side 2  free  transition at x/c =  0.0226   10

  76   rms: 0.1538E+03   max: 0.2758E+04   T at  103  2   RLX: 0.001
       a = -4.000      CL = -0.6735
      Cm =  0.1186     CD =  0.11114   =>   CDf =  0.00256    CDp =  0.10859

 MRCHDU: Convergence failed at  81  side 2    Res =  0.8723E-02
 MRCHDU: Convergence failed at  82  side 2    Res =  0.5470E-01
 MRCHDU: Convergence failed at  83  side 2    Res =  0.1478E-01
 Side 1  free  transition at x/c =  0.9605   76
 Side 2  free  transition at x/c =  0.0226   10

  77   rms: 0.1692E+03   max: 0.3434E+04   T at  104  2   RLX: 0.000
       a = -4.000      CL = -0.6576
      Cm =  0.1158     CD =  0.11074   =>   CDf =  0.00255    CDp =  0.10819

 MRCHDU: Convergence failed at  81  side 2    Res =  0.9102E-02
 MRCHDU: Convergence failed at  82  side 2    Res =  0.4782E-01
 MRCHDU: Convergence failed at  83  side 2    Res =  0.1199E-01
 Side 1  free  transition at x/c =  0.9594   76
 Side 2  free  transition at x/c =  0.0226   10

  78   rms: 0.6459E+03   max: -.1375E+05   T at  104  2   RLX: 0.000
       a = -4.000      CL = -0.6632
      Cm =  0.1168     CD =  0.06734   =>   CDf =  0.00255    CDp =  0.06479

 MRCHDU: Convergence failed at  81  side 2    Res =  0.9174E-02
 MRCHDU: Convergence failed at  82  side 2    Res =  0.5056E-01
 MRCHDU: Convergence failed at  83  side 2    Res =  0.1298E-01
 Side 1  free  transition at x/c =  0.9597   76
 Side 2  free  transition at x/c =  0.0226   10

  79   rms: 0.4477E+03   max: 0.8969E+04   T at  104  2   RLX: 0.000
       a = -4.000      CL = -0.6448
      Cm =  0.1135     CD =  0.07680   =>   CDf =  0.00255    CDp =  0.07424

 MRCHDU: Convergence failed at  81  side 2    Res =  0.7398E-02
 MRCHDU: Convergence failed at  82  side 2    Res =  0.4269E-01
 MRCHDU: Convergence failed at  83  side 2    Res =  0.1013E-01
 Side 1  free  transition at x/c =  0.9585   76
 Side 2  free  transition at x/c =  0.0226   10

  80   rms: 0.4109E+02   max: 0.4203E+03   T at  103  2   RLX: 0.001
       a = -4.000      CL = -0.6649
      Cm =  0.1171     CD =  0.01145   =>   CDf =  0.00255    CDp =  0.00890

 MRCHDU: Convergence failed at  81  side 2    Res =  0.9100E-02
 MRCHDU: Convergence failed at  82  side 2    Res =  0.5802E-01
 MRCHDU: Convergence failed at  83  side 2    Res =  0.1538E-01
 Side 1  free  transition at x/c =  0.9597   76
 Side 2  free  transition at x/c =  0.0227   10

  81   rms: 0.3685E+03   max: -.4771E+04   T at  103  2   RLX: 0.000
       a = -4.000      CL = -0.6487
      Cm =  0.1142     CD =  0.08670   =>   CDf =  0.00255    CDp =  0.08415

 MRCHDU: Convergence failed at  81  side 2    Res =  0.7925E-02
 MRCHDU: Convergence failed at  82  side 2    Res =  0.4962E-01
 MRCHDU: Convergence failed at  83  side 2    Res =  0.1192E-01
 Side 1  free  transition at x/c =  0.9587   76
 Side 2  free  transition at x/c =  0.0226   10

  82   rms: 0.1053E+03   max: 0.1742E+04   T at  103  2   RLX: 0.001
       a = -4.000      CL = -0.6799
      Cm =  0.1199     CD =  0.00975   =>   CDf =  0.00255    CDp =  0.00719

 MRCHDU: Convergence failed at  81  side 2    Res =  0.6800E-02
 MRCHDU: Convergence failed at  82  side 2    Res =  0.8131E-01
 MRCHDU: Convergence failed at  83  side 2    Res =  0.2663E-01
 Side 1  free  transition at x/c =  0.9606   76
 Side 2  free  transition at x/c =  0.0227   10

  83   rms: 0.7649E+02   max: -.8880E+03   T at  103  2   RLX: 0.001
       a = -4.000      CL = -0.6611
      Cm =  0.1166     CD =  0.09342   =>   CDf =  0.00255    CDp =  0.09087

 MRCHDU: Convergence failed at  81  side 2    Res =  0.7593E-02
 MRCHDU: Convergence failed at  82  side 2    Res =  0.7177E-01
 MRCHDU: Convergence failed at  83  side 2    Res =  0.1986E-01
 Side 1  free  transition at x/c =  0.9591   76
 Side 2  free  transition at x/c =  0.0227   10

  84   rms: 0.3067E+03   max: 0.3488E+04   T at  103  2   RLX: 0.000
       a = -4.000      CL = -0.6838
      Cm =  0.1207     CD =  0.03287   =>   CDf =  0.00255    CDp =  0.03032

 MRCHDU: Convergence failed at  81  side 2    Res =  0.5612E-02
 MRCHDU: Convergence failed at  82  side 2    Res =  0.9043E-01
 MRCHDU: Convergence failed at  83  side 2    Res =  0.3281E-01
 Side 1  free  transition at x/c =  0.9606   76
 Side 2  free  transition at x/c =  0.0227   10

  85   rms: 0.5456E+02   max: -.7459E+03   T at  103  2   RLX: 0.001
       a = -4.000      CL = -0.6666
      Cm =  0.1177     CD =  0.36857   =>   CDf =  0.00255    CDp =  0.36602

 MRCHDU: Convergence failed at  81  side 2    Res =  0.7224E-02
 MRCHDU: Convergence failed at  82  side 2    Res =  0.8196E-01
 MRCHDU: Convergence failed at  83  side 2    Res =  0.2493E-01
 Side 1  free  transition at x/c =  0.9593   76
 Side 2  free  transition at x/c =  0.0227   10

  86   rms: 0.4150E+03   max: -.7314E+04   T at  103  2   RLX: 0.000
       a = -4.000      CL = -0.6562
      Cm =  0.1159     CD =  0.43594   =>   CDf =  0.00255    CDp =  0.43339

 MRCHDU: Convergence failed at  81  side 2    Res =  0.6975E-02
 MRCHDU: Convergence failed at  82  side 2    Res =  0.7551E-01
 MRCHDU: Convergence failed at  83  side 2    Res =  0.2071E-01
 Side 1  free  transition at x/c =  0.9586   76
 Side 2  free  transition at x/c =  0.0227   10

  87   rms: 0.1148E+03   max: 0.2113E+04   T at  103  2   RLX: 0.001
       a = -4.000      CL = -0.6848
      Cm =  0.1210     CD =  0.31911   =>   CDf =  0.00255    CDp =  0.31655

 MRCHDU: Convergence failed at  81  side 2    Res =  0.4574E-02
 MRCHDU: Convergence failed at  82  side 2    Res =  0.1040E+00
 MRCHDU: Convergence failed at  83  side 2    Res =  0.2258E-01
 Side 1  free  transition at x/c =  0.9604   76
 Side 2  free  transition at x/c =  0.0227   10

  88   rms: 0.6990E+02   max: 0.1070E+04   T at  104  2   RLX: 0.001
       a = -4.000      CL = -0.6531
      Cm =  0.1155     CD =  0.23309   =>   CDf =  0.00255    CDp =  0.23054

 MRCHDU: Convergence failed at  81  side 2    Res =  0.4526E-02
 MRCHDU: Convergence failed at  82  side 2    Res =  0.3824E-01
 MRCHDU: Convergence failed at  83  side 2    Res =  0.1367E-01
 Side 1  free  transition at x/c =  0.9581   76
 Side 2  free  transition at x/c =  0.0227   10

  89   rms: 0.8927E+02   max: 0.1450E+04   T at  103  2   RLX: 0.001
       a = -4.000      CL = -0.6872
      Cm =  0.1217     CD =  0.00503   =>   CDf =  0.00255    CDp =  0.00248

 MRCHDU: Convergence failed at  81  side 2    Res =  0.4143E-02
 MRCHDU: Convergence failed at  82  side 2    Res =  0.5902E-01
 MRCHDU: Convergence failed at  83  side 2    Res =  0.3525E-01
 Side 1  free  transition at x/c =  0.9600   76
 Side 2  free  transition at x/c =  0.0227   10

  90   rms: 0.6042E+02   max: -.6809E+03   T at  103  2   RLX: 0.001
       a = -4.000      CL = -0.6666
      Cm =  0.1181     CD =  0.09055   =>   CDf =  0.00255    CDp =  0.08801

 MRCHDU: Convergence failed at  81  side 2    Res =  0.5174E-02
 MRCHDU: Convergence failed at  82  side 2    Res =  0.5372E-01
 MRCHDU: Convergence failed at  83  side 2    Res =  0.2562E-01
 Side 1  free  transition at x/c =  0.9585   76
 Side 2  free  transition at x/c =  0.0227   10

  91   rms: 0.1385E+04   max: 0.2366E+05   T at  104  2   RLX: 0.000
       a = -4.000      CL = -0.6525
      Cm =  0.1157     CD =  0.06404   =>   CDf =  0.00255    CDp =  0.06149

 MRCHDU: Convergence failed at  81  side 2    Res =  0.3962E-02
 MRCHDU: Convergence failed at  82  side 2    Res =  0.4921E-01
 MRCHDU: Convergence failed at  83  side 2    Res =  0.2033E-01
 Side 1  free  transition at x/c =  0.9577   76
 Side 2  free  transition at x/c =  0.0227   10

  92   rms: 0.6061E+02   max: 0.9527E+03   T at  103  2   RLX: 0.002
       a = -4.000      CL = -0.6865
      Cm =  0.1218     CD =  0.00253   =>   CDf =  0.00255    CDp = -0.00001

 MRCHDU: Convergence failed at  81  side 2    Res =  0.4173E-02
 MRCHDU: Convergence failed at  82  side 2    Res =  0.6963E-01
 MRCHDU: Convergence failed at  83  side 2    Res =  0.6416E-01
 Side 1  free  transition at x/c =  0.9595   76
 Side 2  free  transition at x/c =  0.0227   10

[...]
 Side 2  free  transition at x/c =  0.0269   11

 104   rms: 0.1567E+04   max: 0.3287E+05   T at  105  2   RLX: 0.000
       a = -2.500      CL = -0.7337
      Cm =  0.1516     CD =+Infinity   =>   CDf =  0.00230    CDp =+Infinity

 MRCHDU: Convergence failed at  82  side 2    Res =  0.7321E-01
 MRCHDU: Convergence failed at  83  side 2    Res =  0.3041E-01
 Side 1  free  transition at x/c =  0.8943   71
 Side 2  free  transition at x/c =  0.0268   11

 105   rms: 0.1218E+04   max: 0.3041E+05   T at  105  2   RLX: 0.000
       a = -2.500      CL = -0.7330
      Cm =  0.1515     CD =+Infinity   =>   CDf =  0.00230    CDp =+Infinity

 MRCHDU: Convergence failed at  82  side 2    Res =  0.7567E-01
 MRCHDU: Convergence failed at  83  side 2    Res =  0.2973E-01
 Side 1  free  transition at x/c =  0.8942   71
 Side 2  free  transition at x/c =  0.0268   11

 106   rms: 0.7972E+03   max: -.2151E+05   T at  105  2   RLX: 0.000
       a = -2.500      CL = -0.7327
      Cm =  0.1514     CD =+Infinity   =>   CDf =  0.00230    CDp =+Infinity

 MRCHDU: Convergence failed at  82  side 2    Res =  0.7693E-01
 MRCHDU: Convergence failed at  83  side 2    Res =  0.2950E-01
 Side 1  free  transition at x/c =  0.8942   71
 Side 2  free  transition at x/c =  0.0268   11

 107   rms: 0.1024E+04   max: -.2697E+05   T at  105  2   RLX: 0.000
       a = -2.500      CL = -0.7325
      Cm =  0.1514     CD =+Infinity   =>   CDf =  0.00230    CDp =+Infinity

 MRCHDU: Convergence failed at  82  side 2    Res =  0.7786E-01
 MRCHDU: Convergence failed at  83  side 2    Res =  0.2927E-01
 Side 1  free  transition at x/c =  0.8941   71
 Side 2  free  transition at x/c =  0.0268   11

 108   rms: 0.5521E+03   max: 0.1122E+05   T at  105  2   RLX: 0.000
       a = -2.500      CL = -0.7306
      Cm =  0.1510     CD =+Infinity   =>   CDf =  0.00230    CDp =+Infinity

 MRCHDU: Convergence failed at  82  side 2    Res =  0.8423E-01
 MRCHDU: Convergence failed at  83  side 2    Res =  0.2745E-01
 Side 1  free  transition at x/c =  0.8939   71
 Side 2  free  transition at x/c =  0.0268   11

 109   rms: 0.9726E+03   max: 0.2439E+05   T at  105  2   RLX: 0.000
       a = -2.500      CL = -0.7295
      Cm =  0.1508     CD =+Infinity   =>   CDf =  0.00230    CDp =+Infinity

 MRCHDU: Convergence failed at  82  side 2    Res =  0.9518E-01
 MRCHDU: Convergence failed at  83  side 2    Res =  0.2403E-01
 Side 1  free  transition at x/c =  0.8938   71
 Side 2  free  transition at x/c =  0.0268   11

 110   rms: 0.1013E+05   max: -.2747E+06   T at  105  2   RLX: 0.000
       a = -2.500      CL = -0.7295
      Cm =  0.1508     CD =+Infinity   =>   CDf =  0.00230    CDp =+Infinity

 MRCHDU: Convergence failed at  82  side 2    Res =  0.9532E-01
 MRCHDU: Convergence failed at  83  side 2    Res =  0.2405E-01
 Side 1  free  transition at x/c =  0.8938   71
 Side 2  free  transition at x/c =  0.0268   11

 111   rms: 0.6673E+04   max: 0.1805E+06   T at  105  2   RLX: 0.000
       a = -2.500      CL = -0.7293
      Cm =  0.1508     CD =+Infinity   =>   CDf =  0.00230    CDp =+Infinity

 MRCHDU: Convergence failed at  82  side 2    Res =  0.9562E-01
 MRCHDU: Convergence failed at  83  side 2    Res =  0.2387E-01
 Side 1  free  transition at x/c =  0.8938   71
 Side 2  free  transition at x/c =  0.0268   11

 112   rms: 0.1520E+05   max: -.4122E+06   T at  105  2   RLX: 0.000
       a = -2.500      CL = -0.7293
      Cm =  0.1508     CD =+Infinity   =>   CDf =  0.00230    CDp =+Infinity

 MRCHDU: Convergence failed at  82  side 2    Res =  0.9574E-01
 MRCHDU: Convergence failed at  83  side 2    Res =  0.2391E-01
 Side 1  free  transition at x/c =  0.8938   71
 Side 2  free  transition at x/c =  0.0268   11

 113   rms: 0.7087E+04   max: -.1920E+06   T at  105  2   RLX: 0.000
       a = -2.500      CL = -0.7292
      Cm =  0.1508     CD =+Infinity   =>   CDf =  0.00230    CDp =+Infinity

 MRCHDU: Convergence failed at  82  side 2    Res =  0.9590E-01
 MRCHDU: Convergence failed at  83  side 2    Res =  0.2390E-01
 Side 1  free  transition at x/c =  0.8938   71
 Side 2  free  transition at x/c =  0.0268   11

 114   rms: 0.5474E+04   max: -.1468E+06   T at  105  2   RLX: 0.000
       a = -2.500      CL = -0.7292
      Cm =  0.1508     CD =+Infinity   =>   CDf =  0.00230    CDp =+Infinity

 MRCHDU: Convergence failed at  82  side 2    Res =  0.9608E-01
 MRCHDU: Convergence failed at  83  side 2    Res =  0.2387E-01
 Side 1  free  transition at x/c =  0.8938   71
 Side 2  free  transition at x/c =  0.0268   11

 115   rms: 0.1733E+04   max: -.4089E+05   T at  105  2   RLX: 0.000
       a = -2.500      CL = -0.7290
      Cm =  0.1508     CD =+Infinity   =>   CDf =  0.00230    CDp =+Infinity

 MRCHDU: Convergence failed at  82  side 2    Res =  0.9669E-01
 MRCHDU: Convergence failed at  83  side 2    Res =  0.2372E-01
 Side 1  free  transition at x/c =  0.8938   71
 Side 2  free  transition at x/c =  0.0268   11

 116   rms: 0.8629E+03   max: -.1837E+05   T at  104  2   RLX: 0.000
       a = -2.500      CL = -0.7283
      Cm =  0.1506     CD =+Infinity   =>   CDf =  0.00230    CDp =+Infinity

 MRCHDU: Convergence failed at  82  side 2    Res =  0.9779E-01
 MRCHDU: Convergence failed at  83  side 2    Res =  0.2327E-01
 Side 1  free  transition at x/c =  0.8937   71
 Side 2  free  transition at x/c =  0.0268   11

 117   rms: 0.1108E+04   max: -.2947E+05   T at  104  2   RLX: 0.000
       a = -2.500      CL = -0.7281
      Cm =  0.1506     CD =+Infinity   =>   CDf =  0.00230    CDp =+Infinity

 MRCHDU: Convergence failed at  82  side 2    Res =  0.9858E-01
 MRCHDU: Convergence failed at  83  side 2    Res =  0.2313E-01
 Side 1  free  transition at x/c =  0.8937   71
 Side 2  free  transition at x/c =  0.0268   11

 118   rms: 0.9280E+03   max: 0.2179E+05   T at  104  2   RLX: 0.000
       a = -2.500      CL = -0.7257
      Cm =  0.1502     CD =+Infinity   =>   CDf =  0.00230    CDp =+Infinity

 MRCHDU: Convergence failed at  82  side 2    Res =  0.1001E+00
 MRCHDU: Convergence failed at  83  side 2    Res =  0.1648E-01
 Side 1  free  transition at x/c =  0.8935   71
 Side 2  free  transition at x/c =  0.0268   11

 119   rms: 0.6025E+03   max: 0.1376E+05   T at  104  2   RLX: 0.000
       a = -2.500      CL = -0.7235
      Cm =  0.1498     CD =+Infinity   =>   CDf =  0.00230    CDp =+Infinity

 MRCHDU: Convergence failed at  82  side 2    Res =  0.1017E+00
 MRCHDU: Convergence failed at  83  side 2    Res =  0.1787E-01
 Side 1  free  transition at x/c =  0.8933   71
 Side 2  free  transition at x/c =  0.0268   11

 120   rms: 0.7248E+03   max: -.1799E+05   T at  105  2   RLX: 0.000
       a = -2.500      CL = -0.7220
      Cm =  0.1495     CD =+Infinity   =>   CDf =  0.00230    CDp =+Infinity

 MRCHDU: Convergence failed at  82  side 2    Res =  0.1090E+00
 MRCHDU: Convergence failed at  83  side 2    Res =  0.1854E-01
 Side 1  free  transition at x/c =  0.8932   71
 Side 2  free  transition at x/c =  0.0267   11

 121   rms: 0.5224E+03   max: -.8652E+04   T at  103  2   RLX: 0.000
       a = -2.500      CL = -0.7182
      Cm =  0.1488     CD =+Infinity   =>   CDf =  0.00230    CDp =+Infinity

 MRCHDU: Convergence failed at  82  side 2    Res =  0.1095E+00
 MRCHDU: Convergence failed at  83  side 2    Res =  0.1906E-01
 Side 1  free  transition at x/c =  0.8929   71
 Side 2  free  transition at x/c =  0.0267   11

 122   rms: 0.2100E+04   max: 0.5079E+05   T at  105  2   RLX: 0.000
       a = -2.500      CL = -0.7252
      Cm =  0.1501     CD =+Infinity   =>   CDf =  0.00230    CDp =+Infinity

 MRCHDU: Convergence failed at  82  side 2    Res =  0.1137E+00
 MRCHDU: Convergence failed at  83  side 2    Res =  0.1526E-01
 Side 1  free  transition at x/c =  0.8934   71
 Side 2  free  transition at x/c =  0.0268   11

 123   rms: 0.2272E+04   max: -.5134E+05   T at  103  2   RLX: 0.000
       a = -2.500      CL = -0.7247
      Cm =  0.1500     CD =+Infinity   =>   CDf =  0.00230    CDp =+Infinity

 MRCHDU: Convergence failed at  82  side 2    Res =  0.9919E-01
 MRCHDU: Convergence failed at  83  side 2    Res =  0.2044E-01
 Side 1  free  transition at x/c =  0.8934   71
 Side 2  free  transition at x/c =  0.0268   11

 124   rms: 0.2203E+07   max: -.5975E+08   T at  105  2   RLX: 0.000
       a = -2.500      CL = -0.7247
      Cm =  0.1500     CD =+Infinity   =>   CDf =  0.00230    CDp =+Infinity

 MRCHDU: Convergence failed at  82  side 2    Res =  0.9919E-01
 MRCHDU: Convergence failed at  83  side 2    Res =  0.2045E-01
 Side 1  free  transition at x/c =  0.8934   71
 Side 2  free  transition at x/c =  0.0268   11

 125   rms: 0.3637E+05   max: 0.9778E+06   T at  105  2   RLX: 0.000
       a = -2.500      CL = -0.7247
      Cm =  0.1500     CD =+Infinity   =>   CDf =  0.00230    CDp =+Infinity

 MRCHDU: Convergence failed at  82  side 2    Res =  0.9907E-01
 MRCHDU: Convergence failed at  83  side 2    Res =  0.2036E-01
 Side 1  free  transition at x/c =  0.8934   71
 Side 2  free  transition at x/c =  0.0268   11

 126   rms: 0.2128E+07   max: 0.5774E+08   T at  105  2   RLX: 0.000
       a = -2.500      CL = -0.7247
      Cm =  0.1500     CD =+Infinity   =>   CDf =  0.00230    CDp =+Infinity

 MRCHDU: Convergence failed at  82  side 2    Res =  0.9900E-01
 MRCHDU: Convergence failed at  83  side 2    Res =  0.2033E-01
 Side 1  free  transition at x/c =  0.8934   71
 Side 2  free  transition at x/c =  0.0268   11

 127   rms: 0.3003E+07   max: 0.8146E+08   T at  105  2   RLX: 0.000
       a = -2.500      CL = -0.7247
      Cm =  0.1500     CD =+Infinity   =>   CDf =  0.00230    CDp =+Infinity

 MRCHDU: Convergence failed at  82  side 2    Res =  0.9887E-01
 MRCHDU: Convergence failed at  83  side 2    Res =  0.2025E-01
 Side 1  free  transition at x/c =  0.8934   71
 Side 2  free  transition at x/c =  0.0268   11

 128   rms: 0.4156E+07   max: -.1127E+09   T at  105  2   RLX: 0.000
       a = -2.500      CL = -0.7247
      Cm =  0.1500     CD =+Infinity   =>   CDf =  0.00230    CDp =+Infinity

 MRCHDU: Convergence failed at  82  side 2    Res =  0.9897E-01
 MRCHDU: Convergence failed at  83  side 2    Res =  0.2031E-01
 Side 1  free  transition at x/c =  0.8934   71
 Side 2  free  transition at x/c =  0.0268   11

 129   rms: 0.2111E+07   max: 0.5726E+08   T at  105  2   RLX: 0.000
       a = -2.500      CL = -0.7246
      Cm =  0.1500     CD =+Infinity   =>   CDf =  0.00230    CDp =+Infinity

 MRCHDU: Convergence failed at  82  side 2    Res =  0.9879E-01
 MRCHDU: Convergence failed at  83  side 2    Res =  0.2021E-01
 Side 1  free  transition at x/c =  0.8934   71
 Side 2  free  transition at x/c =  0.0268   11

 130   rms: 0.8349E+07   max: 0.2265E+09   T at  105  2   RLX: 0.000
       a = -2.500      CL = -0.7245
      Cm =  0.1499     CD =+Infinity   =>   CDf =  0.00230    CDp =+Infinity

 MRCHDU: Convergence failed at  82  side 2    Res =  0.9844E-01
 MRCHDU: Convergence failed at  83  side 2    Res =  0.2002E-01
 Side 1  free  transition at x/c =  0.8933   71
 Side 2  free  transition at x/c =  0.0268   11

 131   rms: 0.6951E+07   max: 0.1884E+09   T at  105  2   RLX: 0.000
       a = -2.500      CL = -0.7243
      Cm =  0.1499     CD =*********   =>   CDf =  0.00230    CDp =*********

 MRCHDU: Convergence failed at  82  side 2    Res =  0.9801E-01
 MRCHDU: Convergence failed at  83  side 2    Res =  0.1978E-01
 Side 1  free  transition at x/c =  0.8933   71
 Side 2  free  transition at x/c =  0.0268   11

 132   rms: 0.1073E+07   max: 0.2906E+08   T at  105  2   RLX: 0.000
       a = -2.500      CL = -0.7239
      Cm =  0.1498     CD =*********   =>   CDf =  0.00230    CDp =*********

 MRCHDU: Convergence failed at  82  side 2    Res =  0.9679E-01
 MRCHDU: Convergence failed at  83  side 2    Res =  0.1913E-01
 Side 1  free  transition at x/c =  0.8933   71
 Side 2  free  transition at x/c =  0.0268   11

 133   rms: 0.2547E+06   max: -.6854E+07   T at  105  2   RLX: 0.000
       a = -2.500      CL = -0.7242
      Cm =  0.1499     CD =*********   =>   CDf =  0.00230    CDp =*********

 MRCHDU: Convergence failed at  82  side 2    Res =  0.9766E-01
 MRCHDU: Convergence failed at  83  side 2    Res =  0.1957E-01
 Side 1  free  transition at x/c =  0.8933   71
 Side 2  free  transition at x/c =  0.0268   11

 134   rms: 0.8046E+07   max: 0.2177E+09   T at  105  2   RLX: 0.000
       a = -2.500      CL = -0.7241
      Cm =  0.1499     CD =*********   =>   CDf =  0.00230    CDp =*********

 MRCHDU: Convergence failed at  82  side 2    Res =  0.9746E-01
 MRCHDU: Convergence failed at  83  side 2    Res =  0.1947E-01
 Side 1  free  transition at x/c =  0.8933   71
 Side 2  free  transition at x/c =  0.0268   11

 135   rms: 0.3299E+07   max: -.8919E+08   T at  105  2   RLX: 0.000
       a = -2.500      CL = -0.7243
      Cm =  0.1499     CD =*********   =>   CDf =  0.00230    CDp =*********

 MRCHDU: Convergence failed at  82  side 2    Res =  0.9789E-01
 MRCHDU: Convergence failed at  83  side 2    Res =  0.1967E-01
 Side 1  free  transition at x/c =  0.8933   71
 Side 2  free  transition at x/c =  0.0268   11

 136   rms: 0.4792E+07   max: 0.1298E+09   T at  105  2   RLX: 0.000
       a = -2.500      CL = -0.7241
      Cm =  0.1499     CD =*********   =>   CDf =  0.00230    CDp =*********

 MRCHDU: Convergence failed at  82  side 2    Res =  0.9750E-01
 MRCHDU: Convergence failed at  83  side 2    Res =  0.1948E-01
 Side 1  free  transition at x/c =  0.8933   71
 Side 2  free  transition at x/c =  0.0268   11

 137   rms: 0.3641E+07   max: -.9847E+08   T at  105  2   RLX: 0.000
       a = -2.500      CL = -0.7242
      Cm =  0.1499     CD =*********   =>   CDf =  0.00230    CDp =*********

 MRCHDU: Convergence failed at  82  side 2    Res =  0.9786E-01
 MRCHDU: Convergence failed at  83  side 2    Res =  0.1967E-01
 Side 1  free  transition at x/c =  0.8933   71
 Side 2  free  transition at x/c =  0.0268   11

 138   rms: 0.1018E+07   max: -.2756E+08   T at  105  2   RLX: 0.000
       a = -2.500      CL = -0.7244
      Cm =  0.1499     CD =+Infinity   =>   CDf =  0.00230    CDp =+Infinity

 MRCHDU: Convergence failed at  82  side 2    Res =  0.9826E-01
 MRCHDU: Convergence failed at  83  side 2    Res =  0.1989E-01
 Side 1  free  transition at x/c =  0.8933   71
 Side 2  free  transition at x/c =  0.0268   11

 139   rms: 0.1847E+08   max: -.5007E+09   T at  105  2   RLX: 0.000
       a = -2.500      CL = -0.7245
      Cm =  0.1499     CD =+Infinity   =>   CDf =  0.00230    CDp =+Infinity

 MRCHDU: Convergence failed at  82  side 2    Res =  0.9843E-01
 MRCHDU: Convergence failed at  83  side 2    Res =  0.1998E-01
 Side 1  free  transition at x/c =  0.8933   71
 Side 2  free  transition at x/c =  0.0268   11

 140   rms: 0.1326E+08   max: -.3596E+09   T at  105  2   RLX: 0.000
       a = -2.500      CL = -0.7245
      Cm =  0.1499     CD =+Infinity   =>   CDf =  0.00230    CDp =+Infinity

 MRCHDU: Convergence failed at  82  side 2    Res =  0.9859E-01
 MRCHDU: Convergence failed at  83  side 2    Res =  0.2006E-01
 Side 1  free  transition at x/c =  0.8933   71
 Side 2  free  transition at x/c =  0.0268   11

 141   rms: 0.1517E+07   max: -.4116E+08   T at  105  2   RLX: 0.000
       a = -2.500      CL = -0.7245
      Cm =  0.1500     CD =+Infinity   =>   CDf =  0.00230    CDp =+Infinity

 MRCHDU: Convergence failed at  82  side 2    Res =  0.9869E-01
 MRCHDU: Convergence failed at  83  side 2    Res =  0.2011E-01
 Side 1  free  transition at x/c =  0.8933   71
 Side 2  free  transition at x/c =  0.0268   11

 142   rms: 0.1581E+08   max: -.4289E+09   T at  105  2   RLX: 0.000
       a = -2.500      CL = -0.7246
      Cm =  0.1500     CD =+Infinity   =>   CDf =  0.00230    CDp =+Infinity

 MRCHDU: Convergence failed at  82  side 2    Res =  0.9873E-01
 MRCHDU: Convergence failed at  83  side 2    Res =  0.2014E-01
 Side 1  free  transition at x/c =  0.8933   71
 Side 2  free  transition at x/c =  0.0268   11

 143   rms: 0.1603E+07   max: 0.4348E+08   T at  105  2   RLX: 0.000
       a = -2.500      CL = -0.7245
      Cm =  0.1500     CD =+Infinity   =>   CDf =  0.00230    CDp =+Infinity

 MRCHDU: Convergence failed at  82  side 2    Res =  0.9866E-01
 MRCHDU: Convergence failed at  83  side 2    Res =  0.2010E-01
 Side 1  free  transition at x/c =  0.8933   71
 Side 2  free  transition at x/c =  0.0268   11

 144   rms: 0.2666E+07   max: 0.7232E+08   T at  105  2   RLX: 0.000
       a = -2.500      CL = -0.7245
      Cm =  0.1499     CD =+Infinity   =>   CDf =  0.00230    CDp =+Infinity

 MRCHDU: Convergence failed at  82  side 2    Res =  0.9847E-01
 MRCHDU: Convergence failed at  83  side 2    Res =  0.2000E-01
 Side 1  free  transition at x/c =  0.8933   71
 Side 2  free  transition at x/c =  0.0268   11

 145   rms: 0.9143E+07   max: 0.2480E+09   T at  105  2   RLX: 0.000
       a = -2.500      CL = -0.7243
      Cm =  0.1499     CD =+Infinity   =>   CDf =  0.00230    CDp =+Infinity

 MRCHDU: Convergence failed at  82  side 2    Res =  0.9808E-01
 MRCHDU: Convergence failed at  83  side 2    Res =  0.1979E-01
 Side 1  free  transition at x/c =  0.8933   71
 Side 2  free  transition at x/c =  0.0268   11

 146   rms: 0.9229E+07   max: 0.2502E+09   T at  105  2   RLX: 0.000
       a = -2.500      CL = -0.7242
      Cm =  0.1499     CD =*********   =>   CDf =  0.00230    CDp =*********

 MRCHDU: Convergence failed at  82  side 2    Res =  0.9779E-01
 MRCHDU: Convergence failed at  83  side 2    Res =  0.1963E-01
 Side 1  free  transition at x/c =  0.8933   71
 Side 2  free  transition at x/c =  0.0268   11

 147   rms: 0.1060E+08   max: -.2870E+09   T at  105  2   RLX: 0.000
       a = -2.500      CL = -0.7243
      Cm =  0.1499     CD =+Infinity   =>   CDf =  0.00230    CDp =+Infinity

 MRCHDU: Convergence failed at  82  side 2    Res =  0.9799E-01
 MRCHDU: Convergence failed at  83  side 2    Res =  0.1973E-01
 Side 1  free  transition at x/c =  0.8933   71
 Side 2  free  transition at x/c =  0.0268   11

 148   rms: 0.3307E+07   max: -.8964E+08   T at  105  2   RLX: 0.000
       a = -2.500      CL = -0.7244
      Cm =  0.1499     CD =+Infinity   =>   CDf =  0.00230    CDp =+Infinity

 MRCHDU: Convergence failed at  82  side 2    Res =  0.9830E-01
 MRCHDU: Convergence failed at  83  side 2    Res =  0.1989E-01
 Side 1  free  transition at x/c =  0.8933   71
 Side 2  free  transition at x/c =  0.0268   11

 149   rms: 0.7547E+07   max: -.2047E+09   T at  105  2   RLX: 0.000
       a = -2.500      CL = -0.7244
      Cm =  0.1499     CD =+Infinity   =>   CDf =  0.00230    CDp =+Infinity

 MRCHDU: Convergence failed at  82  side 2    Res =  0.9847E-01
 MRCHDU: Convergence failed at  83  side 2    Res =  0.1999E-01
 Side 1  free  transition at x/c =  0.8933   71
 Side 2  free  transition at x/c =  0.0268   11

 150   rms: 0.3966E+06   max: -.1076E+08   T at  105  2   RLX: 0.000
       a = -2.500      CL = -0.7245
      Cm =  0.1499     CD =+Infinity   =>   CDf =  0.00230    CDp =+Infinity

 MRCHDU: Convergence failed at  82  side 2    Res =  0.9857E-01
 MRCHDU: Convergence failed at  83  side 2    Res =  0.2004E-01
 Side 1  free  transition at x/c =  0.8933   71
 Side 2  free  transition at x/c =  0.0268   11

 151   rms: 0.1703E+08   max: -.4620E+09   T at  105  2   RLX: 0.000
       a = -2.500      CL = -0.7245
      Cm =  0.1499     CD =+Infinity   =>   CDf =  0.00230    CDp =+Infinity

 MRCHDU: Convergence failed at  82  side 2    Res =  0.9863E-01
 MRCHDU: Convergence failed at  83  side 2    Res =  0.2007E-01
 Side 1  free  transition at x/c =  0.8933   71
 Side 2  free  transition at x/c =  0.0268   11

 152   rms: 0.1179E+08   max: -.3198E+09   T at  105  2   RLX: 0.000
       a = -2.500      CL = -0.7245
      Cm =  0.1499     CD =+Infinity   =>   CDf =  0.00230    CDp =+Infinity

 MRCHDU: Convergence failed at  82  side 2    Res =  0.9865E-01
 MRCHDU: Convergence failed at  83  side 2    Res =  0.2009E-01

[TIMEOUT]
