
 ===================================================
  XFOIL Version 6.99
  Copyright (C) 2000   Mark Drela, Harold Youngren

  This software comes with ABSOLUTELY NO WARRANTY,
    subject to the GNU General Public License.

  Caveat computor
 ===================================================

 File  xfoil.def  not found

   QUIT    Exit program

  .OPER    Direct operating point(s)
  .MDES    Complex mapping design routine
  .QDES    Surface speed design routine
  .GDES    Geometry design routine

   SAVE f  Write airfoil to labeled coordinate file
   PSAV f  Write airfoil to plain coordinate file
   ISAV f  Write airfoil to ISES coordinate file
   MSAV f  Write airfoil to MSES coordinate file
   REVE    Reverse written-airfoil node ordering

   LOAD f  Read buffer airfoil from coordinate file
   NACA i  Set NACA 4,5-digit airfoil and buffer airfoil
   INTE    Set buffer airfoil by interpolating two airfoils
   NORM    Buffer airfoil normalization toggle
   XYCM rr Change CM reference location, currently  0.25000 0.00000

   BEND    Display structural properties of current airfoil

   PCOP    Set current-airfoil panel nodes directly from buffer airfoil points
   PANE    Set current-airfoil panel nodes ( 160 ) based on curvature
  .PPAR    Show/change paneling

  .PLOP    Plotting options

   WDEF f  Write  current-settings file
   RDEF f  Reread current-settings file
   NAME s  Specify new airfoil name
   NINC    Increment name version number

   Z       Zoom    | (available in all menus)
   U       Unzoom  | 

 XFOIL   c>  
 Labeled airfoil file.  Name:  MH 23  8%                                       

 Number of input coordinate points:  68
 Counterclockwise ordering
 Max thickness =     0.079912  at x =   0.375
 Max camber    =     0.012814  at x =   0.390

  LE  x,y  =  -0.00000  -0.00003  |   Chord =   1.00000
  TE  x,y  =   1.00000   0.00000  |

 Current airfoil nodes set from buffer airfoil nodes (  68 )

 XFOIL   c>  
 XFOIL   c>  
 Sharp trailing edge

 Paneling parameters used...
   Number of panel nodes       160
   Panel bunching parameter    1.000
   TE/LE panel density ratio   0.150
   Refined-area/LE panel density ratio    0.200
   Top    side refined area x/c limits  1.000 1.000
   Bottom side refined area x/c limits  1.000 1.000

 XFOIL   c>  
.OPERi   c>  
 Xtr/c     =  1.0000    top    side
 Xtr/c     =  1.0000    bottom side
 Ncrit     =    9.00   ( 0.070 % turb. level )
 Vacc      =  0.0100

 Klag  =  5.6000     Uxwt  =    1.00
 A     =  6.7000     B     =  0.7500       KCt = 0.01485
 CtiniK=  1.8000     CtiniX=  3.3000

..VPAR   c>  
..VPAR   c>  
.OPERi   c>  
 M  =    0.0000
 Re =    200000

.OPERv   c>  
.OPERv   c>  
.OPERv   c>  
 Polar  1 newly created for accumulation
 Airfoil archived with polar: MH 23  8%                                       

Enter  polar save filename  OR  <return> for no file   s>  
 New polar save file available

Enter  polar dump filename  OR  <return> for no file   s>  
 Polar dump file will NOT be written

 Polar accumulation enabled

.OPERva   c>   Calculating unit vorticity distributions ...
 Calculating wake trajectory ...
 Calculating source influence matrix ...

 Solving BL system ...

 Initializing BL ...
    side            1  ...
 MRCHUE: Inverse mode at  66     Hk =   3.800
 MRCHUE: Inverse mode at  67     Hk =   4.090
 MRCHUE: Inverse mode at  68     Hk =   4.377
 MRCHUE: Inverse mode at  69     Hk =   4.662
 MRCHUE: Inverse mode at  70     Hk =   4.944
 MRCHUE: Convergence failed at  71  side 1    Res =  0.2376E+01
 MRCHUE: Inverse mode at  72     Hk =   5.219
 MRCHUE: Inverse mode at  73     Hk =   5.488
 MRCHUE: Convergence failed at  74  side 1    Res =  0.1999E+01
 MRCHUE: Inverse mode at  75     Hk =   5.754
 MRCHUE: Convergence failed at  76  side 1    Res =  0.2250E+01
 MRCHUE: Inverse mode at  77     Hk =   5.996
 MRCHUE: Inverse mode at  78     Hk =   6.117
    side            2  ...
 MRCHUE: Inverse mode at   7     Hk =   4.419
 MRCHUE: Convergence failed at   8  side 2    Res =  0.4044E+01
 MRCHUE: Inverse mode at   9     Hk =   6.861
 MRCHUE: Inverse mode at  10     Hk =   9.434
 MRCHUE: Inverse mode at  11     Hk =   9.912
 MRCHUE: Inverse mode at  12     Hk =   2.500
 MRCHUE: Inverse mode at  13     Hk =   2.500
 MRCHUE: Inverse mode at  14     Hk =   2.500
 MRCHUE: Inverse mode at  15     Hk =   2.500
 MRCHUE: Inverse mode at  83     Hk =   2.500
 MRCHUE: Inverse mode at  84     Hk =   2.500

 MRCHDU: Convergence failed at  76  side 1    Res =  0.6276E+01
 MRCHDU: Convergence failed at  77  side 1    Res =  0.9025E+01
 MRCHDU: Convergence failed at  78  side 1    Res =  0.9059E+01
 MRCHDU: Convergence failed at   8  side 2    Res =  0.1677E+01
 MRCHDU: Convergence failed at   9  side 2    Res =  0.1028E+01
 MRCHDU: Convergence failed at  10  side 2    Res =  0.1628E+01
 MRCHDU: Convergence failed at  11  side 2    Res =  0.2235E+01
 MRCHDU: Convergence failed at  12  side 2    Res =  0.3847E+01
 MRCHDU: Convergence failed at  13  side 2    Res =  0.4212E+02
 MRCHDU: Convergence failed at  14  side 2    Res =  0.2733E+02
 MRCHDU: Convergence failed at  15  side 2    Res =  0.1120E+02
 MRCHDU: Convergence failed at  16  side 2    Res =  0.6274E+02
 MRCHDU: Convergence failed at  17  side 2    Res =  0.2233E+02
 MRCHDU: Convergence failed at  18  side 2    Res =  0.1562E+02
 MRCHDU: Convergence failed at  19  side 2    Res =  0.2262E+02
 MRCHDU: Convergence failed at  20  side 2    Res =  0.3932E+02
 MRCHDU: Convergence failed at  21  side 2    Res =  0.3610E+02
 MRCHDU: Convergence failed at  22  side 2    Res =  0.4104E+02
 MRCHDU: Convergence failed at  23  side 2    Res =  0.4598E+02
 MRCHDU: Convergence failed at  24  side 2    Res =  0.5164E+02
 MRCHDU: Convergence failed at  25  side 2    Res =  0.9461E+02
 MRCHDU: Convergence failed at  26  side 2    Res =  0.5045E+02
 MRCHDU: Convergence failed at  27  side 2    Res =  0.4861E+02
 MRCHDU: Convergence failed at  28  side 2    Res =  0.5480E+02
 MRCHDU: Convergence failed at  29  side 2    Res =  0.6200E+02
 MRCHDU: Convergence failed at  30  side 2    Res =  0.7098E+02
 MRCHDU: Convergence failed at  31  side 2    Res =  0.8224E+02
 MRCHDU: Convergence failed at  32  side 2    Res =  0.9623E+02
 MRCHDU: Convergence failed at  33  side 2    Res =  0.1163E+03
 MRCHDU: Convergence failed at  34  side 2    Res =  0.1394E+03
 MRCHDU: Convergence failed at  35  side 2    Res =  0.1775E+03
 MRCHDU: Convergence failed at  36  side 2    Res =  0.1797E+03
 MRCHDU: Convergence failed at  37  side 2    Res =  0.5458E+03
 MRCHDU: Convergence failed at  38  side 2    Res =  0.1898E+02
 MRCHDU: Convergence failed at  39  side 2    Res =  0.1512E+03
 MRCHDU: Convergence failed at  40  side 2    Res =  0.4140E+03
 MRCHDU: Convergence failed at  41  side 2    Res =  0.1295E+04
 MRCHDU: Convergence failed at  42  side 2    Res =  0.2021E+02
 MRCHDU: Convergence failed at  43  side 2    Res =  0.1893E+02
 MRCHDU: Convergence failed at  44  side 2    Res =  0.1837E+02
 MRCHDU: Convergence failed at  45  side 2    Res =  0.1902E+03
 MRCHDU: Convergence failed at  46  side 2    Res =  0.4869E+03
 MRCHDU: Convergence failed at  47  side 2    Res =  0.8430E+03
 MRCHDU: Convergence failed at  48  side 2    Res =  0.2462E+03
 MRCHDU: Convergence failed at  49  side 2    Res =  0.1628E+03
 MRCHDU: Convergence failed at  50  side 2    Res =  0.1328E+03
 MRCHDU: Convergence failed at  51  side 2    Res =  0.1007E+03
 MRCHDU: Convergence failed at  52  side 2    Res =  0.8273E+02
 MRCHDU: Convergence failed at  53  side 2    Res =  0.6847E+02
 MRCHDU: Convergence failed at  54  side 2    Res =  0.6212E+02
 MRCHDU: Convergence failed at  55  side 2    Res =  0.5563E+02
 MRCHDU: Convergence failed at  56  side 2    Res =  0.5190E+02
 MRCHDU: Convergence failed at  57  side 2    Res =  0.4781E+02
 MRCHDU: Convergence failed at  58  side 2    Res =  0.4380E+02
 MRCHDU: Convergence failed at  59  side 2    Res =  0.4127E+02
 MRCHDU: Convergence failed at  60  side 2    Res =  0.3914E+02
 MRCHDU: Convergence failed at  61  side 2    Res =  0.3683E+02
 MRCHDU: Convergence failed at  62  side 2    Res =  0.3459E+02
 MRCHDU: Convergence failed at  63  side 2    Res =  0.3370E+02
 MRCHDU: Convergence failed at  64  side 2    Res =  0.3170E+02
 MRCHDU: Convergence failed at  65  side 2    Res =  0.3062E+02
 MRCHDU: Convergence failed at  66  side 2    Res =  0.2966E+02
 MRCHDU: Convergence failed at  67  side 2    Res =  0.2850E+02
 MRCHDU: Convergence failed at  68  side 2    Res =  0.2728E+02
 MRCHDU: Convergence failed at  69  side 2    Res =  0.2648E+02
 MRCHDU: Convergence failed at  70  side 2    Res =  0.2539E+02
 MRCHDU: Convergence failed at  71  side 2    Res =  0.2426E+02
 MRCHDU: Convergence failed at  72  side 2    Res =  0.2296E+02
 MRCHDU: Convergence failed at  73  side 2    Res =  0.2187E+02
 MRCHDU: Convergence failed at  74  side 2    Res =  0.2124E+02
 MRCHDU: Convergence failed at  75  side 2    Res =  0.2029E+02
 MRCHDU: Convergence failed at  76  side 2    Res =  0.1964E+02
 MRCHDU: Convergence failed at  77  side 2    Res =  0.1894E+02
 MRCHDU: Convergence failed at  78  side 2    Res =  0.1789E+02
 MRCHDU: Convergence failed at  79  side 2    Res =  0.1648E+02
 MRCHDU: Convergence failed at  80  side 2    Res =  0.1508E+02
 MRCHDU: Convergence failed at  81  side 2    Res =  0.1591E+02
 MRCHDU: Convergence failed at  82  side 2    Res =  0.1388E+02
 MRCHDU: Convergence failed at  83  side 2    Res =  0.1508E+02
 MRCHDU: Convergence failed at  84  side 2    Res =  0.1254E+02
 Side 1 forced transition at x/c =  1.0000   78
 Side 2  free  transition at x/c =  0.0228   11

   1   rms: 0.1906E+01   max: 0.4294E+01   D at   86  2   RLX: 0.246
       a = -4.000      CL = -3.7304
      Cm =  0.8722     CD =  0.00278   =>   CDf =  0.00227    CDp =  0.00051

 MRCHDU: Convergence failed at  86  side 2    Res =  0.1784E+01
 Side 1 forced transition at x/c =  1.0000   78
 Side 2  free  transition at x/c =  0.0559   14

   2   rms: 0.1374E+01   max: 0.4878E+01   D at    9  2   RLX: 0.156
       a = -4.000      CL = -3.0506
      Cm =  0.6916     CD =  0.00556   =>   CDf =  0.02426    CDp = -0.01870

 Side 1 forced transition at x/c =  1.0000   78
 Side 2  free  transition at x/c =  0.0187   10

   3   rms: 0.1179E+01   max: 0.8441E+01   C at   10  2   RLX: 0.178
       a = -4.000      CL = -2.4950
      Cm =  0.5405     CD =  0.00647   =>   CDf =  0.02117    CDp = -0.01470

 Side 1 forced transition at x/c =  1.0000   78
 Side 2  free  transition at x/c =  0.0175   10

   4   rms: 0.9613E+00   max: 0.3466E+01   D at   10  2   RLX: 0.251
       a = -4.000      CL = -1.9079
      Cm =  0.3803     CD =  0.00763   =>   CDf =  0.01821    CDp = -0.01058

 Side 1 forced transition at x/c =  1.0000   78
 Side 2  free  transition at x/c =  0.0174   10

   5   rms: 0.7925E+00   max: 0.2390E+01   D at   10  2   RLX: 0.353
       a = -4.000      CL = -1.3474
      Cm =  0.2297     CD =  0.00976   =>   CDf =  0.01493    CDp = -0.00517

 Side 1 forced transition at x/c =  1.0000   78
 Side 2  free  transition at x/c =  0.0184   10

   6   rms: 0.6248E+00   max: 0.1665E+01   D at   12  2   RLX: 0.570
       a = -4.000      CL = -0.8194
      Cm =  0.0911     CD =  0.01463   =>   CDf =  0.01198    CDp =  0.00265

 Side 1 forced transition at x/c =  1.0000   78
 Side 2  free  transition at x/c =  0.0214   11

   7   rms: 0.2948E+00   max: 0.9363E+00   D at   11  2
       a = -4.000      CL = -0.4729
      Cm =  0.0011     CD =  0.02107   =>   CDf =  0.00926    CDp =  0.01180

 MRCHDU: Convergence failed at  12  side 2    Res =  0.2785E+02
 MRCHDU: Convergence failed at  13  side 2    Res =  0.7578E+02
 MRCHDU: Convergence failed at  14  side 2    Res =  0.1719E+03
 MRCHDU: Convergence failed at  15  side 2    Res =  0.5557E+02
 MRCHDU: Convergence failed at  16  side 2    Res =  0.5220E+03
 MRCHDU: Convergence failed at  17  side 2    Res =  0.2491E+04
 MRCHDU: Convergence failed at  18  side 2    Res =  0.1145E+03
 MRCHDU: Convergence failed at  19  side 2    Res =  0.2489E+03
 MRCHDU: Convergence failed at  20  side 2    Res =  0.2427E+03
 MRCHDU: Convergence failed at  21  side 2    Res =  0.1533E+03
 MRCHDU: Convergence failed at  22  side 2    Res =  0.7439E+02
 MRCHDU: Convergence failed at  23  side 2    Res =  0.7943E+02
 MRCHDU: Convergence failed at  24  side 2    Res =  0.8606E+02
 MRCHDU: Convergence failed at  25  side 2    Res =  0.9407E+02
 MRCHDU: Convergence failed at  26  side 2    Res =  0.1037E+03
 MRCHDU: Convergence failed at  27  side 2    Res =  0.1140E+03
 MRCHDU: Convergence failed at  28  side 2    Res =  0.1239E+03
 MRCHDU: Convergence failed at  29  side 2    Res =  0.1316E+03
 MRCHDU: Convergence failed at  30  side 2    Res =  0.1360E+03
 MRCHDU: Convergence failed at  31  side 2    Res =  0.1395E+03
 MRCHDU: Convergence failed at  32  side 2    Res =  0.1328E+04
 MRCHDU: Convergence failed at  33  side 2    Res =  0.1576E+04
 MRCHDU: Convergence failed at  34  side 2    Res =  0.5766E+02
 MRCHDU: Convergence failed at  35  side 2    Res =  0.5946E+02
 MRCHDU: Convergence failed at  36  side 2    Res =  0.1061E+03
 MRCHDU: Convergence failed at  37  side 2    Res =  0.9823E+02
 MRCHDU: Convergence failed at  38  side 2    Res =  0.9665E+02
 MRCHDU: Convergence failed at  39  side 2    Res =  0.5717E+02
 MRCHDU: Convergence failed at  40  side 2    Res =  0.5823E+02
 MRCHDU: Convergence failed at  41  side 2    Res =  0.5928E+02
 MRCHDU: Convergence failed at  42  side 2    Res =  0.6034E+02
 MRCHDU: Convergence failed at  43  side 2    Res =  0.6391E+02
 MRCHDU: Convergence failed at  44  side 2    Res =  0.6500E+02
 MRCHDU: Convergence failed at  45  side 2    Res =  0.6618E+02
 MRCHDU: Convergence failed at  46  side 2    Res =  0.6722E+02
 MRCHDU: Convergence failed at  47  side 2    Res =  0.6840E+02
 MRCHDU: Convergence failed at  48  side 2    Res =  0.6951E+02
 MRCHDU: Convergence failed at  49  side 2    Res =  0.7066E+02
 MRCHDU: Convergence failed at  50  side 2    Res =  0.7170E+02
 MRCHDU: Convergence failed at  51  side 2    Res =  0.1798E+03
 MRCHDU: Convergence failed at  52  side 2    Res =  0.1739E+03
 MRCHDU: Convergence failed at  53  side 2    Res =  0.9181E+02
 MRCHDU: Convergence failed at  54  side 2    Res =  0.9010E+02
 MRCHDU: Convergence failed at  55  side 2    Res =  0.5863E+02
 MRCHDU: Convergence failed at  56  side 2    Res =  0.7801E+02
 MRCHDU: Convergence failed at  57  side 2    Res =  0.7950E+02
 MRCHDU: Convergence failed at  58  side 2    Res =  0.6176E+02
 MRCHDU: Convergence failed at  59  side 2    Res =  0.6267E+02
 MRCHDU: Convergence failed at  60  side 2    Res =  0.6354E+02
 MRCHDU: Convergence failed at  61  side 2    Res =  0.6451E+02
 MRCHDU: Convergence failed at  62  side 2    Res =  0.6547E+02
 MRCHDU: Convergence failed at  63  side 2    Res =  0.6653E+02
 MRCHDU: Convergence failed at  64  side 2    Res =  0.6752E+02
 MRCHDU: Convergence failed at  65  side 2    Res =  0.6546E+02
 MRCHDU: Convergence failed at  66  side 2    Res =  0.6657E+02
 MRCHDU: Convergence failed at  67  side 2    Res =  0.6766E+02
 MRCHDU: Convergence failed at  68  side 2    Res =  0.6890E+02
 MRCHDU: Convergence failed at  69  side 2    Res =  0.7026E+02
 MRCHDU: Convergence failed at  70  side 2    Res =  0.7178E+02
 MRCHDU: Convergence failed at  71  side 2    Res =  0.7358E+02
 MRCHDU: Convergence failed at  72  side 2    Res =  0.7618E+02
 MRCHDU: Convergence failed at  73  side 2    Res =  0.7828E+02
 MRCHDU: Convergence failed at  74  side 2    Res =  0.8048E+02
 MRCHDU: Convergence failed at  75  side 2    Res =  0.8309E+02
 MRCHDU: Convergence failed at  76  side 2    Res =  0.8599E+02
 MRCHDU: Convergence failed at  77  side 2    Res =  0.7940E+02
 MRCHDU: Convergence failed at  78  side 2    Res =  0.8377E+02
 MRCHDU: Convergence failed at  79  side 2    Res =  0.8963E+02
 MRCHDU: Convergence failed at  80  side 2    Res =  0.9656E+02
 MRCHDU: Convergence failed at  81  side 2    Res =  0.1730E+03
 MRCHDU: Convergence failed at  82  side 2    Res =  0.1409E+04
 MRCHDU: Convergence failed at  83  side 2    Res =  0.4819E+03
 MRCHDU: Convergence failed at  84  side 2    Res =  0.8260E+03
 Side 1 forced transition at x/c =  1.0000   78
 Side 2  free  transition at x/c =  0.0301   11

   8   rms: 0.1333E+01   max: -.9331E+01   T at   11  2   RLX: 0.054
       a = -4.000      CL = -2.3626
      Cm =  0.5671     CD =  0.00631   =>   CDf =  0.00198    CDp =  0.00433

 Side 1 forced transition at x/c =  1.0000   78
 Side 2  free  transition at x/c =  0.0288   11

   9   rms: 0.1352E+01   max: -.5901E+01   D at   65  1   RLX: 0.085
       a = -4.000      CL = -1.6763
      Cm =  0.3579     CD =  0.06372   =>   CDf =  0.00269    CDp =  0.06103

 Side 1 forced transition at x/c =  1.0000   78
 Side 2  free  transition at x/c =  0.0280   11

  10   rms: 0.1048E+01   max: -.4824E+01   D at   77  1   RLX: 0.104
       a = -4.000      CL = -1.4966
      Cm =  0.3056     CD =  0.06965   =>   CDf =  0.00304    CDp =  0.06661

 Side 1 forced transition at x/c =  1.0000   78
 Side 2  free  transition at x/c =  0.0263   11

  11   rms: 0.7947E+00   max: 0.3093E+01   T at   11  2   RLX: 0.228
       a = -4.000      CL = -1.1805
      Cm =  0.2196     CD =  0.06840   =>   CDf =  0.00338    CDp =  0.06503

 MRCHDU: Convergence failed at  98  side 2    Res =  0.9677E+00
 MRCHDU: Convergence failed at  99  side 2    Res =  0.2301E+01
 MRCHDU: Convergence failed at 100  side 2    Res =  0.5032E+01
 Side 1 forced transition at x/c =  1.0000   78
 Side 2  free  transition at x/c =  0.0230   11

  12   rms: 0.6570E+00   max: 0.1896E+01   T at   11  2   RLX: 0.302
       a = -4.000      CL = -0.8523
      Cm =  0.1315     CD =  0.07203   =>   CDf =  0.00379    CDp =  0.06824

 Side 1 forced transition at x/c =  1.0000   78
 Side 2  free  transition at x/c =  0.0204   11

  13   rms: 0.1274E+01   max: -.1157E+02   T at   11  2   RLX: 0.043
       a = -4.000      CL = -0.7799
      Cm =  0.1149     CD =  0.15826   =>   CDf =  0.00398    CDp =  0.15428

 Side 1 forced transition at x/c =  1.0000   78
 Side 2  free  transition at x/c =  0.0216   11

  14   rms: 0.5535E+00   max: 0.1685E+01   T at   11  2   RLX: 0.318
       a = -4.000      CL = -0.6005
      Cm =  0.0677     CD =  0.08343   =>   CDf =  0.00401    CDp =  0.07942

 Side 1 forced transition at x/c =  1.0000   78
 Side 2  free  transition at x/c =  0.0199   11

  15   rms: 0.4941E+00   max: -.1774E+01   T at   11  2   RLX: 0.282
       a = -4.000      CL = -0.4451
      Cm =  0.0300     CD =  0.10918   =>   CDf =  0.00430    CDp =  0.10487

 Side 1 forced transition at x/c =  1.0000   79
 Side 2  free  transition at x/c =  0.0205   10
 idif Ue xi dudx           1  0.40297127      3.97849083E-03   101.28747    
 Uenew xinew           2  4.43975963E-02  4.38332558E-04

  16   rms: 0.4618E+00   max: 0.1736E+01   T at   10  2   RLX: 0.398
       a = -4.000      CL = -0.3865
      Cm =  0.0040     CD =  0.09665   =>   CDf =  0.00401    CDp =  0.09264

 MRCHDU: Convergence failed at 103  side 2    Res =  0.2677E+01
 MRCHDU: Convergence failed at 104  side 2    Res =  0.3632E+01
 Side 1 forced transition at x/c =  1.0000   78
 Side 2  free  transition at x/c =  0.0196   10

  17   rms: 0.5277E+00   max: -.2283E+01   D at  104  2   RLX: 0.219
       a = -4.000      CL = -0.3731
      Cm = -0.0149     CD =  0.11163   =>   CDf =  0.00412    CDp =  0.10751

 Side 1 forced transition at x/c =  1.0000   78
 Side 2  free  transition at x/c =  0.0197   11

  18   rms: 0.5287E+00   max: 0.2186E+01   D at  106  2   RLX: 0.478
       a = -4.000      CL = -0.1914
      Cm = -0.0552     CD =  0.04645   =>   CDf =  0.00410    CDp =  0.04235

 Side 1 forced transition at x/c =  1.0000   78
 Side 2  free  transition at x/c =  0.0196   10

  19   rms: 0.4730E+00   max: -.2119E+01   D at  101  2   RLX: 0.236
       a = -4.000      CL = -0.1416
      Cm = -0.0734     CD =  0.02612   =>   CDf =  0.00526    CDp =  0.02086

 Side 1 forced transition at x/c =  1.0000   78
 Side 2  free  transition at x/c =  0.0195   10

  20   rms: 0.3902E+00   max: -.1697E+01   D at  103  2   RLX: 0.295
       a = -4.000      CL = -0.1611
      Cm = -0.0674     CD =  0.01775   =>   CDf =  0.00543    CDp =  0.01231

 Side 1 forced transition at x/c =  1.0000   78
 Side 2  free  transition at x/c =  0.0196   10

  21   rms: 0.4333E+00   max: 0.2353E+01   C at   78  1   RLX: 0.403
       a = -4.000      CL = -0.2223
      Cm = -0.0609     CD =  0.01296   =>   CDf =  0.00553    CDp =  0.00743

 Side 1 forced transition at x/c =  1.0000   78
 Side 2  free  transition at x/c =  0.0209   11

  22   rms: 0.3423E+00   max: 0.1602E+01   D at   77  1   RLX: 0.499
       a = -4.000      CL = -0.3073
      Cm = -0.0431     CD =  0.00878   =>   CDf =  0.00661    CDp =  0.00217

 Side 1 forced transition at x/c =  1.0000   78
 Side 2  free  transition at x/c =  0.0230   11

  23   rms: 0.6088E+00   max: 0.2893E+01   D at   12  2   RLX: 0.353
       a = -4.000      CL = -0.4132
      Cm = -0.0242     CD =  0.01535   =>   CDf =  0.00664    CDp =  0.00871

 Side 1 forced transition at x/c =  1.0000   78
 Side 2  free  transition at x/c =  0.0345   12

  24   rms: 0.6474E+00   max: -.4266E+01   T at   12  2   RLX: 0.117
       a = -4.000      CL = -0.4243
      Cm = -0.0238     CD =  0.01579   =>   CDf =  0.00628    CDp =  0.00951

 Side 1 forced transition at x/c =  1.0000   78
 Side 2  free  transition at x/c =  0.0405   12

  25   rms: 0.1292E+00   max: -.9039E+00   T at   12  2   RLX: 0.553
       a = -4.000      CL = -0.4433
      Cm = -0.0119     CD =  0.01838   =>   CDf =  0.00572    CDp =  0.01266

 MRCHDU: Convergence failed at  15  side 2    Res =  0.1575E+03
 MRCHDU: Convergence failed at  16  side 2    Res =  0.1076E+03
 MRCHDU: Convergence failed at  17  side 2    Res =  0.6910E+02
 MRCHDU: Convergence failed at  18  side 2    Res =  0.6325E+02
 MRCHDU: Convergence failed at  19  side 2    Res =  0.1029E+04
 MRCHDU: Convergence failed at  20  side 2    Res =  0.3729E+03
 MRCHDU: Convergence failed at  21  side 2    Res =  0.1591E+03
 MRCHDU: Convergence failed at  22  side 2    Res =  0.4674E+03
 MRCHDU: Convergence failed at  23  side 2    Res =  0.3639E+03
 MRCHDU: Convergence failed at  24  side 2    Res =  0.2285E+05
 MRCHDU: Convergence failed at  25  side 2    Res =  0.5352E+04
 MRCHDU: Convergence failed at  26  side 2    Res =  0.5539E+03
 MRCHDU: Convergence failed at  27  side 2    Res =  0.1678E+03
 MRCHDU: Convergence failed at  28  side 2    Res =  0.2637E+03
 MRCHDU: Convergence failed at  29  side 2    Res =  0.2507E+03
 MRCHDU: Convergence failed at  30  side 2    Res =  0.2619E+03
 MRCHDU: Convergence failed at  31  side 2    Res =  0.1697E+03
 MRCHDU: Convergence failed at  32  side 2    Res =  0.1406E+03
 MRCHDU: Convergence failed at  33  side 2    Res =  0.1239E+03
 MRCHDU: Convergence failed at  34  side 2    Res =  0.1383E+03
 MRCHDU: Convergence failed at  35  side 2    Res =  0.7529E+03
 MRCHDU: Convergence failed at  36  side 2    Res =  0.1243E+03
 MRCHDU: Convergence failed at  37  side 2    Res =  0.1264E+03
 MRCHDU: Convergence failed at  38  side 2    Res =  0.1292E+03
 MRCHDU: Convergence failed at  39  side 2    Res =  0.1316E+03
 MRCHDU: Convergence failed at  40  side 2    Res =  0.1345E+03
 MRCHDU: Convergence failed at  41  side 2    Res =  0.1375E+03
 MRCHDU: Convergence failed at  42  side 2    Res =  0.1408E+03
 MRCHDU: Convergence failed at  43  side 2    Res =  0.1441E+03
 MRCHDU: Convergence failed at  44  side 2    Res =  0.1474E+03
 MRCHDU: Convergence failed at  45  side 2    Res =  0.1505E+03
 MRCHDU: Convergence failed at  46  side 2    Res =  0.1534E+03
 MRCHDU: Convergence failed at  47  side 2    Res =  0.1761E+03
 MRCHDU: Convergence failed at  48  side 2    Res =  0.1811E+03
 MRCHDU: Convergence failed at  49  side 2    Res =  0.1855E+03
 MRCHDU: Convergence failed at  50  side 2    Res =  0.1898E+03
 MRCHDU: Convergence failed at  51  side 2    Res =  0.1939E+03
 MRCHDU: Convergence failed at  52  side 2    Res =  0.1977E+03
 MRCHDU: Convergence failed at  53  side 2    Res =  0.2014E+03
 MRCHDU: Convergence failed at  54  side 2    Res =  0.2045E+03
 MRCHDU: Convergence failed at  55  side 2    Res =  0.2070E+03
 MRCHDU: Convergence failed at  56  side 2    Res =  0.2093E+03
 MRCHDU: Convergence failed at  57  side 2    Res =  0.2113E+03
 MRCHDU: Convergence failed at  58  side 2    Res =  0.2131E+03
 MRCHDU: Convergence failed at  59  side 2    Res =  0.2150E+03
 MRCHDU: Convergence failed at  60  side 2    Res =  0.1001E+05
 MRCHDU: Convergence failed at  61  side 2    Res =  0.7616E+04
 MRCHDU: Convergence failed at  62  side 2    Res =  0.6271E+04
 MRCHDU: Convergence failed at  63  side 2    Res =  0.5336E+04
 MRCHDU: Convergence failed at  64  side 2    Res =  0.4876E+04
 MRCHDU: Convergence failed at  65  side 2    Res =  0.4769E+04
 MRCHDU: Convergence failed at  66  side 2    Res =  0.8357E+03
 MRCHDU: Convergence failed at  67  side 2    Res =  0.8115E+03
 MRCHDU: Convergence failed at  68  side 2    Res =  0.1291E+03
 MRCHDU: Convergence failed at  69  side 2    Res =  0.1305E+03
 MRCHDU: Convergence failed at  70  side 2    Res =  0.1323E+03
 MRCHDU: Convergence failed at  71  side 2    Res =  0.1346E+03
 MRCHDU: Convergence failed at  72  side 2    Res =  0.1149E+03
 MRCHDU: Convergence failed at  73  side 2    Res =  0.1170E+03
 MRCHDU: Convergence failed at  74  side 2    Res =  0.1189E+03
 MRCHDU: Convergence failed at  75  side 2    Res =  0.1208E+03
 MRCHDU: Convergence failed at  76  side 2    Res =  0.1223E+03
 MRCHDU: Convergence failed at  77  side 2    Res =  0.1232E+03
 MRCHDU: Convergence failed at  78  side 2    Res =  0.2988E+03
 MRCHDU: Convergence failed at  79  side 2    Res =  0.3106E+03
 MRCHDU: Convergence failed at  80  side 2    Res =  0.3271E+03
 MRCHDU: Convergence failed at  81  side 2    Res =  0.2055E+03
 MRCHDU: Convergence failed at  82  side 2    Res =  0.5819E+03
 MRCHDU: Convergence failed at  83  side 2    Res =  0.4952E+03
 MRCHDU: Convergence failed at  84  side 2    Res =  0.1479E+05
 Side 1 forced transition at x/c =  1.0000   78
 Side 2  free  transition at x/c =  0.0686   14

  26   rms: 0.1296E+01   max: -.1034E+02   T at   14  2   RLX: 0.048
       a = -4.000      CL = -1.8326
      Cm =  0.4372     CD =  0.00264   =>   CDf =  0.00191    CDp =  0.00073

 Side 1 forced transition at x/c =  1.0000   78
 Side 2  free  transition at x/c =  0.0547   13

  27   rms: 0.2539E+01   max: 0.3836E+02   T at   14  2   RLX: 0.036
       a = -4.000      CL = -1.4689
      Cm =  0.3141     CD =  0.03119   =>   CDf =  0.00251    CDp =  0.02869

 Side 1 forced transition at x/c =  1.0000   78
 Side 2  free  transition at x/c =  0.0469   13

  28   rms: 0.1425E+01   max: -.6289E+01   D at   67  1   RLX: 0.080
       a = -4.000      CL = -1.4234
      Cm =  0.2953     CD =  0.02307   =>   CDf =  0.00266    CDp =  0.02041

 Side 1 forced transition at x/c =  1.0000   78
 Side 2  free  transition at x/c =  0.0414   12

  29   rms: 0.1942E+01   max: 0.1687E+02   T at   13  2   RLX: 0.069
       a = -4.000      CL = -1.3305
      Cm =  0.2600     CD =  0.02662   =>   CDf =  0.00307    CDp =  0.02355

 Side 1 forced transition at x/c =  1.0000   78
 Side 2  free  transition at x/c =  0.0376   12

  30   rms: 0.7478E+00   max: -.2294E+01   D at   77  1   RLX: 0.218
       a = -4.000      CL = -1.1324
      Cm =  0.1980     CD =  0.01616   =>   CDf =  0.00327    CDp =  0.01289

 MRCHDU: Convergence failed at  99  side 2    Res =  0.1298E+01
 Side 1 forced transition at x/c =  1.0000   78
 Side 2  free  transition at x/c =  0.0319   12

  31   rms: 0.6038E+01   max: -.8062E+02   T at   12  2   RLX: 0.006
       a = -4.000      CL = -1.1541
      Cm =  0.2068     CD =  0.03539   =>   CDf =  0.00369    CDp =  0.03170

 Side 1 forced transition at x/c =  1.0000   78
 Side 2  free  transition at x/c =  0.0322   12

  32   rms: 0.7569E+00   max: 0.6825E+01   T at   12  2   RLX: 0.220
       a = -4.000      CL = -0.9454
      Cm =  0.1545     CD =  0.01257   =>   CDf =  0.00370    CDp =  0.00886

 Side 1 forced transition at x/c =  1.0000   78
 Side 2  free  transition at x/c =  0.0267   11

  33   rms: 0.6028E+00   max: 0.4217E+01   T at   11  2   RLX: 0.272
       a = -4.000      CL = -0.6460
      Cm =  0.0722     CD =  0.00759   =>   CDf =  0.00384    CDp =  0.00375

 Side 1 forced transition at x/c =  1.0000   78
 Side 2  free  transition at x/c =  0.0224   11

  34   rms: 0.4923E+00   max: -.1368E+01   T at  106  2   RLX: 0.366
       a = -4.000      CL = -0.4878
      Cm =  0.0266     CD =  0.00298   =>   CDf =  0.00382    CDp = -0.00084

 Side 1 forced transition at x/c =  1.0000   78
 Side 2  free  transition at x/c =  0.0204   11

  35   rms: 0.4252E+00   max: -.2068E+01   T at   11  2   RLX: 0.242
       a = -4.000      CL = -0.4195
      Cm = -0.0005     CD =  0.00259   =>   CDf =  0.00383    CDp = -0.00123

 Side 1 forced transition at x/c =  1.0000   78
 Side 2  free  transition at x/c =  0.0220   11

  36   rms: 0.4247E+00   max: 0.1732E+01   T at   85  2   RLX: 0.361
       a = -4.000      CL = -0.4093
      Cm = -0.0136     CD =  0.00068   =>   CDf =  0.00384    CDp = -0.00316

 Side 1 forced transition at x/c =  1.0000   78
 Side 2  free  transition at x/c =  0.0239   11

  37   rms: 0.4977E+00   max: -.2303E+01   D at  102  2   RLX: 0.217
       a = -4.000      CL = -0.3822
      Cm = -0.0345     CD =  0.00029   =>   CDf =  0.00379    CDp = -0.00350

 Side 1 forced transition at x/c =  1.0000   78
 Side 2  free  transition at x/c =  0.0276   11

  38   rms: 0.8171E+00   max: -.2777E+01   D at  101  2   RLX: 0.163
       a = -4.000      CL = -0.3924
      Cm = -0.0464     CD =  0.00010   =>   CDf =  0.00377    CDp = -0.00367

 Side 1 forced transition at x/c =  1.0000   78
 Side 2  free  transition at x/c =  0.0316   12

  39   rms: 0.4953E+00   max: -.2988E+01   T at   12  2   RLX: 0.167
       a = -4.000      CL = -0.3172
      Cm = -0.0667     CD =  0.00012   =>   CDf =  0.00450    CDp = -0.00437

 Side 1 forced transition at x/c =  1.0000   78
 Side 2  free  transition at x/c =  0.0334   12

  40   rms: 0.4440E+00   max: -.4290E+01   T at   12  2   RLX: 0.117
       a = -4.000      CL = -0.3349
      Cm = -0.0599     CD =  0.00021   =>   CDf =  0.00403    CDp = -0.00382

 Side 1 forced transition at x/c =  1.0000   78
 Side 2  free  transition at x/c =  0.0385   12

  41   rms: 0.1203E+01   max: -.2404E+02   T at   12  2   RLX: 0.021
       a = -4.000      CL = -0.3437
      Cm = -0.0565     CD =  0.00030   =>   CDf =  0.00387    CDp = -0.00357

 Side 1 forced transition at x/c =  1.0000   78
 Side 2  free  transition at x/c =  0.0352   12

  42   rms: 0.4933E+00   max: -.1853E+01   D at  103  2   RLX: 0.270
       a = -4.000      CL = -0.3806
      Cm = -0.0543     CD =  0.00024   =>   CDf =  0.00376    CDp = -0.00353

 Side 1 forced transition at x/c =  1.0000   78
 Side 2  free  transition at x/c =  0.0366   12

  43   rms: 0.5266E+00   max: -.1855E+01   D at  103  2   RLX: 0.270
       a = -4.000      CL = -0.4138
      Cm = -0.0608     CD =  0.00029   =>   CDf =  0.00377    CDp = -0.00348

 Side 1 forced transition at x/c =  1.0000   78
 Side 2  free  transition at x/c =  0.0378   12

  44   rms: 0.4611E+00   max: 0.1827E+01   D at   77  1   RLX: 0.320
       a = -4.000      CL = -0.4816
      Cm = -0.0488     CD =  0.00049   =>   CDf =  0.00373    CDp = -0.00325

 Side 1 forced transition at x/c =  1.0000   78
 Side 2  free  transition at x/c =  0.0392   12

  45   rms: 0.4071E+00   max: 0.1918E+01   D at   77  1   RLX: 0.371
       a = -4.000      CL = -0.5586
      Cm = -0.0317     CD =  0.00113   =>   CDf =  0.00371    CDp = -0.00258

 Side 1 forced transition at x/c =  1.0000   78
 Side 2  free  transition at x/c =  0.0404   12

  46   rms: 0.3233E+00   max: -.1179E+01   D at   70  2   RLX: 0.424
       a = -4.000      CL = -0.6212
      Cm = -0.0126     CD =  0.00420   =>   CDf =  0.00370    CDp =  0.00050

 Side 1 forced transition at x/c =  1.0000   78
 Side 2  free  transition at x/c =  0.0416   12

  47   rms: 0.2729E+00   max: -.1033E+01   D at   77  2   RLX: 0.484
       a = -4.000      CL = -0.6930
      Cm =  0.0124     CD =  0.01828   =>   CDf =  0.00368    CDp =  0.01460

 Side 1 forced transition at x/c =  1.0000   78
 Side 2  free  transition at x/c =  0.0423   12

  48   rms: 0.1765E+00   max: -.8469E+00   D at   80  2   RLX: 0.590
       a = -4.000      CL = -0.6689
      Cm =  0.0213     CD =  0.02809   =>   CDf =  0.00403    CDp =  0.02406

 Side 1 forced transition at x/c =  1.0000   78
 Side 2  free  transition at x/c =  0.0428   12

  49   rms: 0.1374E+00   max: -.6710E+00   D at   79  2   RLX: 0.745
       a = -4.000      CL = -0.5659
      Cm =  0.0134     CD =  0.02584   =>   CDf =  0.00469    CDp =  0.02115

 Side 1 forced transition at x/c =  1.0000   78
 Side 2  free  transition at x/c =  0.0432   13

  50   rms: 0.2403E+03   max: 0.6085E+03   D at   23  2   RLX: 0.001
       a = -4.000      CL = -0.5477
      Cm =  0.0118     CD =  0.02404   =>   CDf =  0.00584    CDp =  0.01820

 Side 1 forced transition at x/c =  1.0000   78
 Side 2  free  transition at x/c =  0.0424   12

  51   rms: 0.4287E+00   max: 0.2056E+01   D at   15  2   RLX: 0.729
       a = -4.000      CL = -0.4846
      Cm =  0.0031     CD =  0.01507   =>   CDf =  0.00734    CDp =  0.00773

 MRCHDU: Convergence failed at  15  side 2    Res =  0.1780E+01
 MRCHDU: Convergence failed at  16  side 2    Res =  0.3856E+01
 MRCHDU: Convergence failed at  17  side 2    Res =  0.2159E+01
 MRCHDU: Convergence failed at  18  side 2    Res =  0.1977E+01
 MRCHDU: Convergence failed at  19  side 2    Res =  0.2037E+01
 MRCHDU: Convergence failed at  20  side 2    Res =  0.2129E+01
 MRCHDU: Convergence failed at  21  side 2    Res =  0.2528E+01
 MRCHDU: Convergence failed at  22  side 2    Res =  0.2949E+01
 MRCHDU: Convergence failed at  23  side 2    Res =  0.3383E+01
 MRCHDU: Convergence failed at  24  side 2    Res =  0.3807E+01
 MRCHDU: Convergence failed at  25  side 2    Res =  0.4208E+01
 MRCHDU: Convergence failed at  26  side 2    Res =  0.4577E+01
 MRCHDU: Convergence failed at  27  side 2    Res =  0.4913E+01
 MRCHDU: Convergence failed at  28  side 2    Res =  0.5208E+01
 MRCHDU: Convergence failed at  29  side 2    Res =  0.6202E+01
 MRCHDU: Convergence failed at  30  side 2    Res =  0.6538E+01
 MRCHDU: Convergence failed at  31  side 2    Res =  0.6820E+01
 MRCHDU: Convergence failed at  32  side 2    Res =  0.5987E+01
 MRCHDU: Convergence failed at  33  side 2    Res =  0.6097E+01
 MRCHDU: Convergence failed at  34  side 2    Res =  0.6195E+01
 MRCHDU: Convergence failed at  35  side 2    Res =  0.6268E+01
 MRCHDU: Convergence failed at  36  side 2    Res =  0.6313E+01
 MRCHDU: Convergence failed at  37  side 2    Res =  0.6357E+01
 MRCHDU: Convergence failed at  38  side 2    Res =  0.6386E+01
 MRCHDU: Convergence failed at  39  side 2    Res =  0.5708E+01
 MRCHDU: Convergence failed at  40  side 2    Res =  0.5720E+01
 MRCHDU: Convergence failed at  41  side 2    Res =  0.5730E+01
 MRCHDU: Convergence failed at  42  side 2    Res =  0.5729E+01
 MRCHDU: Convergence failed at  43  side 2    Res =  0.5733E+01
 MRCHDU: Convergence failed at  44  side 2    Res =  0.5726E+01
 MRCHDU: Convergence failed at  45  side 2    Res =  0.5005E+01
 MRCHDU: Convergence failed at  46  side 2    Res =  0.4994E+01
 MRCHDU: Convergence failed at  47  side 2    Res =  0.4981E+01
 MRCHDU: Convergence failed at  48  side 2    Res =  0.4965E+01
 MRCHDU: Convergence failed at  49  side 2    Res =  0.4340E+01
 MRCHDU: Convergence failed at  50  side 2    Res =  0.8257E+01
 MRCHDU: Convergence failed at  51  side 2    Res =  0.8370E+01
 MRCHDU: Convergence failed at  52  side 2    Res =  0.8467E+01
 MRCHDU: Convergence failed at  53  side 2    Res =  0.8581E+01
 MRCHDU: Convergence failed at  54  side 2    Res =  0.8687E+01
 MRCHDU: Convergence failed at  55  side 2    Res =  0.8793E+01
 MRCHDU: Convergence failed at  56  side 2    Res =  0.9384E+01
 MRCHDU: Convergence failed at  57  side 2    Res =  0.9476E+01
 MRCHDU: Convergence failed at  58  side 2    Res =  0.9713E+01
 MRCHDU: Convergence failed at  59  side 2    Res =  0.9856E+01
 MRCHDU: Convergence failed at  60  side 2    Res =  0.1105E+02
 MRCHDU: Convergence failed at  61  side 2    Res =  0.1206E+02
 MRCHDU: Convergence failed at  62  side 2    Res =  0.1228E+02
 MRCHDU: Convergence failed at  63  side 2    Res =  0.1255E+02
 MRCHDU: Convergence failed at  64  side 2    Res =  0.1285E+02
 MRCHDU: Convergence failed at  65  side 2    Res =  0.1398E+02
 MRCHDU: Convergence failed at  66  side 2    Res =  0.1468E+02
 MRCHDU: Convergence failed at  67  side 2    Res =  0.1500E+02
 MRCHDU: Convergence failed at  68  side 2    Res =  0.1537E+02
 MRCHDU: Convergence failed at  69  side 2    Res =  0.1669E+02
 MRCHDU: Convergence failed at  70  side 2    Res =  0.1747E+02
 MRCHDU: Convergence failed at  71  side 2    Res =  0.1938E+02
 MRCHDU: Convergence failed at  72  side 2    Res =  0.2090E+02
 MRCHDU: Convergence failed at  73  side 2    Res =  0.1671E+02
 MRCHDU: Convergence failed at  74  side 2    Res =  0.1692E+02
 MRCHDU: Convergence failed at  75  side 2    Res =  0.1844E+02
 MRCHDU: Convergence failed at  76  side 2    Res =  0.1709E+02
 MRCHDU: Convergence failed at  77  side 2    Res =  0.1357E+02
 MRCHDU: Convergence failed at  78  side 2    Res =  0.1380E+02
 MRCHDU: Convergence failed at  79  side 2    Res =  0.2116E+02
 MRCHDU: Convergence failed at  80  side 2    Res =  0.2472E+02
 MRCHDU: Convergence failed at  81  side 2    Res =  0.3765E+02
 MRCHDU: Convergence failed at  82  side 2    Res =  0.9477E+02
 MRCHDU: Convergence failed at  83  side 2    Res =  0.3259E+02
 MRCHDU: Convergence failed at  84  side 2    Res =  0.2919E+02
 Side 1 forced transition at x/c =  1.0000   78
 Side 2  free  transition at x/c =  0.0428   12

  52   rms: 0.6126E+00   max: 0.9902E+00   D at   89  2   RLX: 0.683
       a = -4.000      CL = -0.6305
      Cm =  0.0763     CD =  0.00537   =>   CDf =  0.00261    CDp =  0.00277

 MRCHDU: Convergence failed at  88  side 2    Res =  0.1537E+01
 MRCHDU: Convergence failed at  89  side 2    Res =  0.3127E+02
 MRCHDU: Convergence failed at  90  side 2    Res =  0.3072E+01
 MRCHDU: Convergence failed at  91  side 2    Res =  0.1384E+01
 Side 1 forced transition at x/c =  1.0000   78
 Side 2  free  transition at x/c =  0.0368   12

  53   rms: 0.8640E+00   max: -.1805E+02   T at   12  2   RLX: 0.028
       a = -4.000      CL = -0.6168
      Cm =  0.0699     CD =  0.00607   =>   CDf =  0.00863    CDp = -0.00256

 Side 1 forced transition at x/c =  1.0000   78
 Side 2  free  transition at x/c =  0.0349   12

  54   rms: 0.2797E+00   max: -.1272E+01   T at   12  2   RLX: 0.393
       a = -4.000      CL = -0.5672
      Cm =  0.0415     CD =  0.00967   =>   CDf =  0.00800    CDp =  0.00168

 Side 1 forced transition at x/c =  1.0000   78
 Side 2  free  transition at x/c =  0.0363   12

  55   rms: 0.1470E+00   max: -.8225E+00   D at   12  2   RLX: 0.608
       a = -4.000      CL = -0.5049
      Cm =  0.0143     CD =  0.01562   =>   CDf =  0.00637    CDp =  0.00925

 Side 1 forced transition at x/c =  1.0000   78
 Side 2  free  transition at x/c =  0.0409   12

  56   rms: 0.6922E-01   max: -.6099E+00   D at   12  2   RLX: 0.820
       a = -4.000      CL = -0.4551
      Cm =  0.0001     CD =  0.02069   =>   CDf =  0.00541    CDp =  0.01529

 TRCHEK2: N2 convergence failed.
 x:  0.12238  0.13272  0.13572  N:  8.810  9.000  9.039  Nx:  25.157   dN:-0.540E+00
 MRCHDU: Convergence failed at  19  side 2    Res =  0.5660E+02
 MRCHDU: Convergence failed at  20  side 2    Res =  0.7173E+02
 MRCHDU: Convergence failed at  21  side 2    Res =  0.3254E+03
 MRCHDU: Convergence failed at  22  side 2    Res =  0.1989E+03
 MRCHDU: Convergence failed at  23  side 2    Res =  0.3057E+03
 MRCHDU: Convergence failed at  24  side 2    Res =  0.8140E+03
 MRCHDU: Convergence failed at  25  side 2    Res =  0.1239E+04
 MRCHDU: Convergence failed at  26  side 2    Res =  0.1446E+04
 MRCHDU: Convergence failed at  27  side 2    Res =  0.9272E+02
 MRCHDU: Convergence failed at  28  side 2    Res =  0.1012E+03
 MRCHDU: Convergence failed at  29  side 2    Res =  0.2988E+04
 MRCHDU: Convergence failed at  30  side 2    Res =  0.1441E+03
 MRCHDU: Convergence failed at  31  side 2    Res =  0.2121E+03
 MRCHDU: Convergence failed at  32  side 2    Res =  0.2045E+03
 MRCHDU: Convergence failed at  33  side 2    Res =  0.2139E+03
 MRCHDU: Convergence failed at  34  side 2    Res =  0.2252E+03
 MRCHDU: Convergence failed at  35  side 2    Res =  0.2093E+03
 MRCHDU: Convergence failed at  36  side 2    Res =  0.1255E+03
 MRCHDU: Convergence failed at  37  side 2    Res =  0.8040E+03
 MRCHDU: Convergence failed at  38  side 2    Res =  0.1033E+03
 MRCHDU: Convergence failed at  39  side 2    Res =  0.1198E+03
 MRCHDU: Convergence failed at  40  side 2    Res =  0.1008E+03
 MRCHDU: Convergence failed at  41  side 2    Res =  0.9166E+02
 MRCHDU: Convergence failed at  42  side 2    Res =  0.1183E+03
 MRCHDU: Convergence failed at  43  side 2    Res =  0.1191E+03
 MRCHDU: Convergence failed at  44  side 2    Res =  0.1201E+03
 MRCHDU: Convergence failed at  45  side 2    Res =  0.1214E+03
 MRCHDU: Convergence failed at  46  side 2    Res =  0.1226E+03
 MRCHDU: Convergence failed at  47  side 2    Res =  0.1241E+03
 MRCHDU: Convergence failed at  48  side 2    Res =  0.1257E+03
 MRCHDU: Convergence failed at  49  side 2    Res =  0.1274E+03
 MRCHDU: Convergence failed at  50  side 2    Res =  0.1291E+03
 MRCHDU: Convergence failed at  51  side 2    Res =  0.1310E+03
 MRCHDU: Convergence failed at  52  side 2    Res =  0.1328E+03
 MRCHDU: Convergence failed at  53  side 2    Res =  0.1348E+03
 MRCHDU: Convergence failed at  54  side 2    Res =  0.1370E+03
 MRCHDU: Convergence failed at  55  side 2    Res =  0.1391E+03
 MRCHDU: Convergence failed at  56  side 2    Res =  0.1415E+03
 MRCHDU: Convergence failed at  57  side 2    Res =  0.1436E+03
 MRCHDU: Convergence failed at  58  side 2    Res =  0.1459E+03
 MRCHDU: Convergence failed at  59  side 2    Res =  0.1482E+03
 MRCHDU: Convergence failed at  60  side 2    Res =  0.1506E+03
 MRCHDU: Convergence failed at  61  side 2    Res =  0.1531E+03
 MRCHDU: Convergence failed at  62  side 2    Res =  0.1557E+03
 MRCHDU: Convergence failed at  63  side 2    Res =  0.1584E+03
 MRCHDU: Convergence failed at  64  side 2    Res =  0.1612E+03
 MRCHDU: Convergence failed at  65  side 2    Res =  0.1638E+03
 MRCHDU: Convergence failed at  66  side 2    Res =  0.1668E+03
 MRCHDU: Convergence failed at  67  side 2    Res =  0.1698E+03
 MRCHDU: Convergence failed at  68  side 2    Res =  0.1733E+03
 MRCHDU: Convergence failed at  69  side 2    Res =  0.1771E+03
 MRCHDU: Convergence failed at  70  side 2    Res =  0.1815E+03
 MRCHDU: Convergence failed at  71  side 2    Res =  0.1869E+03
 MRCHDU: Convergence failed at  72  side 2    Res =  0.1931E+03
 MRCHDU: Convergence failed at  73  side 2    Res =  0.2002E+03
 MRCHDU: Convergence failed at  74  side 2    Res =  0.2080E+03
 MRCHDU: Convergence failed at  75  side 2    Res =  0.2172E+03
 MRCHDU: Convergence failed at  76  side 2    Res =  0.2280E+03
 MRCHDU: Convergence failed at  77  side 2    Res =  0.1441E+03
 MRCHDU: Convergence failed at  78  side 2    Res =  0.1193E+03
 MRCHDU: Convergence failed at  79  side 2    Res =  0.1268E+03
 MRCHDU: Convergence failed at  80  side 2    Res =  0.1353E+03
 MRCHDU: Convergence failed at  81  side 2    Res =  0.1455E+03
 MRCHDU: Convergence failed at  82  side 2    Res =  0.1617E+03
 MRCHDU: Convergence failed at  83  side 2    Res =  0.1799E+03
 MRCHDU: Convergence failed at  84  side 2    Res =  0.8587E+03
 Side 1 forced transition at x/c =  1.0000   78
 Side 2  free  transition at x/c =  0.1207   18

  57   rms: 0.1529E+01   max: -.2164E+02   T at   18  2   RLX: 0.023
       a = -4.000      CL = -1.6513
      Cm =  0.3910     CD =  0.00289   =>   CDf =  0.00193    CDp =  0.00096

 Side 1 forced transition at x/c =  1.0000   78
 Side 2  free  transition at x/c =  0.0961   17

  58   rms: 0.6871E+01   max: 0.9754E+02   T at   17  2   RLX: 0.015
       a = -4.000      CL = -1.3762
      Cm =  0.2819     CD =  0.03050   =>   CDf =  0.00240    CDp =  0.02810

 Side 1 forced transition at x/c =  1.0000   78
 Side 2  free  transition at x/c =  0.0957   17

  59   rms: 0.2786E+01   max: 0.2400E+02   T at   17  2   RLX: 0.057
       a = -4.000      CL = -1.3888
      Cm =  0.2627     CD =  0.01706   =>   CDf =  0.00240    CDp =  0.01466

 Side 1 forced transition at x/c =  1.0000   78
 Side 2  free  transition at x/c =  0.0946   16

  60   rms: 0.1323E+01   max: -.6751E+01   T at   16  2   RLX: 0.074
       a = -4.000      CL = -1.3844
      Cm =  0.2507     CD =  0.01810   =>   CDf =  0.00254    CDp =  0.01555

 Side 1 forced transition at x/c =  1.0000   78
 Side 2  free  transition at x/c =  0.0938   16

  61   rms: 0.8759E+00   max: -.4372E+01   D at   77  1   RLX: 0.114
       a = -4.000      CL = -1.2778
      Cm =  0.2109     CD =  0.01596   =>   CDf =  0.00279    CDp =  0.01318

 Side 1 forced transition at x/c =  1.0000   78
 Side 2  free  transition at x/c =  0.0928   16

  62   rms: 0.6402E+00   max: 0.1947E+01   T at   16  2   RLX: 0.300
       a = -4.000      CL = -0.9715
      Cm =  0.1220     CD =  0.00913   =>   CDf =  0.00311    CDp =  0.00602

 MRCHDU: Convergence failed at  98  side 2    Res =  0.9178E+00
 MRCHDU: Convergence failed at  99  side 2    Res =  0.1979E+01
 MRCHDU: Convergence failed at 100  side 2    Res =  0.7608E+01
 Side 1 forced transition at x/c =  1.0000   78
 Side 2  free  transition at x/c =  0.0799   15

  63   rms: 0.6556E+00   max: 0.3800E+01   T at   16  2   RLX: 0.173
       a = -4.000      CL = -0.9334
      Cm =  0.1076     CD =  0.01332   =>   CDf =  0.00350    CDp =  0.00982

 Side 1 forced transition at x/c =  1.0000   78
 Side 2  free  transition at x/c =  0.0774   15

  64   rms: 0.4998E+00   max: -.1283E+01   T at  106  2   RLX: 0.390
       a = -4.000      CL = -0.6707
      Cm =  0.0265     CD =  0.00533   =>   CDf =  0.00354    CDp =  0.00180

 Side 1 forced transition at x/c =  1.0000   78
 Side 2  free  transition at x/c =  0.0709   15

  65   rms: 0.4214E+00   max: -.2432E+01   T at   15  2   RLX: 0.206
       a = -4.000      CL = -0.6100
      Cm =  0.0139     CD =  0.00854   =>   CDf =  0.00357    CDp =  0.00497

 Side 1 forced transition at x/c =  1.0000   78
 Side 2  free  transition at x/c =  0.0720   15

  66   rms: 0.4286E+00   max: -.4151E+01   T at   15  2   RLX: 0.120
       a = -4.000      CL = -0.6139
      Cm =  0.0171     CD =  0.00984   =>   CDf =  0.00356    CDp =  0.00629

 Side 1 forced transition at x/c =  1.0000   78
 Side 2  free  transition at x/c =  0.0720   15

  67   rms: 0.4234E+00   max: -.1391E+01   D at  104  2   RLX: 0.359
       a = -4.000      CL = -0.5574
      Cm = -0.0022     CD =  0.00726   =>   CDf =  0.00355    CDp =  0.00371

 Side 1 forced transition at x/c =  1.0000   78
 Side 2  free  transition at x/c =  0.0733   15

  68   rms: 0.5177E+00   max: -.2296E+01   D at  104  2   RLX: 0.218
       a = -4.000      CL = -0.5483
      Cm = -0.0191     CD =  0.00700   =>   CDf =  0.00354    CDp =  0.00346

 Side 1 forced transition at x/c =  1.0000   78
 Side 2  free  transition at x/c =  0.0733   15

  69   rms: 0.5849E+00   max: -.2502E+01   D at  104  2   RLX: 0.200
       a = -4.000      CL = -0.5571
      Cm = -0.0326     CD =  0.00691   =>   CDf =  0.00357    CDp =  0.00334

 Side 1 forced transition at x/c =  1.0000   78
 Side 2  free  transition at x/c =  0.0727   15

  70   rms: 0.5981E+00   max: -.2124E+01   D at  105  2   RLX: 0.235
       a = -4.000      CL = -0.5742
      Cm = -0.0452     CD =  0.00909   =>   CDf =  0.00361    CDp =  0.00548

 Side 1 forced transition at x/c =  1.0000   78
 Side 2  free  transition at x/c =  0.0647   14

  71   rms: 0.5170E+00   max: 0.2263E+01   T at   14  2   RLX: 0.263
       a = -4.000      CL = -0.5905
      Cm = -0.0476     CD =  0.01467   =>   CDf =  0.00373    CDp =  0.01094

 MRCHDU: Convergence failed at  44  side 2    Res =  0.2298E+01
 MRCHDU: Convergence failed at  45  side 2    Res =  0.2598E+01
 MRCHDU: Convergence failed at  46  side 2    Res =  0.2754E+01
 MRCHDU: Convergence failed at  47  side 2    Res =  0.2020E+01
 MRCHDU: Convergence failed at  48  side 2    Res =  0.2232E+01
 MRCHDU: Convergence failed at  49  side 2    Res =  0.2612E+01
 MRCHDU: Convergence failed at  50  side 2    Res =  0.3927E+01
 MRCHDU: Convergence failed at  51  side 2    Res =  0.4687E+01
 MRCHDU: Convergence failed at  52  side 2    Res =  0.5305E+01
 MRCHDU: Convergence failed at  53  side 2    Res =  0.3239E+01
 MRCHDU: Convergence failed at  54  side 2    Res =  0.3006E+01
 MRCHDU: Convergence failed at  55  side 2    Res =  0.2176E+01
 MRCHDU: Convergence failed at  56  side 2    Res =  0.2809E+01
 MRCHDU: Convergence failed at  57  side 2    Res =  0.3151E+01
 MRCHDU: Convergence failed at  58  side 2    Res =  0.3777E+01
 MRCHDU: Convergence failed at  59  side 2    Res =  0.7443E+01
 MRCHDU: Convergence failed at  60  side 2    Res =  0.1981E+02
 MRCHDU: Convergence failed at  61  side 2    Res =  0.4243E+02
 MRCHDU: Convergence failed at  62  side 2    Res =  0.2242E+01
 MRCHDU: Convergence failed at  63  side 2    Res =  0.6483E+01
 MRCHDU: Convergence failed at  64  side 2    Res =  0.1820E+02
 MRCHDU: Convergence failed at  65  side 2    Res =  0.3959E+02
 MRCHDU: Convergence failed at  66  side 2    Res =  0.2153E+01
 MRCHDU: Convergence failed at  67  side 2    Res =  0.3021E+01
 MRCHDU: Convergence failed at  68  side 2    Res =  0.3610E+01
 MRCHDU: Convergence failed at  69  side 2    Res =  0.4863E+01
 MRCHDU: Convergence failed at  70  side 2    Res =  0.1115E+02
 MRCHDU: Convergence failed at  71  side 2    Res =  0.2683E+02
 MRCHDU: Convergence failed at  72  side 2    Res =  0.6334E+01
 MRCHDU: Convergence failed at  73  side 2    Res =  0.2982E+01
 MRCHDU: Convergence failed at  74  side 2    Res =  0.1816E+01
 MRCHDU: Convergence failed at  75  side 2    Res =  0.2192E+01
 MRCHDU: Convergence failed at  76  side 2    Res =  0.3723E+01
 MRCHDU: Convergence failed at  77  side 2    Res =  0.4533E+02
 MRCHDU: Convergence failed at  78  side 2    Res =  0.4129E+01
 MRCHDU: Convergence failed at  79  side 2    Res =  0.1694E+01
 MRCHDU: Convergence failed at  82  side 2    Res =  0.1104E+02
 MRCHDU: Convergence failed at  83  side 2    Res =  0.2836E+03
 MRCHDU: Convergence failed at  84  side 2    Res =  0.7882E+01
 Side 1 forced transition at x/c =  1.0000   78
 Side 2  free  transition at x/c =  0.0557   13

  72   rms: 0.6783E+00   max: -.3951E+01   T at   15  2   RLX: 0.127
       a = -4.000      CL = -0.8294
      Cm =  0.0742     CD =  0.01790   =>   CDf =  0.00342    CDp =  0.01448

 Side 1 forced transition at x/c =  1.0000   78
 Side 2  free  transition at x/c =  0.0550   13

  73   rms: 0.1885E+01   max: -.2612E+02   T at   15  2   RLX: 0.019
       a = -4.000      CL = -0.8198
      Cm =  0.0661     CD =  0.01598   =>   CDf =  0.00370    CDp =  0.01228

 Side 1 forced transition at x/c =  1.0000   78
 Side 2  free  transition at x/c =  0.0533   13

  74   rms: 0.4906E+00   max: 0.4473E+01   T at   14  2   RLX: 0.141
       a = -4.000      CL = -0.7708
      Cm =  0.0574     CD =  0.01827   =>   CDf =  0.00355    CDp =  0.01471

 Side 1 forced transition at x/c =  1.0000   78
 Side 2  free  transition at x/c =  0.0504   13

  75   rms: 0.4083E+00   max: -.1086E+01   T at   13  2   RLX: 0.460
       a = -4.000      CL = -0.5473
      Cm =  0.0089     CD =  0.02303   =>   CDf =  0.00347    CDp =  0.01955

 Side 1 forced transition at x/c =  1.0000   78
 Side 2  free  transition at x/c =  0.0498   13

  76   rms: 0.4189E+00   max: -.1134E+01   D at   42  2   RLX: 0.441
       a = -4.000      CL = -0.4390
      Cm = -0.0173     CD =  0.02336   =>   CDf =  0.00366    CDp =  0.01970

 Side 1 forced transition at x/c =  1.0000   78
 Side 2  free  transition at x/c =  0.0522   13

  77   rms: 0.2624E+00   max: -.7913E+00   D at   81  2   RLX: 0.632
       a = -4.000      CL = -0.4439
      Cm = -0.0103     CD =  0.02590   =>   CDf =  0.00415    CDp =  0.02175

 TRCHEK2: N2 convergence failed.
 x:  0.13506  0.13975  0.14842  N:  8.951  9.000  9.071  Nx:  22.000   dN:-0.495E+00
 TRCHEK2: N2 convergence failed.
 x:  0.13506  0.14002  0.14842  N:  8.951  9.000  9.065  Nx:  21.488   dN:-0.317E+00
 TRCHEK2: N2 convergence failed.
 x:  0.13506  0.13983  0.14842  N:  8.951  9.000  9.069  Nx:  21.674   dN:-0.432E+00
 TRCHEK2: N2 convergence failed.
 x:  0.13506  0.14807  0.14842  N:  8.951  9.000  9.004  Nx:  11.359   dN: 0.422E+00
 TRCHEK2: N2 convergence failed.
 x:  0.13506  0.13998  0.14842  N:  8.951  9.000  9.066  Nx:  27.621   dN:-0.313E+00
 TRCHEK2: N2 convergence failed.
 x:  0.13506  0.13968  0.14842  N:  8.951  9.000  9.072  Nx:  28.102   dN:-0.431E+00
 TRCHEK2: N2 convergence failed.
 x:  0.13506  0.14842  0.14842  N:  8.951  9.000  9.138  Nx:  13.504   dN: 0.138E+00
 Side 1 forced transition at x/c =  1.0000   78
 Side 2  free  transition at x/c =  0.1232   19

  78   rms: 0.6464E+00   max: -.2101E+01   D at   25  2   RLX: 0.238
       a = -4.000      CL = -0.4724
      Cm = -0.0143     CD =  0.00923   =>   CDf =  0.00686    CDp =  0.00238

 MRCHDU: Convergence failed at  20  side 2    Res =  0.6157E+01
 MRCHDU: Convergence failed at  21  side 2    Res =  0.4310E+02
 MRCHDU: Convergence failed at  22  side 2    Res =  0.2648E+02
 MRCHDU: Convergence failed at  23  side 2    Res =  0.1397E+02
 MRCHDU: Convergence failed at  24  side 2    Res =  0.5146E+01
 MRCHDU: Convergence failed at  25  side 2    Res =  0.5655E+01
 MRCHDU: Convergence failed at  26  side 2    Res =  0.5843E+01
 MRCHDU: Convergence failed at  27  side 2    Res =  0.5851E+01
 MRCHDU: Convergence failed at  28  side 2    Res =  0.9015E+02
 MRCHDU: Convergence failed at  29  side 2    Res =  0.2316E+02
 MRCHDU: Convergence failed at  30  side 2    Res =  0.2317E+02
 MRCHDU: Convergence failed at  31  side 2    Res =  0.2376E+02
 MRCHDU: Convergence failed at  32  side 2    Res =  0.2672E+02
 MRCHDU: Convergence failed at  33  side 2    Res =  0.2791E+02
 MRCHDU: Convergence failed at  34  side 2    Res =  0.3119E+02
 MRCHDU: Convergence failed at  35  side 2    Res =  0.3115E+02
 MRCHDU: Convergence failed at  36  side 2    Res =  0.3500E+02
 MRCHDU: Convergence failed at  37  side 2    Res =  0.3909E+02
 MRCHDU: Convergence failed at  38  side 2    Res =  0.2565E+02
 MRCHDU: Convergence failed at  39  side 2    Res =  0.2675E+02
 MRCHDU: Convergence failed at  40  side 2    Res =  0.2826E+02
 MRCHDU: Convergence failed at  41  side 2    Res =  0.2258E+02
 MRCHDU: Convergence failed at  42  side 2    Res =  0.2426E+02
 MRCHDU: Convergence failed at  43  side 2    Res =  0.2984E+02
 MRCHDU: Convergence failed at  44  side 2    Res =  0.3162E+02
 MRCHDU: Convergence failed at  45  side 2    Res =  0.3282E+02
 MRCHDU: Convergence failed at  46  side 2    Res =  0.1127E+03
 MRCHDU: Convergence failed at  47  side 2    Res =  0.1357E+03
 MRCHDU: Convergence failed at  48  side 2    Res =  0.3073E+02
 MRCHDU: Convergence failed at  49  side 2    Res =  0.3094E+02
 MRCHDU: Convergence failed at  50  side 2    Res =  0.1144E+03
 MRCHDU: Convergence failed at  51  side 2    Res =  0.1449E+03
 MRCHDU: Convergence failed at  52  side 2    Res =  0.1725E+03
 MRCHDU: Convergence failed at  53  side 2    Res =  0.2384E+03
 MRCHDU: Convergence failed at  54  side 2    Res =  0.3154E+03
 MRCHDU: Convergence failed at  55  side 2    Res =  0.1281E+03
 MRCHDU: Convergence failed at  56  side 2    Res =  0.1064E+03
 MRCHDU: Convergence failed at  57  side 2    Res =  0.3612E+02
 MRCHDU: Convergence failed at  58  side 2    Res =  0.3502E+02
 MRCHDU: Convergence failed at  59  side 2    Res =  0.4802E+02
 MRCHDU: Convergence failed at  60  side 2    Res =  0.4735E+02
 MRCHDU: Convergence failed at  61  side 2    Res =  0.4123E+02
 MRCHDU: Convergence failed at  62  side 2    Res =  0.4527E+02
 MRCHDU: Convergence failed at  63  side 2    Res =  0.3248E+02
 MRCHDU: Convergence failed at  64  side 2    Res =  0.2870E+02
 MRCHDU: Convergence failed at  65  side 2    Res =  0.2621E+02
 MRCHDU: Convergence failed at  66  side 2    Res =  0.3147E+02
 MRCHDU: Convergence failed at  67  side 2    Res =  0.2745E+02
 MRCHDU: Convergence failed at  68  side 2    Res =  0.3140E+02
 MRCHDU: Convergence failed at  69  side 2    Res =  0.2830E+02
 MRCHDU: Convergence failed at  70  side 2    Res =  0.3483E+02
 MRCHDU: Convergence failed at  71  side 2    Res =  0.3512E+02
 MRCHDU: Convergence failed at  72  side 2    Res =  0.3196E+02
 MRCHDU: Convergence failed at  73  side 2    Res =  0.4181E+02
 MRCHDU: Convergence failed at  74  side 2    Res =  0.7125E+02
 MRCHDU: Convergence failed at  75  side 2    Res =  0.1175E+03
 MRCHDU: Convergence failed at  76  side 2    Res =  0.1200E+03
 MRCHDU: Convergence failed at  77  side 2    Res =  0.7906E+02
 MRCHDU: Convergence failed at  78  side 2    Res =  0.5248E+02
 MRCHDU: Convergence failed at  79  side 2    Res =  0.3774E+02
 MRCHDU: Convergence failed at  80  side 2    Res =  0.8996E+02
 MRCHDU: Convergence failed at  81  side 2    Res =  0.7830E+02
 MRCHDU: Convergence failed at  82  side 2    Res =  0.2597E+02
 MRCHDU: Convergence failed at  83  side 2    Res =  0.3102E+02
 MRCHDU: Convergence failed at  84  side 2    Res =  0.3127E+02
 Side 1 forced transition at x/c =  1.0000   78
 Side 2  free  transition at x/c =  0.1294   19

  79   rms: 0.7048E+00   max: 0.2227E+01   D at   87  2   RLX: 0.237
       a = -4.000      CL = -1.1563
      Cm =  0.2387     CD =  0.00310   =>   CDf =  0.00230    CDp =  0.00081

 MRCHDU: Convergence failed at  30  side 2    Res =  0.1084E+00
 MRCHDU: Convergence failed at  31  side 2    Res =  0.7755E-01
 MRCHDU: Convergence failed at  56  side 2    Res =  0.3215E-01
 MRCHDU: Convergence failed at  57  side 2    Res =  0.5552E+01
 MRCHDU: Convergence failed at  58  side 2    Res =  0.9276E+01
 MRCHDU: Convergence failed at  59  side 2    Res =  0.3081E+01
 MRCHDU: Convergence failed at  60  side 2    Res =  0.1731E+02
 MRCHDU: Convergence failed at  61  side 2    Res =  0.1396E+02
 MRCHDU: Convergence failed at  62  side 2    Res =  0.1139E+02
 MRCHDU: Convergence failed at  63  side 2    Res =  0.1018E+02
 MRCHDU: Convergence failed at  64  side 2    Res =  0.8387E+01
 MRCHDU: Convergence failed at  65  side 2    Res =  0.6924E+01
 MRCHDU: Convergence failed at  66  side 2    Res =  0.5476E+01
 MRCHDU: Convergence failed at  67  side 2    Res =  0.3309E+01
 MRCHDU: Convergence failed at  68  side 2    Res =  0.2071E+01
 MRCHDU: Convergence failed at  69  side 2    Res =  0.3743E+01
 MRCHDU: Convergence failed at  70  side 2    Res =  0.1763E+01
 MRCHDU: Convergence failed at  71  side 2    Res =  0.4533E+01
 MRCHDU: Convergence failed at  72  side 2    Res =  0.1371E+01
 MRCHDU: Convergence failed at  73  side 2    Res =  0.1502E+01
 MRCHDU: Convergence failed at  74  side 2    Res =  0.1403E+01
 MRCHDU: Convergence failed at  75  side 2    Res =  0.9386E+00
 MRCHDU: Convergence failed at  76  side 2    Res =  0.5373E+00
 MRCHDU: Convergence failed at  78  side 2    Res =  0.6728E-01
 MRCHDU: Convergence failed at  87  side 2    Res =  0.4527E+01
 MRCHDU: Convergence failed at  88  side 2    Res =  0.1274E+01
 MRCHDU: Convergence failed at  89  side 2    Res =  0.3854E+01
 Side 1 forced transition at x/c =  1.0000   78
 Side 2  free  transition at x/c =  0.1319   19

  80   rms: 0.5624E+00   max: -.1407E+01   U at   77  2   RLX: 0.267
       a = -4.000      CL = -0.6711
      Cm =  0.0943     CD =  0.00982   =>   CDf =  0.00641    CDp =  0.00342

 MRCHDU: Convergence failed at  77  side 2    Res =  0.5234E+01
 Side 1 forced transition at x/c =  1.0000   78
 Side 2  free  transition at x/c =  0.0440   13

  81   rms: 0.3663E+00   max: 0.2225E+01   T at   13  2   RLX: 0.588
       a = -4.000      CL = -0.5573
      Cm =  0.0480     CD =  0.02832   =>   CDf =  0.00447    CDp =  0.02384

 Side 1 forced transition at x/c =  1.0000   78
 Side 2  free  transition at x/c =  0.0434   13

  82   rms: 0.5247E+00   max: 0.2271E+01   T at   13  2   RLX: 0.287
       a = -4.000      CL = -0.5001
      Cm =  0.0313     CD =  0.03171   =>   CDf =  0.00409    CDp =  0.02763

 Side 1 forced transition at x/c =  1.0000   78
 Side 2  free  transition at x/c =  0.0427   12

  83   rms: 0.4580E+00   max: 0.4793E+01   T at   12  2   RLX: 0.162
       a = -4.000      CL = -0.5432
      Cm =  0.0298     CD =  0.02094   =>   CDf =  0.00469    CDp =  0.01625

 TRCHEK2: N2 convergence failed.
 x:  0.08310  0.09231  0.09617  N:  8.861  9.000  9.044  Nx:  36.792   dN:-0.234E+00
 TRCHEK2: N2 convergence failed.
 x:  0.08310  0.09433  0.09617  N:  8.861  9.000  9.013  Nx:  27.256   dN:-0.602E-01
 TRCHEK2: N2 convergence failed.
 x:  0.08310  0.09524  0.09617  N:  8.861  9.000  9.019  Nx:  21.766   dN: 0.791E+00
 TRCHEK2: N2 convergence failed.
 x:  0.08310  0.09570  0.09617  N:  8.861  9.000  9.000  Nx:  21.823   dN:-0.774E+00
 TRCHEK2: N2 convergence failed.
 x:  0.08310  0.09524  0.09617  N:  8.861  9.000  9.003  Nx:  21.755   dN:-0.561E-01
 TRCHEK2: N2 convergence failed.
 x:  0.08310  0.09525  0.09617  N:  8.861  9.000  9.018  Nx:  21.728   dN: 0.138E+00
 TRCHEK2: N2 convergence failed.
 x:  0.08310  0.09524  0.09617  N:  8.861  9.000  9.019  Nx:  21.696   dN: 0.137E+00
 TRCHEK2: N2 convergence failed.
 x:  0.08310  0.09523  0.09617  N:  8.861  9.000  9.019  Nx:  21.741   dN: 0.347E+00
 TRCHEK2: N2 convergence failed.
 x:  0.08310  0.09572  0.09617  N:  8.861  9.000  9.000  Nx:  21.661   dN:-0.234E+00
 TRCHEK2: N2 convergence failed.
 x:  0.08310  0.09526  0.09617  N:  8.861  9.000  9.018  Nx:  21.678   dN: 0.137E+00
 TRCHEK2: N2 convergence failed.
 x:  0.08310  0.09523  0.09617  N:  8.861  9.000  9.003  Nx:  21.951   dN:-0.203E+00
 TRCHEK2: N2 convergence failed.
 x:  0.08310  0.09527  0.09617  N:  8.861  9.000  9.018  Nx:  21.679   dN: 0.137E+00
 TRCHEK2: N2 convergence failed.
 x:  0.08310  0.09524  0.09617  N:  8.861  9.000  9.019  Nx:  21.719   dN: 0.287E+00
 MRCHDU: Convergence failed at  15  side 2    Res =  0.5421E+01
 MRCHDU: Convergence failed at  16  side 2    Res =  0.2007E+02
 MRCHDU: Convergence failed at  17  side 2    Res =  0.1142E+03
 MRCHDU: Convergence failed at  18  side 2    Res =  0.6179E+02
 MRCHDU: Convergence failed at  19  side 2    Res =  0.3097E+02
 MRCHDU: Convergence failed at  20  side 2    Res =  0.2657E+02
 MRCHDU: Convergence failed at  21  side 2    Res =  0.2394E+02
 MRCHDU: Convergence failed at  22  side 2    Res =  0.2504E+02
 MRCHDU: Convergence failed at  23  side 2    Res =  0.5010E+02
 MRCHDU: Convergence failed at  24  side 2    Res =  0.3294E+02
 MRCHDU: Convergence failed at  25  side 2    Res =  0.7338E+02
 MRCHDU: Convergence failed at  26  side 2    Res =  0.8821E+02
 MRCHDU: Convergence failed at  27  side 2    Res =  0.5666E+02
 MRCHDU: Convergence failed at  28  side 2    Res =  0.7129E+02
 MRCHDU: Convergence failed at  29  side 2    Res =  0.9025E+02
 MRCHDU: Convergence failed at  30  side 2    Res =  0.1447E+03
 MRCHDU: Convergence failed at  31  side 2    Res =  0.4784E+02
 MRCHDU: Convergence failed at  32  side 2    Res =  0.1332E+03
 MRCHDU: Convergence failed at  33  side 2    Res =  0.3125E+03
 MRCHDU: Convergence failed at  34  side 2    Res =  0.1316E+03
 MRCHDU: Convergence failed at  35  side 2    Res =  0.1153E+03
 MRCHDU: Convergence failed at  36  side 2    Res =  0.1154E+03
 MRCHDU: Convergence failed at  37  side 2    Res =  0.1162E+03
 MRCHDU: Convergence failed at  38  side 2    Res =  0.1211E+03
 MRCHDU: Convergence failed at  39  side 2    Res =  0.1254E+03
 MRCHDU: Convergence failed at  40  side 2    Res =  0.1256E+03
 MRCHDU: Convergence failed at  41  side 2    Res =  0.1261E+03
 MRCHDU: Convergence failed at  42  side 2    Res =  0.1266E+03
 MRCHDU: Convergence failed at  43  side 2    Res =  0.1269E+03
 MRCHDU: Convergence failed at  44  side 2    Res =  0.1275E+03
 MRCHDU: Convergence failed at  45  side 2    Res =  0.1280E+03
 MRCHDU: Convergence failed at  46  side 2    Res =  0.1288E+03
 MRCHDU: Convergence failed at  47  side 2    Res =  0.1314E+03
 MRCHDU: Convergence failed at  48  side 2    Res =  0.1353E+03
 MRCHDU: Convergence failed at  49  side 2    Res =  0.1390E+03
 MRCHDU: Convergence failed at  50  side 2    Res =  0.1429E+03
 MRCHDU: Convergence failed at  51  side 2    Res =  0.1467E+03
 MRCHDU: Convergence failed at  52  side 2    Res =  0.1504E+03
 MRCHDU: Convergence failed at  53  side 2    Res =  0.1543E+03
 MRCHDU: Convergence failed at  54  side 2    Res =  0.1584E+03
 MRCHDU: Convergence failed at  55  side 2    Res =  0.4025E+03
 MRCHDU: Convergence failed at  56  side 2    Res =  0.7697E+02
 MRCHDU: Convergence failed at  57  side 2    Res =  0.8991E+02
 MRCHDU: Convergence failed at  58  side 2    Res =  0.9903E+02
 MRCHDU: Convergence failed at  59  side 2    Res =  0.1063E+03
 MRCHDU: Convergence failed at  60  side 2    Res =  0.1123E+03
 MRCHDU: Convergence failed at  61  side 2    Res =  0.1171E+03
 MRCHDU: Convergence failed at  62  side 2    Res =  0.1196E+03
 MRCHDU: Convergence failed at  63  side 2    Res =  0.1217E+03
 MRCHDU: Convergence failed at  64  side 2    Res =  0.1224E+03
 MRCHDU: Convergence failed at  65  side 2    Res =  0.1235E+03
 MRCHDU: Convergence failed at  66  side 2    Res =  0.1247E+03
 MRCHDU: Convergence failed at  67  side 2    Res =  0.1254E+03
 MRCHDU: Convergence failed at  68  side 2    Res =  0.1268E+03
 MRCHDU: Convergence failed at  69  side 2    Res =  0.1269E+03
 MRCHDU: Convergence failed at  70  side 2    Res =  0.1287E+03
 MRCHDU: Convergence failed at  71  side 2    Res =  0.1283E+03
 MRCHDU: Convergence failed at  72  side 2    Res =  0.1300E+03
 MRCHDU: Convergence failed at  73  side 2    Res =  0.1289E+03
 MRCHDU: Convergence failed at  74  side 2    Res =  0.1267E+03
 MRCHDU: Convergence failed at  75  side 2    Res =  0.1227E+03
 MRCHDU: Convergence failed at  76  side 2    Res =  0.1152E+03
 MRCHDU: Convergence failed at  77  side 2    Res =  0.1038E+03
 MRCHDU: Convergence failed at  78  side 2    Res =  0.9355E+02
 MRCHDU: Convergence failed at  79  side 2    Res =  0.1685E+03
 MRCHDU: Convergence failed at  80  side 2    Res =  0.1478E+03
 MRCHDU: Convergence failed at  81  side 2    Res =  0.1735E+03
 MRCHDU: Convergence failed at  82  side 2    Res =  0.1748E+03
 MRCHDU: Convergence failed at  83  side 2    Res =  0.1767E+03
 MRCHDU: Convergence failed at  84  side 2    Res =  0.1871E+03
 Side 1 forced transition at x/c =  1.0000   78
 Side 2  free  transition at x/c =  0.0732   15

  84   rms: 0.3186E+01   max: -.5643E+02   T at   15  2   RLX: 0.009
       a = -4.000      CL = -1.9356
      Cm =  0.4613     CD =  0.00293   =>   CDf =  0.00198    CDp =  0.00095

 Side 1 forced transition at x/c =  1.0000   78
 Side 2  free  transition at x/c =  0.0717   15

  85   rms: 0.1548E+01   max: 0.1397E+02   T at   15  2   RLX: 0.076
       a = -4.000      CL = -1.5132
      Cm =  0.3184     CD =  0.03035   =>   CDf =  0.00251    CDp =  0.02784

 Side 1 forced transition at x/c =  1.0000   78
 Side 2  free  transition at x/c =  0.0558   13

  86   rms: 0.5250E+01   max: 0.4683E+02   T at   14  2   RLX: 0.032
       a = -4.000      CL = -1.4622
      Cm =  0.2936     CD =  0.04223   =>   CDf =  0.00292    CDp =  0.03931

 Side 1 forced transition at x/c =  1.0000   78
 Side 2  free  transition at x/c =  0.0553   13

  87   rms: 0.4927E+01   max: 0.3509E+02   T at   14  2   RLX: 0.035
       a = -4.000      CL = -1.5485
      Cm =  0.2952     CD =  0.04106   =>   CDf =  0.00295    CDp =  0.03811

 Side 1 forced transition at x/c =  1.0000   78
 Side 2  free  transition at x/c =  0.0504   13

  88   rms: 0.8022E+00   max: -.3633E+01   D at   77  1   RLX: 0.138
       a = -4.000      CL = -1.3717
      Cm =  0.2282     CD =  0.02817   =>   CDf =  0.00294    CDp =  0.02523

 Side 1 forced transition at x/c =  1.0000   78
 Side 2  free  transition at x/c =  0.0496   13

  89   rms: 0.6335E+00   max: -.1329E+01   C at  105  2   RLX: 0.376
       a = -4.000      CL = -0.9299
      Cm =  0.1108     CD =  0.01879   =>   CDf =  0.00326    CDp =  0.01552

 Side 1 forced transition at x/c =  1.0000   78
 Side 2  free  transition at x/c =  0.0398   12

  90   rms: 0.9983E+00   max: -.1230E+02   T at   12  2   RLX: 0.041
       a = -4.000      CL = -0.9342
      Cm =  0.1101     CD =  0.03637   =>   CDf =  0.00357    CDp =  0.03280

 Side 1 forced transition at x/c =  1.0000   78
 Side 2  free  transition at x/c =  0.0382   12

  91   rms: 0.5126E+00   max: -.1111E+01   C at   99  2   RLX: 0.450
       a = -4.000      CL = -0.6154
      Cm =  0.0227     CD =  0.01437   =>   CDf =  0.00357    CDp =  0.01080

 Side 1 forced transition at x/c =  1.0000   78
 Side 2  free  transition at x/c =  0.0334   12

  92   rms: 0.5256E+00   max: -.6393E+01   T at   12  2   RLX: 0.078
       a = -4.000      CL = -0.5763
      Cm =  0.0121     CD =  0.02619   =>   CDf =  0.00361    CDp =  0.02259

 Side 1 forced transition at x/c =  1.0000   78
 Side 2  free  transition at x/c =  0.0340   12

  93   rms: 0.4671E+00   max: -.1731E+01   T at   12  2   RLX: 0.289
       a = -4.000      CL = -0.5517
      Cm = -0.0014     CD =  0.01823   =>   CDf =  0.00358    CDp =  0.01465

 Side 1 forced transition at x/c =  1.0000   78
 Side 2  free  transition at x/c =  0.0345   12

  94   rms: 0.5297E+00   max: -.2017E+01   D at  103  2   RLX: 0.248
       a = -4.000      CL = -0.5511
      Cm = -0.0158     CD =  0.01700   =>   CDf =  0.00360    CDp =  0.01341

 Side 1 forced transition at x/c =  1.0000   78
 Side 2  free  transition at x/c =  0.0359   12

  95   rms: 0.5847E+00   max: -.2177E+01   D at  103  2   RLX: 0.230
       a = -4.000      CL = -0.5483
      Cm = -0.0336     CD =  0.01648   =>   CDf =  0.00365    CDp =  0.01283

 Side 1 forced transition at x/c =  1.0000   78
 Side 2  free  transition at x/c =  0.0373   12

  96   rms: 0.5478E+00   max: -.1939E+01   D at  102  2   RLX: 0.258
       a = -4.000      CL = -0.5610
      Cm = -0.0444     CD =  0.01909   =>   CDf =  0.00371    CDp =  0.01538

 Side 1 forced transition at x/c =  1.0000   78
 Side 2  free  transition at x/c =  0.0385   12

  97   rms: 0.4923E+00   max: -.1827E+01   D at  102  2   RLX: 0.274
       a = -4.000      CL = -0.5841
      Cm = -0.0438     CD =  0.01996   =>   CDf =  0.00379    CDp =  0.01617

 Side 1 forced transition at x/c =  1.0000   78
 Side 2  free  transition at x/c =  0.0396   12

  98   rms: 0.4110E+00   max: 0.1847E+01   D at   77  1   RLX: 0.373
       a = -4.000      CL = -0.6131
      Cm = -0.0327     CD =  0.01792   =>   CDf =  0.00386    CDp =  0.01406

 Side 1 forced transition at x/c =  1.0000   78
 Side 2  free  transition at x/c =  0.0409   12

  99   rms: 0.3338E+00   max: 0.1292E+01   D at   77  1   RLX: 0.434
       a = -4.000      CL = -0.6495
      Cm = -0.0124     CD =  0.01873   =>   CDf =  0.00385    CDp =  0.01488

 Side 1 forced transition at x/c =  1.0000   78
 Side 2  free  transition at x/c =  0.0420   12

 100   rms: 0.2981E+00   max: 0.1330E+01   D at   66  1   RLX: 0.504
       a = -4.000      CL = -0.7252
      Cm =  0.0177     CD =  0.03116   =>   CDf =  0.00391    CDp =  0.02725

 Side 1 forced transition at x/c =  1.0000   78
 Side 2  free  transition at x/c =  0.0423   12

 101   rms: 0.1644E+00   max: -.7711E+00   D at   81  2   RLX: 0.648
       a = -4.000      CL = -0.6458
      Cm =  0.0199     CD =  0.03037   =>   CDf =  0.00442    CDp =  0.02595

 Side 1 forced transition at x/c =  1.0000   78
 Side 2  free  transition at x/c =  0.0424   12

 102   rms: 0.1506E+00   max: 0.5196E+00   D at   86  2
       a = -4.000      CL = -0.4686
      Cm =  0.0012     CD =  0.02195   =>   CDf =  0.00529    CDp =  0.01666

 Side 1 forced transition at x/c =  1.0000   78
 Side 2  free  transition at x/c =  0.0426   12

 103   rms: 0.9613E-01   max: -.3759E+00   D at   12  2
       a = -4.000      CL = -0.4491
      Cm = -0.0025     CD =  0.02111   =>   CDf =  0.00585    CDp =  0.01527

 TRCHEK2: N2 convergence failed.
 x:  0.12252  0.13315  0.13586  N:  8.965  9.000  9.012  Nx:  12.430   dN: 0.334E+00
 TRCHEK2: N2 convergence failed.
 x:  0.12252  0.13436  0.13586  N:  8.965  9.000  9.007  Nx:  12.430   dN: 0.222E+00
 TRCHEK2: N2 convergence failed.
 x:  0.12252  0.13430  0.13586  N:  8.965  9.000  9.002  Nx:  12.672   dN:-0.234E+00
 TRCHEK2: N2 convergence failed.
 x:  0.12252  0.13433  0.13586  N:  8.965  9.000  9.007  Nx:  12.503   dN: 0.792E+00
 TRCHEK2: N2 convergence failed.
 x:  0.12252  0.13430  0.13586  N:  8.965  9.000  9.002  Nx:  12.682   dN:-0.142E+00
 TRCHEK2: N2 convergence failed.
 x:  0.12252  0.13432  0.13586  N:  8.965  9.000  9.007  Nx:  12.618   dN: 0.153E+00
 TRCHEK2: N2 convergence failed.
 x:  0.12252  0.13429  0.13586  N:  8.965  9.000  9.007  Nx:  12.578   dN: 0.151E+00
 TRCHEK2: N2 convergence failed.
 x:  0.12252  0.13429  0.13586  N:  8.965  9.000  9.007  Nx:  12.590   dN: 0.151E+00
 TRCHEK2: N2 convergence failed.
 x:  0.12252  0.13429  0.13586  N:  8.965  9.000  9.007  Nx:  12.608   dN: 0.152E+00
 TRCHEK2: N2 convergence failed.
 x:  0.12252  0.13428  0.13586  N:  8.965  9.000  9.007  Nx:  12.612   dN: 0.260E+00
 TRCHEK2: N2 convergence failed.
 x:  0.12252  0.13428  0.13586  N:  8.965  9.000  9.002  Nx:  12.801   dN:-0.665E-01
 TRCHEK2: N2 convergence failed.
 x:  0.12252  0.13425  0.13586  N:  8.965  9.000  9.003  Nx:  12.833   dN:-0.576E-01
 TRCHEK2: N2 convergence failed.
 x:  0.12252  0.13558  0.13586  N:  8.965  9.000  9.003  Nx:  12.548   dN: 0.157E+00
 MRCHDU: Convergence failed at  18  side 2    Res =  0.2365E+02
 MRCHDU: Convergence failed at  19  side 2    Res =  0.9229E+02
 MRCHDU: Convergence failed at  20  side 2    Res =  0.4247E+02
 MRCHDU: Convergence failed at  21  side 2    Res =  0.4245E+02
 MRCHDU: Convergence failed at  22  side 2    Res =  0.3263E+02
 MRCHDU: Convergence failed at  23  side 2    Res =  0.3048E+02
 MRCHDU: Convergence failed at  24  side 2    Res =  0.1089E+03
 MRCHDU: Convergence failed at  25  side 2    Res =  0.5180E+02
 MRCHDU: Convergence failed at  26  side 2    Res =  0.3468E+02
 MRCHDU: Convergence failed at  27  side 2    Res =  0.6090E+02
 MRCHDU: Convergence failed at  28  side 2    Res =  0.1537E+03
 MRCHDU: Convergence failed at  29  side 2    Res =  0.1467E+03
 MRCHDU: Convergence failed at  30  side 2    Res =  0.1422E+03
 MRCHDU: Convergence failed at  31  side 2    Res =  0.1397E+03
 MRCHDU: Convergence failed at  32  side 2    Res =  0.1387E+03
 MRCHDU: Convergence failed at  33  side 2    Res =  0.1386E+03
 MRCHDU: Convergence failed at  34  side 2    Res =  0.1389E+03
 MRCHDU: Convergence failed at  35  side 2    Res =  0.1399E+03
 MRCHDU: Convergence failed at  36  side 2    Res =  0.1486E+03
 MRCHDU: Convergence failed at  37  side 2    Res =  0.1469E+03
 MRCHDU: Convergence failed at  38  side 2    Res =  0.1452E+03
 MRCHDU: Convergence failed at  39  side 2    Res =  0.1441E+03
 MRCHDU: Convergence failed at  40  side 2    Res =  0.1431E+03
 MRCHDU: Convergence failed at  41  side 2    Res =  0.1422E+03
 MRCHDU: Convergence failed at  42  side 2    Res =  0.1417E+03
 MRCHDU: Convergence failed at  43  side 2    Res =  0.1413E+03
 MRCHDU: Convergence failed at  44  side 2    Res =  0.1411E+03
 MRCHDU: Convergence failed at  45  side 2    Res =  0.1411E+03
 MRCHDU: Convergence failed at  46  side 2    Res =  0.1410E+03
 MRCHDU: Convergence failed at  47  side 2    Res =  0.1412E+03
 MRCHDU: Convergence failed at  48  side 2    Res =  0.1415E+03
 MRCHDU: Convergence failed at  49  side 2    Res =  0.1419E+03
 MRCHDU: Convergence failed at  50  side 2    Res =  0.1423E+03
 MRCHDU: Convergence failed at  51  side 2    Res =  0.1428E+03
 MRCHDU: Convergence failed at  52  side 2    Res =  0.1436E+03
 MRCHDU: Convergence failed at  53  side 2    Res =  0.1447E+03
 MRCHDU: Convergence failed at  54  side 2    Res =  0.1459E+03
 MRCHDU: Convergence failed at  55  side 2    Res =  0.1471E+03
 MRCHDU: Convergence failed at  56  side 2    Res =  0.1485E+03
 MRCHDU: Convergence failed at  57  side 2    Res =  0.1498E+03
 MRCHDU: Convergence failed at  58  side 2    Res =  0.1512E+03
 MRCHDU: Convergence failed at  59  side 2    Res =  0.1527E+03
 MRCHDU: Convergence failed at  60  side 2    Res =  0.1542E+03
 MRCHDU: Convergence failed at  61  side 2    Res =  0.1560E+03
 MRCHDU: Convergence failed at  62  side 2    Res =  0.1579E+03
 MRCHDU: Convergence failed at  63  side 2    Res =  0.1600E+03
 MRCHDU: Convergence failed at  64  side 2    Res =  0.1622E+03
 MRCHDU: Convergence failed at  65  side 2    Res =  0.1643E+03
 MRCHDU: Convergence failed at  66  side 2    Res =  0.1670E+03
 MRCHDU: Convergence failed at  67  side 2    Res =  0.1697E+03
 MRCHDU: Convergence failed at  68  side 2    Res =  0.1730E+03
 MRCHDU: Convergence failed at  69  side 2    Res =  0.1768E+03
 MRCHDU: Convergence failed at  70  side 2    Res =  0.1813E+03
 MRCHDU: Convergence failed at  71  side 2    Res =  0.1870E+03
 MRCHDU: Convergence failed at  72  side 2    Res =  0.1933E+03
 MRCHDU: Convergence failed at  73  side 2    Res =  0.1997E+03
 MRCHDU: Convergence failed at  74  side 2    Res =  0.2077E+03
 MRCHDU: Convergence failed at  75  side 2    Res =  0.2182E+03
 MRCHDU: Convergence failed at  76  side 2    Res =  0.2299E+03
 MRCHDU: Convergence failed at  77  side 2    Res =  0.2450E+03
 MRCHDU: Convergence failed at  78  side 2    Res =  0.2670E+03
 MRCHDU: Convergence failed at  79  side 2    Res =  0.8068E+03
 MRCHDU: Convergence failed at  80  side 2    Res =  0.1035E+04
 MRCHDU: Convergence failed at  81  side 2    Res =  0.1606E+04
 MRCHDU: Convergence failed at  82  side 2    Res =  0.3053E+04
 MRCHDU: Convergence failed at  83  side 2    Res =  0.3994E+07
 MRCHDU: Convergence failed at  84  side 2    Res =  0.2626E+04
 MRCHDU: Convergence failed at 106  side 2    Res =  0.9704E+00
 Side 1 forced transition at x/c =  1.0000   78
 Side 2  free  transition at x/c =  0.1101   18

 104   rms: 0.3841E+01   max: -.6773E+02   T at   18  2   RLX: 0.007
       a = -4.000      CL = -1.7562
      Cm =  0.4181     CD =  0.00523   =>   CDf =  0.00186    CDp =  0.00337

 Side 1 forced transition at x/c =  1.0000   78
 Side 2  free  transition at x/c =  0.1106   18

 105   rms: 0.2022E+01   max: 0.3137E+02   T at   18  2   RLX: 0.048
       a = -4.000      CL = -1.4402
      Cm =  0.3021     CD =  0.06234   =>   CDf =  0.00233    CDp =  0.06001

 Side 1 forced transition at x/c =  1.0000   78
 Side 2  free  transition at x/c =  0.0917   16

 106   rms: 0.1857E+01   max: -.2309E+02   T at   16  2   RLX: 0.022
       a = -4.000      CL = -1.4292
      Cm =  0.2980     CD =  0.07334   =>   CDf =  0.00253    CDp =  0.07081

 Side 1 forced transition at x/c =  1.0000   78
 Side 2  free  transition at x/c =  0.0845   16

 107   rms: 0.1500E+01   max: 0.1599E+02   T at   16  2   RLX: 0.082
       a = -4.000      CL = -1.3683
      Cm =  0.2746     CD =  0.06225   =>   CDf =  0.00261    CDp =  0.05964

 Side 1 forced transition at x/c =  1.0000   78
 Side 2  free  transition at x/c =  0.0686   14

 108   rms: 0.2115E+01   max: 0.1832E+02   T at   15  2   RLX: 0.082
       a = -4.000      CL = -1.3007
      Cm =  0.2412     CD =  0.07741   =>   CDf =  0.00299    CDp =  0.07442

[...]

 120   rms: 0.3275E+04   max: -.5068E+05   T at   99  2   RLX: 0.000
       a = 11.750      CL =  1.1285
      Cm = -0.1847     CD =+Infinity   =>   CDf =  0.00404    CDp =+Infinity

 MRCHDU: Convergence failed at  80  side 1    Res =  0.1420E+00
 MRCHDU: Convergence failed at  82  side 1    Res =  0.5653E-02
 MRCHDU: Convergence failed at  83  side 1    Res =  0.6981E-02
 MRCHDU: Convergence failed at  84  side 1    Res =  0.2579E-02
 MRCHDU: Convergence failed at  85  side 1    Res =  0.2272E-03
 MRCHDU: Convergence failed at  98  side 2    Res =  0.1777E-01
 MRCHDU: Convergence failed at  99  side 2    Res =  0.3069E-03
 Side 1  free  transition at x/c =  0.0344   12
 Side 2 forced transition at x/c =  1.0000   77

 121   rms: 0.2319E+05   max: 0.4253E+06   T at   99  2   RLX: 0.000
       a = 11.750      CL =  1.1294
      Cm = -0.1848     CD =+Infinity   =>   CDf =  0.00404    CDp =+Infinity

 MRCHDU: Convergence failed at  80  side 1    Res =  0.1474E+00
 MRCHDU: Convergence failed at  82  side 1    Res =  0.5640E-02
 MRCHDU: Convergence failed at  83  side 1    Res =  0.7021E-02
 MRCHDU: Convergence failed at  84  side 1    Res =  0.2600E-02
 MRCHDU: Convergence failed at  85  side 1    Res =  0.2298E-03
 MRCHDU: Convergence failed at  98  side 2    Res =  0.5899E-01
 MRCHDU: Convergence failed at  99  side 2    Res =  0.8547E-03
 Side 1  free  transition at x/c =  0.0344   12
 Side 2 forced transition at x/c =  1.0000   77

 122   rms: 0.2191E+04   max: -.3149E+05   T at   99  2   RLX: 0.000
       a = 11.750      CL =  1.1287
      Cm = -0.1847     CD =+Infinity   =>   CDf =  0.00404    CDp =+Infinity

 MRCHDU: Convergence failed at  80  side 1    Res =  0.1438E+00
 MRCHDU: Convergence failed at  82  side 1    Res =  0.5690E-02
 MRCHDU: Convergence failed at  83  side 1    Res =  0.7005E-02
 MRCHDU: Convergence failed at  84  side 1    Res =  0.2592E-02
 MRCHDU: Convergence failed at  85  side 1    Res =  0.2289E-03
 MRCHDU: Convergence failed at  98  side 2    Res =  0.7699E-01
 MRCHDU: Convergence failed at  99  side 2    Res =  0.3304E-03
 Side 1  free  transition at x/c =  0.0344   12
 Side 2 forced transition at x/c =  1.0000   77

 123   rms: 0.3664E+04   max: -.8423E+05   T at   99  2   RLX: 0.000
       a = 11.750      CL =  1.1283
      Cm = -0.1847     CD =+Infinity   =>   CDf =  0.00404    CDp =+Infinity

 MRCHDU: Convergence failed at  80  side 1    Res =  0.1403E+00
 MRCHDU: Convergence failed at  82  side 1    Res =  0.5741E-02
 MRCHDU: Convergence failed at  83  side 1    Res =  0.7005E-02
 MRCHDU: Convergence failed at  84  side 1    Res =  0.2593E-02
 MRCHDU: Convergence failed at  85  side 1    Res =  0.2291E-03
 MRCHDU: Convergence failed at  98  side 2    Res =  0.1194E+00
 Side 1  free  transition at x/c =  0.0344   12
 Side 2 forced transition at x/c =  1.0000   77

 124   rms: 0.6728E+04   max: -.6192E+05   C at   96  2   RLX: 0.000
       a = 11.750      CL =  1.1283
      Cm = -0.1847     CD =+Infinity   =>   CDf =  0.00404    CDp =+Infinity

 MRCHDU: Convergence failed at  80  side 1    Res =  0.1401E+00
 MRCHDU: Convergence failed at  82  side 1    Res =  0.5805E-02
 MRCHDU: Convergence failed at  83  side 1    Res =  0.7029E-02
 MRCHDU: Convergence failed at  84  side 1    Res =  0.2606E-02
 MRCHDU: Convergence failed at  85  side 1    Res =  0.2308E-03
 Side 1  free  transition at x/c =  0.0344   12
 Side 2 forced transition at x/c =  1.0000   77

 125   rms: 0.1151E+05   max: -.1061E+06   C at   98  2   RLX: 0.000
       a = 11.750      CL =  1.1283
      Cm = -0.1847     CD =+Infinity   =>   CDf =  0.00404    CDp =+Infinity

 MRCHDU: Convergence failed at  80  side 1    Res =  0.1402E+00
 MRCHDU: Convergence failed at  82  side 1    Res =  0.5844E-02
 MRCHDU: Convergence failed at  83  side 1    Res =  0.7044E-02
 MRCHDU: Convergence failed at  84  side 1    Res =  0.2615E-02
 MRCHDU: Convergence failed at  85  side 1    Res =  0.2318E-03
 Side 1  free  transition at x/c =  0.0344   12
 Side 2 forced transition at x/c =  1.0000   77

 126   rms: 0.1815E+05   max: -.1672E+06   C at   98  2   RLX: 0.000
       a = 11.750      CL =  1.1284
      Cm = -0.1847     CD =+Infinity   =>   CDf =  0.00404    CDp =+Infinity

 MRCHDU: Convergence failed at  80  side 1    Res =  0.1404E+00
 MRCHDU: Convergence failed at  82  side 1    Res =  0.5870E-02
 MRCHDU: Convergence failed at  83  side 1    Res =  0.7054E-02
 MRCHDU: Convergence failed at  84  side 1    Res =  0.2621E-02
 MRCHDU: Convergence failed at  85  side 1    Res =  0.2326E-03
 Side 1  free  transition at x/c =  0.0344   12
 Side 2 forced transition at x/c =  1.0000   77

 127   rms: 0.2380E+05   max: -.2186E+06   C at   98  2   RLX: 0.000
       a = 11.750      CL =  1.1284
      Cm = -0.1847     CD =+Infinity   =>   CDf =  0.00404    CDp =+Infinity

 MRCHDU: Convergence failed at  80  side 1    Res =  0.1405E+00
 MRCHDU: Convergence failed at  82  side 1    Res =  0.5891E-02
 MRCHDU: Convergence failed at  83  side 1    Res =  0.7062E-02
 MRCHDU: Convergence failed at  84  side 1    Res =  0.2625E-02
 MRCHDU: Convergence failed at  85  side 1    Res =  0.2331E-03
 Side 1  free  transition at x/c =  0.0344   12
 Side 2 forced transition at x/c =  1.0000   77

 128   rms: 0.2769E+05   max: -.2534E+06   C at   98  2   RLX: 0.000
       a = 11.750      CL =  1.1284
      Cm = -0.1847     CD =+Infinity   =>   CDf =  0.00404    CDp =+Infinity

 MRCHDU: Convergence failed at  80  side 1    Res =  0.1406E+00
 MRCHDU: Convergence failed at  82  side 1    Res =  0.5906E-02
 MRCHDU: Convergence failed at  83  side 1    Res =  0.7068E-02
 MRCHDU: Convergence failed at  84  side 1    Res =  0.2629E-02
 MRCHDU: Convergence failed at  85  side 1    Res =  0.2336E-03
 Side 1  free  transition at x/c =  0.0344   12
 Side 2 forced transition at x/c =  1.0000   77

 129   rms: 0.3384E+05   max: -.3090E+06   C at   98  2   RLX: 0.000
       a = 11.750      CL =  1.1284
      Cm = -0.1847     CD =+Infinity   =>   CDf =  0.00404    CDp =+Infinity

 MRCHDU: Convergence failed at  80  side 1    Res =  0.1406E+00
 MRCHDU: Convergence failed at  82  side 1    Res =  0.5920E-02
 MRCHDU: Convergence failed at  83  side 1    Res =  0.7073E-02
 MRCHDU: Convergence failed at  84  side 1    Res =  0.2631E-02
 MRCHDU: Convergence failed at  85  side 1    Res =  0.2339E-03
 Side 1  free  transition at x/c =  0.0344   12
 Side 2 forced transition at x/c =  1.0000   77

 130   rms: 0.2577E+05   max: -.2349E+06   C at   98  2   RLX: 0.000
       a = 11.750      CL =  1.1284
      Cm = -0.1847     CD =+Infinity   =>   CDf =  0.00404    CDp =+Infinity

 MRCHDU: Convergence failed at  80  side 1    Res =  0.1407E+00
 MRCHDU: Convergence failed at  82  side 1    Res =  0.5931E-02
 MRCHDU: Convergence failed at  83  side 1    Res =  0.7077E-02
 MRCHDU: Convergence failed at  84  side 1    Res =  0.2634E-02
 MRCHDU: Convergence failed at  85  side 1    Res =  0.2342E-03
 Side 1  free  transition at x/c =  0.0344   12
 Side 2 forced transition at x/c =  1.0000   77

 131   rms: 0.4304E+05   max: -.3917E+06   C at   98  2   RLX: 0.000
       a = 11.750      CL =  1.1284
      Cm = -0.1847     CD =+Infinity   =>   CDf =  0.00404    CDp =+Infinity

 MRCHDU: Convergence failed at  80  side 1    Res =  0.1407E+00
 MRCHDU: Convergence failed at  82  side 1    Res =  0.5939E-02
 MRCHDU: Convergence failed at  83  side 1    Res =  0.7081E-02
 MRCHDU: Convergence failed at  84  side 1    Res =  0.2636E-02
 MRCHDU: Convergence failed at  85  side 1    Res =  0.2345E-03
 Side 1  free  transition at x/c =  0.0344   12
 Side 2 forced transition at x/c =  1.0000   77

 132   rms: 0.4666E+05   max: -.4242E+06   C at   98  2   RLX: 0.000
       a = 11.750      CL =  1.1284
      Cm = -0.1847     CD =+Infinity   =>   CDf =  0.00404    CDp =+Infinity

 MRCHDU: Convergence failed at  80  side 1    Res =  0.1408E+00
 MRCHDU: Convergence failed at  82  side 1    Res =  0.5946E-02
 MRCHDU: Convergence failed at  83  side 1    Res =  0.7083E-02
 MRCHDU: Convergence failed at  84  side 1    Res =  0.2637E-02
 MRCHDU: Convergence failed at  85  side 1    Res =  0.2347E-03
 MRCHDU: Convergence failed at  91  side 2    Res =  0.6303E-05
 Side 1  free  transition at x/c =  0.0344   12
 Side 2 forced transition at x/c =  1.0000   77

 133   rms: 0.6028E+05   max: -.5475E+06   C at   98  2   RLX: 0.000
       a = 11.750      CL =  1.1285
      Cm = -0.1847     CD =+Infinity   =>   CDf =  0.00404    CDp =+Infinity

 MRCHDU: Convergence failed at  80  side 1    Res =  0.1408E+00
 MRCHDU: Convergence failed at  82  side 1    Res =  0.5953E-02
 MRCHDU: Convergence failed at  83  side 1    Res =  0.7086E-02
 MRCHDU: Convergence failed at  84  side 1    Res =  0.2639E-02
 MRCHDU: Convergence failed at  85  side 1    Res =  0.2349E-03
 Side 1  free  transition at x/c =  0.0344   12
 Side 2 forced transition at x/c =  1.0000   77

 134   rms: 0.6229E+05   max: -.5655E+06   C at   98  2   RLX: 0.000
       a = 11.750      CL =  1.1285
      Cm = -0.1847     CD =+Infinity   =>   CDf =  0.00404    CDp =+Infinity

 MRCHDU: Convergence failed at  80  side 1    Res =  0.1409E+00
 MRCHDU: Convergence failed at  82  side 1    Res =  0.5959E-02
 MRCHDU: Convergence failed at  83  side 1    Res =  0.7088E-02
 MRCHDU: Convergence failed at  84  side 1    Res =  0.2640E-02
 MRCHDU: Convergence failed at  85  side 1    Res =  0.2351E-03
 Side 1  free  transition at x/c =  0.0344   12
 Side 2 forced transition at x/c =  1.0000   77

 135   rms: 0.1028E+06   max: -.9328E+06   C at   98  2   RLX: 0.000
       a = 11.750      CL =  1.1285
      Cm = -0.1847     CD =+Infinity   =>   CDf =  0.00404    CDp =+Infinity

 MRCHDU: Convergence failed at  80  side 1    Res =  0.1409E+00
 MRCHDU: Convergence failed at  82  side 1    Res =  0.5964E-02
 MRCHDU: Convergence failed at  83  side 1    Res =  0.7090E-02
 MRCHDU: Convergence failed at  84  side 1    Res =  0.2641E-02
 MRCHDU: Convergence failed at  85  side 1    Res =  0.2352E-03
 Side 1  free  transition at x/c =  0.0344   12
 Side 2 forced transition at x/c =  1.0000   77

 136   rms: 0.9282E+05   max: -.8418E+06   C at   98  2   RLX: 0.000
       a = 11.750      CL =  1.1285
      Cm = -0.1847     CD =+Infinity   =>   CDf =  0.00404    CDp =+Infinity

 MRCHDU: Convergence failed at  80  side 1    Res =  0.1409E+00
 MRCHDU: Convergence failed at  82  side 1    Res =  0.5968E-02
 MRCHDU: Convergence failed at  83  side 1    Res =  0.7092E-02
 MRCHDU: Convergence failed at  84  side 1    Res =  0.2642E-02
 MRCHDU: Convergence failed at  85  side 1    Res =  0.2353E-03
 Side 1  free  transition at x/c =  0.0344   12
 Side 2 forced transition at x/c =  1.0000   77

 137   rms: 0.2015E+06   max: -.1827E+07   C at   98  2   RLX: 0.000
       a = 11.750      CL =  1.1285
      Cm = -0.1847     CD =+Infinity   =>   CDf =  0.00404    CDp =+Infinity

 MRCHDU: Convergence failed at  80  side 1    Res =  0.1410E+00
 MRCHDU: Convergence failed at  82  side 1    Res =  0.5972E-02
 MRCHDU: Convergence failed at  83  side 1    Res =  0.7093E-02
 MRCHDU: Convergence failed at  84  side 1    Res =  0.2643E-02
 MRCHDU: Convergence failed at  85  side 1    Res =  0.2354E-03
 Side 1  free  transition at x/c =  0.0344   12
 Side 2 forced transition at x/c =  1.0000   77

 138   rms: 0.1722E+06   max: -.1561E+07   C at   98  2   RLX: 0.000
       a = 11.750      CL =  1.1285
      Cm = -0.1847     CD =+Infinity   =>   CDf =  0.00404    CDp =+Infinity

 MRCHDU: Convergence failed at  80  side 1    Res =  0.1410E+00
 MRCHDU: Convergence failed at  82  side 1    Res =  0.5975E-02
 MRCHDU: Convergence failed at  83  side 1    Res =  0.7095E-02
 MRCHDU: Convergence failed at  84  side 1    Res =  0.2644E-02
 MRCHDU: Convergence failed at  85  side 1    Res =  0.2355E-03
 MRCHDU: Convergence failed at  99  side 2    Res =  0.8601E-03
 Side 1  free  transition at x/c =  0.0344   12
 Side 2 forced transition at x/c =  1.0000   77

 139   rms: 0.1549E+06   max: -.1404E+07   C at   98  2   RLX: 0.000
       a = 11.750      CL =  1.1285
      Cm = -0.1847     CD =+Infinity   =>   CDf =  0.00404    CDp =+Infinity

 MRCHDU: Convergence failed at  80  side 1    Res =  0.1410E+00
 MRCHDU: Convergence failed at  82  side 1    Res =  0.5978E-02
 MRCHDU: Convergence failed at  83  side 1    Res =  0.7096E-02
 MRCHDU: Convergence failed at  84  side 1    Res =  0.2644E-02
 MRCHDU: Convergence failed at  85  side 1    Res =  0.2356E-03
 MRCHDU: Convergence failed at  98  side 2    Res =  0.4578E-01
 MRCHDU: Convergence failed at  99  side 2    Res =  0.7772E-02
 Side 1  free  transition at x/c =  0.0344   12
 Side 2 forced transition at x/c =  1.0000   77

 140   rms: 0.2248E+06   max: -.2037E+07   C at   99  2   RLX: 0.000
       a = 11.750      CL =  1.1285
      Cm = -0.1847     CD =+Infinity   =>   CDf =  0.00404    CDp =+Infinity

 MRCHDU: Convergence failed at  80  side 1    Res =  0.1410E+00
 MRCHDU: Convergence failed at  82  side 1    Res =  0.5981E-02
 MRCHDU: Convergence failed at  83  side 1    Res =  0.7097E-02
 MRCHDU: Convergence failed at  84  side 1    Res =  0.2645E-02
 MRCHDU: Convergence failed at  85  side 1    Res =  0.2357E-03
 MRCHDU: Convergence failed at  91  side 2    Res =  0.7969E-05
 MRCHDU: Convergence failed at  97  side 2    Res =  0.1171E-01
 MRCHDU: Convergence failed at  98  side 2    Res =  0.8663E-01
 MRCHDU: Convergence failed at  99  side 2    Res =  0.7769E-02
 Side 1  free  transition at x/c =  0.0344   12
 Side 2 forced transition at x/c =  1.0000   77

 141   rms: 0.1986E+06   max: -.1800E+07   C at   99  2   RLX: 0.000
       a = 11.750      CL =  1.1285
      Cm = -0.1847     CD =+Infinity   =>   CDf =  0.00404    CDp =+Infinity

 MRCHDU: Convergence failed at  80  side 1    Res =  0.1410E+00
 MRCHDU: Convergence failed at  82  side 1    Res =  0.5983E-02
 MRCHDU: Convergence failed at  83  side 1    Res =  0.7098E-02
 MRCHDU: Convergence failed at  84  side 1    Res =  0.2645E-02
 MRCHDU: Convergence failed at  85  side 1    Res =  0.2358E-03
 MRCHDU: Convergence failed at  97  side 2    Res =  0.6403E-01
 MRCHDU: Convergence failed at  98  side 2    Res =  0.8667E-01
 MRCHDU: Convergence failed at  99  side 2    Res =  0.7766E-02
 Side 1  free  transition at x/c =  0.0344   12
 Side 2 forced transition at x/c =  1.0000   77

 142   rms: 0.3309E+06   max: -.3000E+07   C at   99  2   RLX: 0.000
       a = 11.750      CL =  1.1285
      Cm = -0.1847     CD =+Infinity   =>   CDf =  0.00404    CDp =+Infinity

 MRCHDU: Convergence failed at  80  side 1    Res =  0.1411E+00
 MRCHDU: Convergence failed at  82  side 1    Res =  0.5985E-02
 MRCHDU: Convergence failed at  83  side 1    Res =  0.7099E-02
 MRCHDU: Convergence failed at  84  side 1    Res =  0.2646E-02
 MRCHDU: Convergence failed at  85  side 1    Res =  0.2358E-03
 MRCHDU: Convergence failed at  96  side 2    Res =  0.4247E-01
 MRCHDU: Convergence failed at  97  side 2    Res =  0.7384E-01
 MRCHDU: Convergence failed at  98  side 2    Res =  0.8671E-01
 MRCHDU: Convergence failed at  99  side 2    Res =  0.7764E-02
 Side 1  free  transition at x/c =  0.0344   12
 Side 2 forced transition at x/c =  1.0000   77

 143   rms: 0.3379E+06   max: -.3063E+07   C at   99  2   RLX: 0.000
       a = 11.750      CL =  1.1285
      Cm = -0.1847     CD =+Infinity   =>   CDf =  0.00404    CDp =+Infinity

 MRCHDU: Convergence failed at  80  side 1    Res =  0.1411E+00
 MRCHDU: Convergence failed at  82  side 1    Res =  0.5988E-02
 MRCHDU: Convergence failed at  83  side 1    Res =  0.7100E-02
 MRCHDU: Convergence failed at  84  side 1    Res =  0.2646E-02
 MRCHDU: Convergence failed at  85  side 1    Res =  0.2359E-03
 MRCHDU: Convergence failed at  95  side 2    Res =  0.3152E-01
 MRCHDU: Convergence failed at  96  side 2    Res =  0.6302E-01
 MRCHDU: Convergence failed at  97  side 2    Res =  0.7387E-01
 MRCHDU: Convergence failed at  98  side 2    Res =  0.8674E-01
 MRCHDU: Convergence failed at  99  side 2    Res =  0.7761E-02
 Side 1  free  transition at x/c =  0.0344   12
 Side 2 forced transition at x/c =  1.0000   77

 144   rms: 0.3027E+06   max: -.2745E+07   C at   99  2   RLX: 0.000
       a = 11.750      CL =  1.1285
      Cm = -0.1847     CD =+Infinity   =>   CDf =  0.00404    CDp =+Infinity

 MRCHDU: Convergence failed at  80  side 1    Res =  0.1411E+00
 MRCHDU: Convergence failed at  82  side 1    Res =  0.5990E-02
 MRCHDU: Convergence failed at  83  side 1    Res =  0.7100E-02
 MRCHDU: Convergence failed at  84  side 1    Res =  0.2647E-02
 MRCHDU: Convergence failed at  85  side 1    Res =  0.2359E-03
 MRCHDU: Convergence failed at  94  side 2    Res =  0.2942E-01
 MRCHDU: Convergence failed at  95  side 2    Res =  0.5407E-01
 MRCHDU: Convergence failed at  96  side 2    Res =  0.6305E-01
 MRCHDU: Convergence failed at  97  side 2    Res =  0.7390E-01
 MRCHDU: Convergence failed at  98  side 2    Res =  0.8678E-01
 MRCHDU: Convergence failed at  99  side 2    Res =  0.7759E-02
 Side 1  free  transition at x/c =  0.0344   12
 Side 2 forced transition at x/c =  1.0000   77

 145   rms: 0.4424E+06   max: -.4011E+07   C at   99  2   RLX: 0.000
       a = 11.750      CL =  1.1285
      Cm = -0.1847     CD =+Infinity   =>   CDf =  0.00404    CDp =+Infinity

 MRCHDU: Convergence failed at  80  side 1    Res =  0.1411E+00
 MRCHDU: Convergence failed at  82  side 1    Res =  0.5991E-02
 MRCHDU: Convergence failed at  83  side 1    Res =  0.7101E-02
 MRCHDU: Convergence failed at  84  side 1    Res =  0.2647E-02
 MRCHDU: Convergence failed at  85  side 1    Res =  0.2360E-03
 MRCHDU: Convergence failed at  93  side 2    Res =  0.3392E-01
 MRCHDU: Convergence failed at  94  side 2    Res =  0.4734E-01
 MRCHDU: Convergence failed at  95  side 2    Res =  0.5409E-01
 MRCHDU: Convergence failed at  96  side 2    Res =  0.6307E-01
 MRCHDU: Convergence failed at  97  side 2    Res =  0.7392E-01
 MRCHDU: Convergence failed at  98  side 2    Res =  0.8681E-01
 MRCHDU: Convergence failed at  99  side 2    Res =  0.7757E-02
 Side 1  free  transition at x/c =  0.0344   12
 Side 2 forced transition at x/c =  1.0000   77

 146   rms: 0.4192E+06   max: -.3800E+07   C at   99  2   RLX: 0.000
       a = 11.750      CL =  1.1285
      Cm = -0.1847     CD =+Infinity   =>   CDf =  0.00404    CDp =+Infinity

 MRCHDU: Convergence failed at  80  side 1    Res =  0.1411E+00
 MRCHDU: Convergence failed at  82  side 1    Res =  0.5993E-02
 MRCHDU: Convergence failed at  83  side 1    Res =  0.7102E-02
 MRCHDU: Convergence failed at  84  side 1    Res =  0.2648E-02
 MRCHDU: Convergence failed at  85  side 1    Res =  0.2360E-03
 MRCHDU: Convergence failed at  92  side 2    Res =  0.4431E-01
 MRCHDU: Convergence failed at  93  side 2    Res =  0.4143E-01
 MRCHDU: Convergence failed at  94  side 2    Res =  0.4735E-01
 MRCHDU: Convergence failed at  95  side 2    Res =  0.5411E-01
 MRCHDU: Convergence failed at  96  side 2    Res =  0.6309E-01
 MRCHDU: Convergence failed at  97  side 2    Res =  0.7395E-01
 MRCHDU: Convergence failed at  98  side 2    Res =  0.8683E-01
 MRCHDU: Convergence failed at  99  side 2    Res =  0.7755E-02
 Side 1  free  transition at x/c =  0.0344   12
 Side 2 forced transition at x/c =  1.0000   77

 147   rms: 0.3661E+06   max: -.3318E+07   C at   99  2   RLX: 0.000
       a = 11.750      CL =  1.1285
      Cm = -0.1847     CD =+Infinity   =>   CDf =  0.00404    CDp =+Infinity

 MRCHDU: Convergence failed at  80  side 1    Res =  0.1411E+00
 MRCHDU: Convergence failed at  82  side 1    Res =  0.5995E-02
 MRCHDU: Convergence failed at  83  side 1    Res =  0.7102E-02
 MRCHDU: Convergence failed at  84  side 1    Res =  0.2648E-02
 MRCHDU: Convergence failed at  85  side 1    Res =  0.2361E-03
 MRCHDU: Convergence failed at  91  side 2    Res =  0.5158E-01
 MRCHDU: Convergence failed at  92  side 2    Res =  0.4433E-01
 MRCHDU: Convergence failed at  93  side 2    Res =  0.4144E-01

[TIMEOUT]
