
 ===================================================
  XFOIL Version 6.99
  Copyright (C) 2000   Mark Drela, Harold Youngren

  This software comes with ABSOLUTELY NO WARRANTY,
    subject to the GNU General Public License.

  Caveat computor
 ===================================================

 File  xfoil.def  not found

   QUIT    Exit program

  .OPER    Direct operating point(s)
  .MDES    Complex mapping design routine
  .QDES    Surface speed design routine
  .GDES    Geometry design routine

   SAVE f  Write airfoil to labeled coordinate file
   PSAV f  Write airfoil to plain coordinate file
   ISAV f  Write airfoil to ISES coordinate file
   MSAV f  Write airfoil to MSES coordinate file
   REVE    Reverse written-airfoil node ordering

   LOAD f  Read buffer airfoil from coordinate file
   NACA i  Set NACA 4,5-digit airfoil and buffer airfoil
   INTE    Set buffer airfoil by interpolating two airfoils
   NORM    Buffer airfoil normalization toggle
   XYCM rr Change CM reference location, currently  0.25000 0.00000

   BEND    Display structural properties of current airfoil

   PCOP    Set current-airfoil panel nodes directly from buffer airfoil points
   PANE    Set current-airfoil panel nodes ( 160 ) based on curvature
  .PPAR    Show/change paneling

  .PLOP    Plotting options

   WDEF f  Write  current-settings file
   RDEF f  Reread current-settings file
   NAME s  Specify new airfoil name
   NINC    Increment name version number

   Z       Zoom    | (available in all menus)
   U       Unzoom  | 

 XFOIL   c>  
 Labeled airfoil file.  Name:  MH 25  9.98%                                    

 Number of input coordinate points:  67
 Counterclockwise ordering
 Max thickness =     0.099834  at x =   0.396
 Max camber    =     0.014687  at x =   0.396

  LE  x,y  =  -0.00000  -0.00004  |   Chord =   1.00000
  TE  x,y  =   1.00000   0.00000  |

 Current airfoil nodes set from buffer airfoil nodes (  67 )

 XFOIL   c>  
 XFOIL   c>  
 Sharp trailing edge

 Paneling parameters used...
   Number of panel nodes       160
   Panel bunching parameter    1.000
   TE/LE panel density ratio   0.150
   Refined-area/LE panel density ratio    0.200
   Top    side refined area x/c limits  1.000 1.000
   Bottom side refined area x/c limits  1.000 1.000

 XFOIL   c>  
.OPERi   c>  
 Xtr/c     =  1.0000    top    side
 Xtr/c     =  1.0000    bottom side
 Ncrit     =    9.00   ( 0.070 % turb. level )
 Vacc      =  0.0100

 Klag  =  5.6000     Uxwt  =    1.00
 A     =  6.7000     B     =  0.7500       KCt = 0.01485
 CtiniK=  1.8000     CtiniX=  3.3000

..VPAR   c>  
..VPAR   c>  
.OPERi   c>  
 M  =    0.0000
 Re =    600000

.OPERv   c>  
.OPERv   c>  
.OPERv   c>  
 Polar  1 newly created for accumulation
 Airfoil archived with polar: MH 25  9.98%                                    

Enter  polar save filename  OR  <return> for no file   s>  
 New polar save file available

Enter  polar dump filename  OR  <return> for no file   s>  
 Polar dump file will NOT be written

 Polar accumulation enabled

.OPERva   c>   Calculating unit vorticity distributions ...
 Calculating wake trajectory ...
 Calculating source influence matrix ...

 Solving BL system ...

 Initializing BL ...
    side            1  ...
 MRCHUE: Inverse mode at  66     Hk =   3.800
 MRCHUE: Inverse mode at  67     Hk =   4.321
 MRCHUE: Inverse mode at  68     Hk =   4.835
 MRCHUE: Inverse mode at  69     Hk =   5.347
 MRCHUE: Inverse mode at  70     Hk =   5.857
 MRCHUE: Inverse mode at  71     Hk =   6.365
 MRCHUE: Inverse mode at  72     Hk =   6.871
 MRCHUE: Inverse mode at  73     Hk =   7.369
 MRCHUE: Inverse mode at  74     Hk =   7.863
 MRCHUE: Inverse mode at  75     Hk =   8.349
 MRCHUE: Inverse mode at  76     Hk =   8.811
 MRCHUE: Inverse mode at  77     Hk =   9.239
 MRCHUE: Inverse mode at  78     Hk =   9.459
    side            2  ...
 MRCHUE: Inverse mode at   7     Hk =   5.279
 MRCHUE: Inverse mode at   8     Hk =   7.522
 MRCHUE: Inverse mode at   9     Hk =   9.764
 MRCHUE: Inverse mode at  10     Hk =   2.500
 MRCHUE: Inverse mode at  11     Hk =   2.500
 MRCHUE: Inverse mode at  12     Hk =   2.500
 MRCHUE: Inverse mode at  82     Hk =   2.500
 MRCHUE: Inverse mode at  83     Hk =   2.500
 MRCHUE: Inverse mode at  84     Hk =   2.500

 Side 1 forced transition at x/c =  1.0000   78
 Side 2  free  transition at x/c =  0.0084   10
 idif Ue xi dudx           1  0.34352952      4.56011295E-03   75.333557    
 Uenew xinew           2  1.00581150E-03  1.33514404E-05

   1   rms: 0.7121E+00   max: -.3961E+01   D at   11  2   RLX: 0.126
       a = -4.000      CL = -0.3455
      Cm = -0.0405     CD =  0.00765   =>   CDf =  0.00602    CDp =  0.00163

 MRCHDU: Convergence failed at  11  side 2    Res =  0.8215E+01
 MRCHDU: Convergence failed at  12  side 2    Res =  0.8294E+02
 MRCHDU: Convergence failed at  13  side 2    Res =  0.3377E+02
 MRCHDU: Convergence failed at  14  side 2    Res =  0.8948E+02
 MRCHDU: Convergence failed at  15  side 2    Res =  0.1049E+03
 MRCHDU: Convergence failed at  16  side 2    Res =  0.9377E+02
 MRCHDU: Convergence failed at  17  side 2    Res =  0.1344E+03
 MRCHDU: Convergence failed at  18  side 2    Res =  0.7519E+02
 MRCHDU: Convergence failed at  19  side 2    Res =  0.7089E+02
 MRCHDU: Convergence failed at  20  side 2    Res =  0.6199E+02
 MRCHDU: Convergence failed at  21  side 2    Res =  0.7034E+02
 MRCHDU: Convergence failed at  22  side 2    Res =  0.7633E+02
 MRCHDU: Convergence failed at  23  side 2    Res =  0.7392E+02
 MRCHDU: Convergence failed at  24  side 2    Res =  0.8089E+02
 MRCHDU: Convergence failed at  25  side 2    Res =  0.8865E+02
 MRCHDU: Convergence failed at  26  side 2    Res =  0.8566E+02
 MRCHDU: Convergence failed at  27  side 2    Res =  0.9299E+02
 MRCHDU: Convergence failed at  28  side 2    Res =  0.1003E+03
 MRCHDU: Convergence failed at  29  side 2    Res =  0.1298E+03
 MRCHDU: Convergence failed at  30  side 2    Res =  0.1414E+03
 MRCHDU: Convergence failed at  31  side 2    Res =  0.1544E+03
 MRCHDU: Convergence failed at  32  side 2    Res =  0.1697E+03
 MRCHDU: Convergence failed at  33  side 2    Res =  0.1867E+03
 MRCHDU: Convergence failed at  34  side 2    Res =  0.2064E+03
 MRCHDU: Convergence failed at  35  side 2    Res =  0.2291E+03
 MRCHDU: Convergence failed at  36  side 2    Res =  0.2555E+03
 MRCHDU: Convergence failed at  37  side 2    Res =  0.2862E+03
 MRCHDU: Convergence failed at  38  side 2    Res =  0.6086E+02
 MRCHDU: Convergence failed at  39  side 2    Res =  0.1779E+03
 MRCHDU: Convergence failed at  40  side 2    Res =  0.6770E+02
 MRCHDU: Convergence failed at  41  side 2    Res =  0.2422E+05
 MRCHDU: Convergence failed at  42  side 2    Res =  0.2631E+04
 MRCHDU: Convergence failed at  43  side 2    Res =  0.1467E+04
 MRCHDU: Convergence failed at  44  side 2    Res =  0.1034E+04
 MRCHDU: Convergence failed at  45  side 2    Res =  0.8081E+03
 MRCHDU: Convergence failed at  46  side 2    Res =  0.6582E+03
 MRCHDU: Convergence failed at  47  side 2    Res =  0.5635E+03
 MRCHDU: Convergence failed at  48  side 2    Res =  0.4903E+03
 MRCHDU: Convergence failed at  49  side 2    Res =  0.4441E+03
 MRCHDU: Convergence failed at  50  side 2    Res =  0.3994E+03
 MRCHDU: Convergence failed at  51  side 2    Res =  0.3697E+03
 MRCHDU: Convergence failed at  52  side 2    Res =  0.3447E+03
 MRCHDU: Convergence failed at  53  side 2    Res =  0.3206E+03
 MRCHDU: Convergence failed at  54  side 2    Res =  0.3032E+03
 MRCHDU: Convergence failed at  55  side 2    Res =  0.2859E+03
 MRCHDU: Convergence failed at  56  side 2    Res =  0.2703E+03
 MRCHDU: Convergence failed at  57  side 2    Res =  0.2582E+03
 MRCHDU: Convergence failed at  58  side 2    Res =  0.2467E+03
 MRCHDU: Convergence failed at  59  side 2    Res =  0.2384E+03
 MRCHDU: Convergence failed at  60  side 2    Res =  0.2279E+03
 MRCHDU: Convergence failed at  61  side 2    Res =  0.2206E+03
 MRCHDU: Convergence failed at  62  side 2    Res =  0.2122E+03
 MRCHDU: Convergence failed at  63  side 2    Res =  0.2047E+03
 MRCHDU: Convergence failed at  64  side 2    Res =  0.1976E+03
 MRCHDU: Convergence failed at  65  side 2    Res =  0.1923E+03
 MRCHDU: Convergence failed at  66  side 2    Res =  0.1879E+03
 MRCHDU: Convergence failed at  67  side 2    Res =  0.1811E+03
 MRCHDU: Convergence failed at  68  side 2    Res =  0.1779E+03
 MRCHDU: Convergence failed at  69  side 2    Res =  0.1726E+03
 MRCHDU: Convergence failed at  70  side 2    Res =  0.1655E+03
 MRCHDU: Convergence failed at  71  side 2    Res =  0.2928E+03
 MRCHDU: Convergence failed at  72  side 2    Res =  0.3489E+03
 MRCHDU: Convergence failed at  73  side 2    Res =  0.4611E+03
 MRCHDU: Convergence failed at  74  side 2    Res =  0.7315E+03
 MRCHDU: Convergence failed at  75  side 2    Res =  0.1993E+04
 MRCHDU: Convergence failed at  76  side 2    Res =  0.7534E+02
 MRCHDU: Convergence failed at  77  side 2    Res =  0.2146E+04
 MRCHDU: Convergence failed at  78  side 2    Res =  0.2263E+04
 MRCHDU: Convergence failed at  79  side 2    Res =  0.1668E+04
 MRCHDU: Convergence failed at  80  side 2    Res =  0.3310E+04
 MRCHDU: Convergence failed at  81  side 2    Res =  0.6033E+02
 MRCHDU: Convergence failed at  82  side 2    Res =  0.3390E+03
 MRCHDU: Convergence failed at  83  side 2    Res =  0.2061E+03
 MRCHDU: Convergence failed at  84  side 2    Res =  0.1661E+03
 MRCHDU: Convergence failed at  85  side 2    Res =  0.9108E+02
 MRCHDU: Convergence failed at  87  side 2    Res =  0.2208E-01
 Side 1  free  transition at x/c =  0.9825   76
 Side 2  free  transition at x/c =  0.0060   11

   2   rms: 0.8851E+01   max: -.1508E+03   D at    2  2   RLX: 0.003
       a = -4.000      CL = -4.1908
      Cm =  1.0188     CD =  0.00172   =>   CDf =  0.00115    CDp =  0.00057

 MRCHDU: Convergence failed at  86  side 2    Res =  0.1900E-01
 Side 1  free  transition at x/c =  0.9825   77
 Side 2  free  transition at x/c =  0.0060   10
 idif Ue xi dudx           1  0.34687483      4.55701351E-03   76.118896    
 Uenew xinew           2  7.80370843E-04  1.02519989E-05

   3   rms: 0.2116E+02   max: 0.3742E+03   T at    2  1   RLX: 0.003
       a = -4.000      CL = -3.0202
      Cm =  0.6762     CD =  0.02040   =>   CDf =  0.00223    CDp =  0.01817

 Side 1  free  transition at x/c =  0.9827   76
 Side 2  free  transition at x/c =  0.0060   11

   4   rms: 0.5906E+02   max: -.1034E+04   T at    2  2   RLX: 0.000
       a = -4.000      CL = -3.0178
      Cm =  0.6753     CD =  0.02061   =>   CDf =  0.00260    CDp =  0.01801

 Side 1  free  transition at x/c =  0.9828   77
 Side 2  free  transition at x/c =  0.0060   10
 idif Ue xi dudx           1  0.35008478      4.55188751E-03   76.909805    
 Uenew xinew           2  3.94239614E-04  5.12599945E-06

   5   rms: 0.2762E+02   max: 0.4914E+03   D at    2  1   RLX: 0.003
       a = -4.000      CL = -3.0172
      Cm =  0.6753     CD =  0.02092   =>   CDf =  0.00222    CDp =  0.01869

 Side 1  free  transition at x/c =  0.9830   76
 Side 2  free  transition at x/c =  0.0060   11

   6   rms: 0.2015E+02   max: -.3543E+03   T at    2  2   RLX: 0.001
       a = -4.000      CL = -3.0127
      Cm =  0.6740     CD =  0.02103   =>   CDf =  0.00260    CDp =  0.01843

 Side 1  free  transition at x/c =  0.9832   77
 Side 2  free  transition at x/c =  0.0060   10
 idif Ue xi dudx           1  0.35348091      4.54831123E-03   77.716957    
 Uenew xinew           2  1.20439581E-04  1.54972076E-06

   7   rms: 0.3185E+02   max: 0.5703E+03   T at    2  1   RLX: 0.002
       a = -4.000      CL = -3.0125
      Cm =  0.6741     CD =  0.02132   =>   CDf =  0.00222    CDp =  0.01910

 Side 1  free  transition at x/c =  0.9834   76
 Side 2  free  transition at x/c =  0.0060   11

   8   rms: 0.1418E+02   max: -.2509E+03   T at    2  2   RLX: 0.002
       a = -4.000      CL = -3.0067
      Cm =  0.6725     CD =  0.02147   =>   CDf =  0.00260    CDp =  0.01888

 Side 1  free  transition at x/c =  0.9836   77
 Side 2  free  transition at x/c =  0.0060   10
 idif Ue xi dudx           1  0.35698768      4.54759598E-03   78.500305    
 Uenew xinew           2  6.55057593E-05  8.34465027E-07

   9   rms: 0.3159E+02   max: 0.5670E+03   D at    2  1   RLX: 0.002
       a = -4.000      CL = -3.0060
      Cm =  0.6725     CD =  0.02176   =>   CDf =  0.00222    CDp =  0.01954

 Side 1  free  transition at x/c =  0.9838   76
 Side 2  free  transition at x/c =  0.0060   11

  10   rms: 0.1210E+02   max: -.2144E+03   D at    2  2   RLX: 0.002
       a = -4.000      CL = -2.9992
      Cm =  0.6706     CD =  0.02194   =>   CDf =  0.00239    CDp =  0.01954

 MRCHDU: Convergence failed at  11  side 2    Res =  0.7991E-05
 Side 1  free  transition at x/c =  0.9841   76
 Side 2  free  transition at x/c =  0.0059   11

  11   rms: 0.1255E+02   max: -.2223E+03   D at    2  2   RLX: 0.002
       a = -4.000      CL = -3.0076
      Cm =  0.6732     CD =  0.02239   =>   CDf =  0.00238    CDp =  0.02001

 Side 1  free  transition at x/c =  0.9844   76
 Side 2  free  transition at x/c =  0.0059   11

  12   rms: 0.1573E+02   max: -.2802E+03   T at    2  2   RLX: 0.002
       a = -4.000      CL = -3.0048
      Cm =  0.6725     CD =  0.02259   =>   CDf =  0.00238    CDp =  0.02021

 Side 1  free  transition at x/c =  0.9846   76
 Side 2  free  transition at x/c =  0.0059   11

  13   rms: 0.6881E+01   max: -.1063E+03   D at    2  2   RLX: 0.005
       a = -4.000      CL = -2.9926
      Cm =  0.6690     CD =  0.02292   =>   CDf =  0.00259    CDp =  0.02033

 Side 1  free  transition at x/c =  0.9851   77
 Side 2  free  transition at x/c =  0.0059   10
 idif Ue xi dudx           1  0.36975917      4.57155704E-03   80.882545    
 Uenew xinew           2  2.00552586E-03  2.47955322E-05

  14   rms: 0.1157E+02   max: 0.2012E+03   T at    2  1   RLX: 0.006
       a = -4.000      CL = -2.9904
      Cm =  0.6694     CD =  0.02370   =>   CDf =  0.00220    CDp =  0.02150

 Side 1  free  transition at x/c =  0.9858   76
 Side 2  free  transition at x/c =  0.0059   11

  15   rms: 0.2831E+03   max: 0.4839E+04   D at    2  2   RLX: 0.000
       a = -4.000      CL = -2.9926
      Cm =  0.6708     CD =  0.02390   =>   CDf =  0.00238    CDp =  0.02152

 Side 1  free  transition at x/c =  0.9857   76
 Side 2  free  transition at x/c =  0.0059   11

  16   rms: 0.1644E+01   max: 0.9090E+01   D at   88  2   RLX: 0.105
       a = -4.000      CL = -2.7024
      Cm =  0.5980     CD =  0.02970   =>   CDf =  0.00240    CDp =  0.02730

 Side 1  free  transition at x/c =  0.9967   77
 Side 2  free  transition at x/c =  0.0060   11

  17   rms: 0.1074E+01   max: 0.3137E+01   D at   93  2   RLX: 0.209
       a = -4.000      CL = -2.0205
      Cm =  0.4153     CD =  0.03346   =>   CDf =  0.00256    CDp =  0.03090

 Side 1 forced transition at x/c =  1.0000   77
 Side 2  free  transition at x/c =  0.0059   11

  18   rms: 0.8958E+00   max: 0.1173E+01   D at   87  2   RLX: 0.257
       a = -4.000      CL = -1.4237
      Cm =  0.2605     CD =  0.03321   =>   CDf =  0.00286    CDp =  0.03035

 Side 1 forced transition at x/c =  1.0000   78
 Side 2  free  transition at x/c =  0.0060   10

  19   rms: 0.7685E+00   max: -.2892E+01   D at    2  1   RLX: 0.173
       a = -4.000      CL = -1.1223
      Cm =  0.1821     CD =  0.03980   =>   CDf =  0.00275    CDp =  0.03706

 Side 1 forced transition at x/c =  1.0000   78
 Side 2  free  transition at x/c =  0.0061   10

  20   rms: 0.7151E+00   max: -.1543E+01   T at   93  2   RLX: 0.324
       a = -4.000      CL = -0.7048
      Cm =  0.0746     CD =  0.03678   =>   CDf =  0.00279    CDp =  0.03399

 Side 1  free  transition at x/c =  0.9910   77
 Side 2  free  transition at x/c =  0.0063   10

  21   rms: 0.1269E+01   max: -.5098E+01   D at   70  2   RLX: 0.098
       a = -4.000      CL = -0.5142
      Cm =  0.0262     CD =  0.04416   =>   CDf =  0.00285    CDp =  0.04131

 Side 1  free  transition at x/c =  0.9919   77
 Side 2  free  transition at x/c =  0.0067   10

  22   rms: 0.4793E+01   max: -.2435E+02   D at   70  2   RLX: 0.021
       a = -4.000      CL = -0.4415
      Cm =  0.0076     CD =  0.04454   =>   CDf =  0.00297    CDp =  0.04158

 MRCHDU: Convergence failed at  70  side 2    Res =  0.4858E-01
 Side 1  free  transition at x/c =  0.9936   77
 Side 2  free  transition at x/c =  0.0071   10

  23   rms: 0.7486E+02   max: -.4235E+03   D at   70  2   RLX: 0.001
       a = -4.000      CL = -0.3986
      Cm = -0.0028     CD =  0.04615   =>   CDf =  0.00317    CDp =  0.04298

 MRCHDU: Convergence failed at  70  side 2    Res =  0.1621E+00
 Side 1  free  transition at x/c =  0.9960   78
 Side 2  free  transition at x/c =  0.0076   10

  24   rms: 0.5052E+01   max: -.2029E+02   D at   35  2   RLX: 0.025
       a = -4.000      CL = -0.3217
      Cm = -0.0268     CD =  0.05000   =>   CDf =  0.00313    CDp =  0.04687

 MRCHDU: Convergence failed at  39  side 2    Res =  0.1374E+01
 MRCHDU: Convergence failed at  40  side 2    Res =  0.8952E+00
 MRCHDU: Convergence failed at  41  side 2    Res =  0.1780E+01
 Side 1  free  transition at x/c =  0.9994   78
 Side 2  free  transition at x/c =  0.0110   10

  25   rms: 0.1431E+01   max: -.5856E+01   D at   42  2   RLX: 0.085
       a = -4.000      CL = -0.3044
      Cm = -0.0277     CD =  0.05596   =>   CDf =  0.00334    CDp =  0.05262

 Side 1  free  transition at x/c =  0.9997   78
 Side 2  free  transition at x/c =  0.0142   11

  26   rms: 0.1076E+01   max: -.6749E+01   D at   18  2   RLX: 0.074
       a = -4.000      CL = -0.2594
      Cm = -0.0405     CD =  0.05368   =>   CDf =  0.00528    CDp =  0.04840

 Side 1  free  transition at x/c =  0.9989   78
 Side 2  free  transition at x/c =  0.0110   10

  27   rms: 0.5142E+00   max: -.9288E+00   D at   99  2   RLX: 0.362
       a = -4.000      CL = -0.2083
      Cm = -0.0528     CD =  0.03819   =>   CDf =  0.00543    CDp =  0.03276

 MRCHDU: Convergence failed at  10  side 2    Res =  0.3248E+01
 MRCHDU: Convergence failed at  11  side 2    Res =  0.1275E+02
 MRCHDU: Convergence failed at  12  side 2    Res =  0.1566E+02
 MRCHDU: Convergence failed at  13  side 2    Res =  0.1034E+03
 MRCHDU: Convergence failed at  14  side 2    Res =  0.4412E+03
 MRCHDU: Convergence failed at  15  side 2    Res =  0.9467E+01
 MRCHDU: Convergence failed at  16  side 2    Res =  0.7951E+01
 MRCHDU: Convergence failed at  17  side 2    Res =  0.1541E+02
 MRCHDU: Convergence failed at  18  side 2    Res =  0.6172E+02
 MRCHDU: Convergence failed at  19  side 2    Res =  0.2107E+03
 MRCHDU: Convergence failed at  20  side 2    Res =  0.1229E+05
 MRCHDU: Convergence failed at  21  side 2    Res =  0.6737E+02
 MRCHDU: Convergence failed at  22  side 2    Res =  0.3710E+02
 MRCHDU: Convergence failed at  23  side 2    Res =  0.2420E+02
 MRCHDU: Convergence failed at  24  side 2    Res =  0.2347E+02
 MRCHDU: Convergence failed at  25  side 2    Res =  0.3447E+02
 MRCHDU: Convergence failed at  26  side 2    Res =  0.3828E+02
 MRCHDU: Convergence failed at  27  side 2    Res =  0.4117E+02
 MRCHDU: Convergence failed at  28  side 2    Res =  0.4749E+02
 MRCHDU: Convergence failed at  29  side 2    Res =  0.5690E+02
 MRCHDU: Convergence failed at  30  side 2    Res =  0.6483E+02
 MRCHDU: Convergence failed at  31  side 2    Res =  0.6191E+02
 MRCHDU: Convergence failed at  32  side 2    Res =  0.7500E+02
 MRCHDU: Convergence failed at  33  side 2    Res =  0.7526E+02
 MRCHDU: Convergence failed at  34  side 2    Res =  0.6343E+02
 MRCHDU: Convergence failed at  35  side 2    Res =  0.6697E+02
 MRCHDU: Convergence failed at  36  side 2    Res =  0.7205E+02
 MRCHDU: Convergence failed at  37  side 2    Res =  0.7890E+02
 MRCHDU: Convergence failed at  38  side 2    Res =  0.6783E+02
 MRCHDU: Convergence failed at  39  side 2    Res =  0.5000E+02
 MRCHDU: Convergence failed at  40  side 2    Res =  0.4320E+02
 MRCHDU: Convergence failed at  41  side 2    Res =  0.3866E+02
 MRCHDU: Convergence failed at  42  side 2    Res =  0.3394E+02
 MRCHDU: Convergence failed at  43  side 2    Res =  0.5333E+02
 MRCHDU: Convergence failed at  44  side 2    Res =  0.5025E+02
 MRCHDU: Convergence failed at  45  side 2    Res =  0.6015E+02
 MRCHDU: Convergence failed at  46  side 2    Res =  0.6244E+02
 MRCHDU: Convergence failed at  47  side 2    Res =  0.5289E+02
 MRCHDU: Convergence failed at  48  side 2    Res =  0.4623E+02
 MRCHDU: Convergence failed at  49  side 2    Res =  0.4414E+02
 MRCHDU: Convergence failed at  50  side 2    Res =  0.3660E+02
 MRCHDU: Convergence failed at  51  side 2    Res =  0.3407E+02
 MRCHDU: Convergence failed at  52  side 2    Res =  0.3240E+02
 MRCHDU: Convergence failed at  53  side 2    Res =  0.5673E+02
 MRCHDU: Convergence failed at  54  side 2    Res =  0.5553E+02
 MRCHDU: Convergence failed at  55  side 2    Res =  0.3462E+02
 MRCHDU: Convergence failed at  56  side 2    Res =  0.3568E+02
 MRCHDU: Convergence failed at  57  side 2    Res =  0.4836E+02
 MRCHDU: Convergence failed at  58  side 2    Res =  0.5046E+02
 MRCHDU: Convergence failed at  59  side 2    Res =  0.5274E+02
 MRCHDU: Convergence failed at  60  side 2    Res =  0.5536E+02
 MRCHDU: Convergence failed at  61  side 2    Res =  0.1829E+03
 MRCHDU: Convergence failed at  62  side 2    Res =  0.2157E+03
 MRCHDU: Convergence failed at  63  side 2    Res =  0.2613E+03
 MRCHDU: Convergence failed at  64  side 2    Res =  0.3303E+03
 MRCHDU: Convergence failed at  65  side 2    Res =  0.4509E+03
 MRCHDU: Convergence failed at  66  side 2    Res =  0.7104E+03
 MRCHDU: Convergence failed at  67  side 2    Res =  0.8483E+02
 MRCHDU: Convergence failed at  68  side 2    Res =  0.6853E+04
 MRCHDU: Convergence failed at  69  side 2    Res =  0.8084E+02
 MRCHDU: Convergence failed at  70  side 2    Res =  0.1283E+04
 MRCHDU: Convergence failed at  71  side 2    Res =  0.3361E+02
 MRCHDU: Convergence failed at  72  side 2    Res =  0.9234E+02
 MRCHDU: Convergence failed at  73  side 2    Res =  0.1787E+02
 MRCHDU: Convergence failed at  74  side 2    Res =  0.1756E+02
 MRCHDU: Convergence failed at  75  side 2    Res =  0.2449E+02
 MRCHDU: Convergence failed at  76  side 2    Res =  0.1086E+03
 MRCHDU: Convergence failed at  77  side 2    Res =  0.3708E+02
 MRCHDU: Convergence failed at  78  side 2    Res =  0.1678E+02
 MRCHDU: Convergence failed at  79  side 2    Res =  0.1238E+02
 MRCHDU: Convergence failed at  80  side 2    Res =  0.1200E+02
 MRCHDU: Convergence failed at  81  side 2    Res =  0.1356E+02
 MRCHDU: Convergence failed at  82  side 2    Res =  0.1506E+02
 MRCHDU: Convergence failed at  83  side 2    Res =  0.1654E+02
 MRCHDU: Convergence failed at  84  side 2    Res =  0.2465E+02
 MRCHDU: Convergence failed at  95  side 2    Res =  0.5466E+02
 Side 1  free  transition at x/c =  0.9940   78
 Side 2  free  transition at x/c =  0.0067   10

  28   rms: 0.1398E+01   max: 0.3901E+01   D at   84  2   RLX: 0.384
       a = -4.000      CL = -1.3052
      Cm =  0.2652     CD =  0.01047   =>   CDf =  0.00151    CDp =  0.00896

 MRCHDU: Convergence failed at  16  side 2    Res =  0.1013E+00
 MRCHDU: Convergence failed at  17  side 2    Res =  0.7102E-01
 MRCHDU: Convergence failed at  36  side 2    Res =  0.1825E+00
 MRCHDU: Convergence failed at  37  side 2    Res =  0.1543E+00
 MRCHDU: Convergence failed at  38  side 2    Res =  0.1141E+00
 MRCHDU: Convergence failed at  39  side 2    Res =  0.1681E-01
 MRCHDU: Convergence failed at  93  side 2    Res =  0.2766E+01
 Side 1  free  transition at x/c =  0.9869   77
 Side 2  free  transition at x/c =  0.0071   10

  29   rms: 0.5446E+00   max: -.7371E+00   D at   98  2   RLX: 0.362
       a = -4.000      CL = -0.5882
      Cm =  0.0518     CD =  0.03908   =>   CDf =  0.00377    CDp =  0.03531

 MRCHDU: Convergence failed at  17  side 2    Res =  0.1820E+00
 MRCHDU: Convergence failed at  18  side 2    Res =  0.2321E+00
 MRCHDU: Convergence failed at  26  side 2    Res =  0.1100E-01
 MRCHDU: Convergence failed at  39  side 2    Res =  0.2723E+00
 MRCHDU: Convergence failed at  40  side 2    Res =  0.5978E+00
 MRCHDU: Convergence failed at  41  side 2    Res =  0.6527E-01
 MRCHDU: Convergence failed at  43  side 2    Res =  0.8687E+00
 Side 1  free  transition at x/c =  0.9812   76
 Side 2  free  transition at x/c =  0.0066   10

  30   rms: 0.6906E+00   max: 0.5166E+01   T at   76  1   RLX: 0.157
       a = -4.000      CL = -0.4366
      Cm = -0.0021     CD =  0.03817   =>   CDf =  0.00390    CDp =  0.03427

 MRCHDU: Convergence failed at  41  side 2    Res =  0.1231E+00
 MRCHDU: Convergence failed at  42  side 2    Res =  0.2405E+00
 MRCHDU: Convergence failed at  43  side 2    Res =  0.2740E+00
 Side 1  free  transition at x/c =  0.9686   75
 Side 2  free  transition at x/c =  0.0063   10

  31   rms: 0.1533E+01   max: -.1773E+02   T at   75  1   RLX: 0.028
       a = -4.000      CL = -0.3136
      Cm = -0.0494     CD =  0.04735   =>   CDf =  0.00316    CDp =  0.04420

 Side 1  free  transition at x/c =  0.9775   76
 Side 2  free  transition at x/c =  0.0063   10

  32   rms: 0.1030E+01   max: -.3629E+01   D at   16  2   RLX: 0.138
       a = -4.000      CL = -0.3100
      Cm = -0.0721     CD =  0.03566   =>   CDf =  0.00320    CDp =  0.03246

 MRCHDU: Convergence failed at  15  side 2    Res =  0.8446E+00
 MRCHDU: Convergence failed at  16  side 2    Res =  0.2049E+01
 Side 1  free  transition at x/c =  0.9725   76
 Side 2  free  transition at x/c =  0.0064   10

  33   rms: 0.2311E+01   max: -.7953E+01   D at   48  2   RLX: 0.063
       a = -4.000      CL = -0.3395
      Cm = -0.0936     CD =  0.02754   =>   CDf =  0.00340    CDp =  0.02414

 Side 1  free  transition at x/c =  0.9701   76
 Side 2  free  transition at x/c =  0.0066   10

  34   rms: 0.7085E+00   max: -.2721E+01   D at   25  2   RLX: 0.143
       a = -4.000      CL = -0.3233
      Cm = -0.0972     CD =  0.02867   =>   CDf =  0.00369    CDp =  0.02498

 MRCHDU: Convergence failed at  22  side 2    Res =  0.9029E+00
 MRCHDU: Convergence failed at  23  side 2    Res =  0.8141E+00
 MRCHDU: Convergence failed at  24  side 2    Res =  0.1817E+01
 MRCHDU: Convergence failed at  25  side 2    Res =  0.4657E+00
 Side 1  free  transition at x/c =  0.9679   75
 Side 2  free  transition at x/c =  0.0067   10
 idif Ue xi dudx           1  0.35413137      4.90581989E-03   72.185974    
 Uenew xinew           2  2.59189792E-02  3.59058380E-04

  35   rms: 0.3995E+01   max: 0.3591E+02   T at   75  1   RLX: 0.024
       a = -4.000      CL = -0.4861
      Cm = -0.0786     CD =  0.02739   =>   CDf =  0.00407    CDp =  0.02332

 Side 1  free  transition at x/c =  0.9537   73
 Side 2  free  transition at x/c =  0.0075   11

  36   rms: 0.2963E+01   max: 0.2913E+02   T at   73  1   RLX: 0.032
       a = -4.000      CL = -0.5531
      Cm = -0.0624     CD =  0.02926   =>   CDf =  0.00409    CDp =  0.02517

 Side 1  free  transition at x/c =  0.9396   72
 Side 2  free  transition at x/c =  0.0092   11

  37   rms: 0.1427E+01   max: -.4353E+01   D at   37  2   RLX: 0.115
       a = -4.000      CL = -0.5655
      Cm = -0.0587     CD =  0.02363   =>   CDf =  0.00373    CDp =  0.01990

 MRCHDU: Convergence failed at  66  side 2    Res =  0.9032E+00
 MRCHDU: Convergence failed at  67  side 2    Res =  0.9557E+00
 MRCHDU: Convergence failed at  68  side 2    Res =  0.1017E+01
 MRCHDU: Convergence failed at  69  side 2    Res =  0.1059E+01
 MRCHDU: Convergence failed at  70  side 2    Res =  0.1085E+01
 MRCHDU: Convergence failed at  71  side 2    Res =  0.1085E+01
 MRCHDU: Convergence failed at  72  side 2    Res =  0.1013E+01
 MRCHDU: Convergence failed at  73  side 2    Res =  0.1083E+01
 MRCHDU: Convergence failed at  74  side 2    Res =  0.1141E+01
 MRCHDU: Convergence failed at  75  side 2    Res =  0.1460E+01
 MRCHDU: Convergence failed at  76  side 2    Res =  0.2008E+01
 MRCHDU: Convergence failed at  77  side 2    Res =  0.2729E+02
 MRCHDU: Convergence failed at  78  side 2    Res =  0.1733E+01
 MRCHDU: Convergence failed at  79  side 2    Res =  0.9679E+00
 MRCHDU: Convergence failed at  80  side 2    Res =  0.1893E+01
 Side 1  free  transition at x/c =  0.9348   72
 Side 2  free  transition at x/c =  0.0111   11

  38   rms: 0.1033E+01   max: 0.7140E+01   T at   11  2   RLX: 0.121
       a = -4.000      CL = -0.6195
      Cm = -0.0245     CD =  0.02291   =>   CDf =  0.00361    CDp =  0.01929

 Side 1  free  transition at x/c =  0.9328   72
 Side 2  free  transition at x/c =  0.0099   11

  39   rms: 0.7718E+00   max: -.2231E+01   D at   56  2   RLX: 0.224
       a = -4.000      CL = -0.5532
      Cm = -0.0325     CD =  0.02153   =>   CDf =  0.00355    CDp =  0.01798

 Side 1  free  transition at x/c =  0.9342   72
 Side 2  free  transition at x/c =  0.0099   11

  40   rms: 0.6955E+00   max: -.2013E+01   D at   58  2   RLX: 0.248
       a = -4.000      CL = -0.5044
      Cm = -0.0345     CD =  0.01960   =>   CDf =  0.00395    CDp =  0.01565

 Side 1  free  transition at x/c =  0.9354   72
 Side 2  free  transition at x/c =  0.0098   11

  41   rms: 0.6524E+00   max: -.2267E+01   D at   32  2   RLX: 0.221
       a = -4.000      CL = -0.4765
      Cm = -0.0330     CD =  0.01914   =>   CDf =  0.00455    CDp =  0.01459

 MRCHDU: Convergence failed at  28  side 2    Res =  0.3768E+01
 Side 1  free  transition at x/c =  0.9354   72
 Side 2  free  transition at x/c =  0.0100   11

  42   rms: 0.7571E+00   max: -.3994E+01   T at   11  2   RLX: 0.125
       a = -4.000      CL = -0.5232
      Cm = -0.0224     CD =  0.02313   =>   CDf =  0.00553    CDp =  0.01759

 Side 1  free  transition at x/c =  0.9296   71
 Side 2  free  transition at x/c =  0.0147   12

  43   rms: 0.7112E+00   max: 0.5447E+01   D at   13  2   RLX: 0.098
       a = -4.000      CL = -0.5158
      Cm = -0.0206     CD =  0.01965   =>   CDf =  0.00571    CDp =  0.01394

 Side 1  free  transition at x/c =  0.9311   72
 Side 2  free  transition at x/c =  0.0186   12

  44   rms: 0.1257E+01   max: 0.1002E+02   T at   12  2   RLX: 0.107
       a = -4.000      CL = -0.4701
      Cm = -0.0273     CD =  0.01688   =>   CDf =  0.00559    CDp =  0.01129

 Side 1  free  transition at x/c =  0.9340   72
 Side 2  free  transition at x/c =  0.0128   12

  45   rms: 0.2959E+01   max: -.3903E+02   T at   12  2   RLX: 0.013
       a = -4.000      CL = -0.4602
      Cm = -0.0284     CD =  0.02125   =>   CDf =  0.00560    CDp =  0.01565

 Side 1  free  transition at x/c =  0.9348   72
 Side 2  free  transition at x/c =  0.0152   12

  46   rms: 0.3059E+00   max: 0.1628E+01   T at   12  2   RLX: 0.546
       a = -4.000      CL = -0.4514
      Cm = -0.0146     CD =  0.01937   =>   CDf =  0.00516    CDp =  0.01420

 Side 1  free  transition at x/c =  0.9308   72
 Side 2  free  transition at x/c =  0.0117   12

  47   rms: 0.3141E+00   max: -.8357E+00   D at   84  2   RLX: 0.598
       a = -4.000      CL = -0.4224
      Cm = -0.0134     CD =  0.02257   =>   CDf =  0.00471    CDp =  0.01786

 Side 1  free  transition at x/c =  0.9314   72
 Side 2  free  transition at x/c =  0.0118   12

  48   rms: 0.1374E+00   max: -.5998E+00   D at   84  2   RLX: 0.834
       a = -4.000      CL = -0.3596
      Cm = -0.0200     CD =  0.02128   =>   CDf =  0.00533    CDp =  0.01594

 Side 1  free  transition at x/c =  0.9338   73
 Side 2  free  transition at x/c =  0.0115   10

  49   rms: 0.1260E+00   max: 0.4767E+00   D at   13  2
       a = -4.000      CL = -0.3126
      Cm = -0.0289     CD =  0.01945   =>   CDf =  0.00585    CDp =  0.01359

 Side 1  free  transition at x/c =  0.9383   73
 Side 2  free  transition at x/c =  0.0102   10

  50   rms: 0.7059E-01   max: -.6966E+00   D at   10  2   RLX: 0.718
       a = -4.000      CL = -0.2734
      Cm = -0.0376     CD =  0.01743   =>   CDf =  0.00573    CDp =  0.01170

 Side 1  free  transition at x/c =  0.9471   74
 Side 2  free  transition at x/c =  0.0095   10

  51   rms: 0.1494E+00   max: 0.1486E+01   T at   10  2   RLX: 0.680
       a = -4.000      CL = -0.2733
      Cm = -0.0366     CD =  0.01557   =>   CDf =  0.00574    CDp =  0.00983

 Side 1  free  transition at x/c =  0.9464   74
 Side 2  free  transition at x/c =  0.0077   10

  52   rms: 0.5533E-01   max: -.4802E+00   D at   10  2
       a = -4.000      CL = -0.2786
      Cm = -0.0351     CD =  0.01454   =>   CDf =  0.00602    CDp =  0.00852

 Side 1  free  transition at x/c =  0.9459   74
 Side 2  free  transition at x/c =  0.0069   10

  53   rms: 0.1727E-01   max: 0.1530E+00   D at   10  2
       a = -4.000      CL = -0.2799
      Cm = -0.0349     CD =  0.01444   =>   CDf =  0.00614    CDp =  0.00830

 Side 1  free  transition at x/c =  0.9458   74
 Side 2  free  transition at x/c =  0.0069   10

  54   rms: 0.2389E-02   max: 0.2368E-01   D at   10  2
       a = -4.000      CL = -0.2799
      Cm = -0.0350     CD =  0.01445   =>   CDf =  0.00612    CDp =  0.00833

 Side 1  free  transition at x/c =  0.9458   74
 Side 2  free  transition at x/c =  0.0070   10

  55   rms: 0.7426E-04   max: 0.7616E-03   D at   10  2
       a = -4.000      CL = -0.2799
      Cm = -0.0350     CD =  0.01445   =>   CDf =  0.00612    CDp =  0.00833
 plradd ia,ip,cpol            1           0  1.73681299E-04

 Point added to stored polar  1
 Point written to save file  mh25_Re600k.base.pol                            
 Dump file unspecified or not available
 Calculating wake trajectory ...
 Calculating source influence matrix ...

 Solving BL system ...

 Side 1  free  transition at x/c =  0.9458   74
 Side 2  free  transition at x/c =  0.0070   10

   1   rms: 0.1394E+00   max: -.5976E+00   D at   11  2   RLX: 0.837
       a = -3.500      CL = -0.2263
      Cm = -0.0363     CD =  0.01291   =>   CDf =  0.00612    CDp =  0.00679

 MRCHDU: Convergence failed at  10  side 2    Res =  0.2045E+01
 MRCHDU: Convergence failed at  11  side 2    Res =  0.6159E+02
 MRCHDU: Convergence failed at  12  side 2    Res =  0.1847E+02
 MRCHDU: Convergence failed at  13  side 2    Res =  0.2096E+02
 MRCHDU: Convergence failed at  14  side 2    Res =  0.3571E+02
 MRCHDU: Convergence failed at  15  side 2    Res =  0.1372E+03
 MRCHDU: Convergence failed at  16  side 2    Res =  0.8320E+02
 MRCHDU: Convergence failed at  17  side 2    Res =  0.3302E+02
 MRCHDU: Convergence failed at  18  side 2    Res =  0.4043E+02
 MRCHDU: Convergence failed at  19  side 2    Res =  0.4433E+02
 MRCHDU: Convergence failed at  20  side 2    Res =  0.4731E+02
 MRCHDU: Convergence failed at  21  side 2    Res =  0.5175E+02
 MRCHDU: Convergence failed at  22  side 2    Res =  0.1209E+03
 MRCHDU: Convergence failed at  23  side 2    Res =  0.5062E+02
 MRCHDU: Convergence failed at  24  side 2    Res =  0.4620E+02
 MRCHDU: Convergence failed at  25  side 2    Res =  0.4712E+02
 MRCHDU: Convergence failed at  26  side 2    Res =  0.3359E+02
 MRCHDU: Convergence failed at  27  side 2    Res =  0.6016E+02
 MRCHDU: Convergence failed at  28  side 2    Res =  0.6276E+02
 MRCHDU: Convergence failed at  29  side 2    Res =  0.6476E+02
 MRCHDU: Convergence failed at  30  side 2    Res =  0.6707E+02
 MRCHDU: Convergence failed at  31  side 2    Res =  0.6886E+02
 MRCHDU: Convergence failed at  32  side 2    Res =  0.7151E+02
 MRCHDU: Convergence failed at  33  side 2    Res =  0.7343E+02
 MRCHDU: Convergence failed at  34  side 2    Res =  0.7540E+02
 MRCHDU: Convergence failed at  35  side 2    Res =  0.7667E+02
 MRCHDU: Convergence failed at  36  side 2    Res =  0.7849E+02
 MRCHDU: Convergence failed at  37  side 2    Res =  0.7970E+02
 MRCHDU: Convergence failed at  38  side 2    Res =  0.8128E+02
 MRCHDU: Convergence failed at  39  side 2    Res =  0.8235E+02
 MRCHDU: Convergence failed at  40  side 2    Res =  0.8325E+02
 MRCHDU: Convergence failed at  41  side 2    Res =  0.5389E+02
 MRCHDU: Convergence failed at  42  side 2    Res =  0.4217E+02
 MRCHDU: Convergence failed at  43  side 2    Res =  0.1065E+03
 MRCHDU: Convergence failed at  44  side 2    Res =  0.8218E+02
 MRCHDU: Convergence failed at  45  side 2    Res =  0.8382E+02
 MRCHDU: Convergence failed at  46  side 2    Res =  0.7151E+02
 MRCHDU: Convergence failed at  47  side 2    Res =  0.7266E+02
 MRCHDU: Convergence failed at  48  side 2    Res =  0.7383E+02
 MRCHDU: Convergence failed at  49  side 2    Res =  0.7498E+02
 MRCHDU: Convergence failed at  50  side 2    Res =  0.7589E+02
 MRCHDU: Convergence failed at  51  side 2    Res =  0.7694E+02
 MRCHDU: Convergence failed at  52  side 2    Res =  0.7802E+02
 MRCHDU: Convergence failed at  53  side 2    Res =  0.7899E+02
 MRCHDU: Convergence failed at  54  side 2    Res =  0.8034E+02
 MRCHDU: Convergence failed at  55  side 2    Res =  0.8140E+02
 MRCHDU: Convergence failed at  56  side 2    Res =  0.8270E+02
 MRCHDU: Convergence failed at  57  side 2    Res =  0.8380E+02
 MRCHDU: Convergence failed at  58  side 2    Res =  0.8509E+02
 MRCHDU: Convergence failed at  59  side 2    Res =  0.8606E+02
 MRCHDU: Convergence failed at  60  side 2    Res =  0.8098E+02
 MRCHDU: Convergence failed at  61  side 2    Res =  0.8272E+02
 MRCHDU: Convergence failed at  62  side 2    Res =  0.8458E+02
 MRCHDU: Convergence failed at  63  side 2    Res =  0.8659E+02
 MRCHDU: Convergence failed at  64  side 2    Res =  0.8866E+02
 MRCHDU: Convergence failed at  65  side 2    Res =  0.9070E+02
 MRCHDU: Convergence failed at  66  side 2    Res =  0.9342E+02
 MRCHDU: Convergence failed at  67  side 2    Res =  0.9616E+02
 MRCHDU: Convergence failed at  68  side 2    Res =  0.9628E+02
 MRCHDU: Convergence failed at  69  side 2    Res =  0.1013E+03
 MRCHDU: Convergence failed at  70  side 2    Res =  0.1090E+03
 MRCHDU: Convergence failed at  71  side 2    Res =  0.1299E+03
 MRCHDU: Convergence failed at  72  side 2    Res =  0.1687E+03
 MRCHDU: Convergence failed at  73  side 2    Res =  0.3817E+03
 MRCHDU: Convergence failed at  74  side 2    Res =  0.3654E+03
 MRCHDU: Convergence failed at  75  side 2    Res =  0.2611E+03
 MRCHDU: Convergence failed at  76  side 2    Res =  0.2045E+03
 MRCHDU: Convergence failed at  77  side 2    Res =  0.7010E+02
 MRCHDU: Convergence failed at  78  side 2    Res =  0.9807E+02
 MRCHDU: Convergence failed at  79  side 2    Res =  0.1159E+03
 MRCHDU: Convergence failed at  80  side 2    Res =  0.1408E+03
 MRCHDU: Convergence failed at  81  side 2    Res =  0.1438E+03
 MRCHDU: Convergence failed at  82  side 2    Res =  0.1873E+03
 MRCHDU: Convergence failed at  83  side 2    Res =  0.1475E+03
 MRCHDU: Convergence failed at  84  side 2    Res =  0.1184E+03
 Side 1  free  transition at x/c =  0.9438   74
 Side 2  free  transition at x/c =  0.0064   10

   2   rms: 0.1492E+01   max: 0.3598E+01   D at   84  2   RLX: 0.306
       a = -3.500      CL = -1.4991
      Cm =  0.3391     CD =  0.00640   =>   CDf =  0.00124    CDp =  0.00516

 MRCHDU: Convergence failed at  16  side 2    Res =  0.5096E+00
 MRCHDU: Convergence failed at  17  side 2    Res =  0.3582E+00
 MRCHDU: Convergence failed at  86  side 2    Res =  0.5597E+01
 MRCHDU: Convergence failed at  87  side 2    Res =  0.7574E+01
 MRCHDU: Convergence failed at  88  side 2    Res =  0.6768E+01
 MRCHDU: Convergence failed at  89  side 2    Res =  0.5698E+02
 MRCHDU: Convergence failed at  90  side 2    Res =  0.2511E+02
 Side 1  free  transition at x/c =  0.9502   74
 Side 2  free  transition at x/c =  0.0068   10

   3   rms: 0.6224E+00   max: -.4627E+01   T at   74  1   RLX: 0.108
       a = -3.500      CL = -0.7655
      Cm =  0.1339     CD =  0.04777   =>   CDf =  0.00206    CDp =  0.04572

 Side 1  free  transition at x/c =  0.9605   75
 Side 2  free  transition at x/c =  0.0069   10

   4   rms: 0.4709E+00   max: -.1145E+01   D at   11  2   RLX: 0.437
       a = -3.500      CL = -0.4507
      Cm =  0.0475     CD =  0.04757   =>   CDf =  0.00210    CDp =  0.04547

 Side 1  free  transition at x/c =  0.9684   75
 Side 2  free  transition at x/c =  0.0075   10

   5   rms: 0.5984E+00   max: -.3193E+01   D at   18  2   RLX: 0.157
       a = -3.500      CL = -0.3400
      Cm =  0.0074     CD =  0.05298   =>   CDf =  0.00222    CDp =  0.05075

 Side 1  free  transition at x/c =  0.9634   75
 Side 2  free  transition at x/c =  0.0068   10

   6   rms: 0.1428E+01   max: -.1335E+02   D at   18  2   RLX: 0.037
       a = -3.500      CL = -0.3073
      Cm = -0.0025     CD =  0.06134   =>   CDf =  0.00231    CDp =  0.05903

 MRCHDU: Convergence failed at  18  side 2    Res =  0.1422E+00
 MRCHDU: Convergence failed at  19  side 2    Res =  0.5608E+00
 MRCHDU: Convergence failed at  20  side 2    Res =  0.5276E+00
 MRCHDU: Convergence failed at  21  side 2    Res =  0.5576E+00
 MRCHDU: Convergence failed at  22  side 2    Res =  0.5480E+00
 MRCHDU: Convergence failed at  23  side 2    Res =  0.5330E+00
 MRCHDU: Convergence failed at  24  side 2    Res =  0.5140E+00
 MRCHDU: Convergence failed at  25  side 2    Res =  0.4920E+00
 MRCHDU: Convergence failed at  26  side 2    Res =  0.4686E+00
 MRCHDU: Convergence failed at  27  side 2    Res =  0.4441E+00
 MRCHDU: Convergence failed at  28  side 2    Res =  0.4191E+00
 MRCHDU: Convergence failed at  29  side 2    Res =  0.3940E+00
 MRCHDU: Convergence failed at  30  side 2    Res =  0.3691E+00
 MRCHDU: Convergence failed at  31  side 2    Res =  0.3444E+00
 MRCHDU: Convergence failed at  32  side 2    Res =  0.3199E+00
 MRCHDU: Convergence failed at  33  side 2    Res =  0.2957E+00
 MRCHDU: Convergence failed at  34  side 2    Res =  0.2718E+00
 MRCHDU: Convergence failed at  35  side 2    Res =  0.2483E+00
 MRCHDU: Convergence failed at  36  side 2    Res =  0.2250E+00
 MRCHDU: Convergence failed at  37  side 2    Res =  0.2020E+00
 MRCHDU: Convergence failed at  38  side 2    Res =  0.1791E+00
 MRCHDU: Convergence failed at  39  side 2    Res =  0.1566E+00
 MRCHDU: Convergence failed at  40  side 2    Res =  0.1341E+00
 MRCHDU: Convergence failed at  41  side 2    Res =  0.1118E+00
 MRCHDU: Convergence failed at  42  side 2    Res =  0.8961E-01
 MRCHDU: Convergence failed at  43  side 2    Res =  0.2710E+01
 MRCHDU: Convergence failed at  44  side 2    Res =  0.2055E+01
 MRCHDU: Convergence failed at  45  side 2    Res =  0.1052E+01
 MRCHDU: Convergence failed at  46  side 2    Res =  0.7575E+00
 Side 1  free  transition at x/c =  0.9631   75
 Side 2  free  transition at x/c =  0.0071   10

   7   rms: 0.1780E+01   max: 0.1389E+02   D at   42  2   RLX: 0.108
       a = -3.500      CL = -0.0040
      Cm = -0.0663     CD =  0.04013   =>   CDf =  0.00256    CDp =  0.03757

 MRCHDU: Convergence failed at  33  side 2    Res =  0.1252E+01
 MRCHDU: Convergence failed at  34  side 2    Res =  0.1320E+01
 MRCHDU: Convergence failed at  35  side 2    Res =  0.1423E+01
 MRCHDU: Convergence failed at  36  side 2    Res =  0.1566E+01
 MRCHDU: Convergence failed at  41  side 2    Res =  0.1686E+02
 Side 1  free  transition at x/c =  0.9606   75
 Side 2  free  transition at x/c =  0.0072   10

   8   rms: 0.1762E+02   max: -.1127E+03   D at   22  2   RLX: 0.004
       a = -3.500      CL =  0.0269
      Cm = -0.0607     CD =  0.03618   =>   CDf =  0.00346    CDp =  0.03272

 MRCHDU: Convergence failed at  22  side 2    Res =  0.2644E-02
 Side 1  free  transition at x/c =  0.9611   75
 Side 2  free  transition at x/c =  0.0075   10

   9   rms: 0.2893E+01   max: -.2539E+02   D at   22  2   RLX: 0.020
       a = -3.500      CL =  0.0274
      Cm = -0.0601     CD =  0.03463   =>   CDf =  0.00374    CDp =  0.03089

 MRCHDU: Convergence failed at  22  side 2    Res =  0.1724E+00
 MRCHDU: Convergence failed at  23  side 2    Res =  0.4702E+00
 MRCHDU: Convergence failed at  28  side 2    Res =  0.6507E+00
 MRCHDU: Convergence failed at  29  side 2    Res =  0.9415E+00
 MRCHDU: Convergence failed at  30  side 2    Res =  0.9385E+00
 MRCHDU: Convergence failed at  31  side 2    Res =  0.9405E+00
 MRCHDU: Convergence failed at  32  side 2    Res =  0.9445E+00
 MRCHDU: Convergence failed at  33  side 2    Res =  0.9423E+00
 MRCHDU: Convergence failed at  34  side 2    Res =  0.9416E+00
 MRCHDU: Convergence failed at  35  side 2    Res =  0.9427E+00
 MRCHDU: Convergence failed at  36  side 2    Res =  0.9470E+00
 MRCHDU: Convergence failed at  37  side 2    Res =  0.4208E+00
 MRCHDU: Convergence failed at  38  side 2    Res =  0.9630E+00
 MRCHDU: Convergence failed at  39  side 2    Res =  0.9593E+00
 MRCHDU: Convergence failed at  40  side 2    Res =  0.9586E+00
 MRCHDU: Convergence failed at  41  side 2    Res =  0.9523E+00
 MRCHDU: Convergence failed at  42  side 2    Res =  0.9414E+00
 MRCHDU: Convergence failed at  43  side 2    Res =  0.1082E+01
 MRCHDU: Convergence failed at  44  side 2    Res =  0.1133E+01
 MRCHDU: Convergence failed at  45  side 2    Res =  0.1166E+01
 MRCHDU: Convergence failed at  46  side 2    Res =  0.1211E+01
 MRCHDU: Convergence failed at  47  side 2    Res =  0.7583E+00
 MRCHDU: Convergence failed at  48  side 2    Res =  0.7364E+00
 MRCHDU: Convergence failed at  49  side 2    Res =  0.7135E+00
 MRCHDU: Convergence failed at  50  side 2    Res =  0.6871E+00
 MRCHDU: Convergence failed at  51  side 2    Res =  0.6568E+00
 MRCHDU: Convergence failed at  52  side 2    Res =  0.6232E+00
 MRCHDU: Convergence failed at  53  side 2    Res =  0.5862E+00
 MRCHDU: Convergence failed at  54  side 2    Res =  0.5456E+00
 MRCHDU: Convergence failed at  55  side 2    Res =  0.5017E+00
 MRCHDU: Convergence failed at  56  side 2    Res =  0.4544E+00
 MRCHDU: Convergence failed at  57  side 2    Res =  0.4028E+00
 MRCHDU: Convergence failed at  58  side 2    Res =  0.3463E+00
 MRCHDU: Convergence failed at  59  side 2    Res =  0.2834E+00
 MRCHDU: Convergence failed at  60  side 2    Res =  0.2082E+00
 MRCHDU: Convergence failed at  61  side 2    Res =  0.1076E+00
 MRCHDU: Convergence failed at  64  side 2    Res =  0.7211E+01
 MRCHDU: Convergence failed at  65  side 2    Res =  0.1600E+02
 MRCHDU: Convergence failed at  67  side 2    Res =  0.1784E-04
 Side 1  free  transition at x/c =  0.9609   75
 Side 2  free  transition at x/c =  0.0075   10

  10   rms: 0.3544E+01   max: 0.2386E+02   D at   63  2   RLX: 0.033
       a = -3.500      CL =  0.1844
      Cm = -0.1032     CD =  0.03494   =>   CDf =  0.00228    CDp =  0.03266

 MRCHDU: Convergence failed at  62  side 2    Res =  0.2662E+00
 MRCHDU: Convergence failed at  63  side 2    Res =  0.6357E+00
 MRCHDU: Convergence failed at  64  side 2    Res =  0.6954E+00
 MRCHDU: Convergence failed at  65  side 2    Res =  0.6515E+00
 MRCHDU: Convergence failed at  66  side 2    Res =  0.2873E+00
 MRCHDU: Convergence failed at  67  side 2    Res =  0.8104E+00
 Side 1  free  transition at x/c =  0.9571   75
 Side 2  free  transition at x/c =  0.0070   10

  11   rms: 0.5593E+01   max: 0.3908E+02   D at   12  2   RLX: 0.038
       a = -3.500      CL =  0.1982
      Cm = -0.1174     CD =  0.06059   =>   CDf =  0.00204    CDp =  0.05855

 MRCHDU: Convergence failed at  69  side 2    Res =  0.4906E-01
 MRCHDU: Convergence failed at  70  side 2    Res =  0.3820E-03
 Side 1  free  transition at x/c =  0.9553   74
 Side 2  free  transition at x/c =  0.0076   10

  12   rms: 0.2826E+01   max: 0.2123E+02   D at   11  2   RLX: 0.064
       a = -3.500      CL =  0.2321
      Cm = -0.1181     CD =  0.06435   =>   CDf =  0.00206    CDp =  0.06229

 MRCHDU: Convergence failed at  70  side 2    Res =  0.1502E+02
 MRCHDU: Convergence failed at  71  side 2    Res =  0.1248E+02
 MRCHDU: Convergence failed at  72  side 2    Res =  0.1189E+02
 MRCHDU: Convergence failed at  73  side 2    Res =  0.1223E+02
 MRCHDU: Convergence failed at  74  side 2    Res =  0.1579E+02
 MRCHDU: Convergence failed at  75  side 2    Res =  0.1993E+02
 MRCHDU: Convergence failed at  76  side 2    Res =  0.2423E+02
 MRCHDU: Convergence failed at  77  side 2    Res =  0.1229E+02
 MRCHDU: Convergence failed at  78  side 2    Res =  0.3721E+01
 MRCHDU: Convergence failed at  79  side 2    Res =  0.2380E+01
 MRCHDU: Convergence failed at  82  side 2    Res =  0.2314E+01
 Side 1  free  transition at x/c =  0.9423   74
 Side 2  free  transition at x/c =  0.0083    9
 idif Ue xi dudx           1  0.29325655      3.50344181E-03   83.705269    
 Uenew xinew           2  4.25880067E-02  5.08785248E-04

  13   rms: 0.1177E+01   max: -.4880E+01   D at   68  2   RLX: 0.102
       a = -3.500      CL =  0.2939
      Cm = -0.1281     CD =  0.05627   =>   CDf =  0.00235    CDp =  0.05392

 MRCHDU: Convergence failed at  69  side 2    Res =  0.1834E+00
 MRCHDU: Convergence failed at  70  side 2    Res =  0.1236E+00
 MRCHDU: Convergence failed at  71  side 2    Res =  0.1061E+00
 MRCHDU: Convergence failed at  72  side 2    Res =  0.9363E-01
 MRCHDU: Convergence failed at  73  side 2    Res =  0.5119E-03
 MRCHDU: Convergence failed at  74  side 2    Res =  0.5761E-03
 MRCHDU: Convergence failed at  75  side 2    Res =  0.6076E-03
 MRCHDU: Convergence failed at  76  side 2    Res =  0.5986E-03
 MRCHDU: Convergence failed at  77  side 2    Res =  0.6151E-03
 MRCHDU: Convergence failed at  78  side 2    Res =  0.6275E-03
 MRCHDU: Convergence failed at  79  side 2    Res =  0.6001E-03
 MRCHDU: Convergence failed at  80  side 2    Res =  0.5299E-03
 MRCHDU: Convergence failed at  82  side 2    Res =  0.1426E-04
 MRCHDU: Convergence failed at  83  side 2    Res =  0.5295E-03
 Side 1  free  transition at x/c =  0.9457   74
 Side 2  free  transition at x/c =  0.0076   10

  14   rms: 0.5398E+01   max: 0.2914E+02   D at   72  2   RLX: 0.051
       a = -3.500      CL =  0.2370
      Cm = -0.1126     CD =  0.07277   =>   CDf =  0.00240    CDp =  0.07037

 MRCHDU: Convergence failed at  30  side 2    Res =  0.2121E+01
 MRCHDU: Convergence failed at  31  side 2    Res =  0.1171E+01
 MRCHDU: Convergence failed at  32  side 2    Res =  0.7676E+00
 MRCHDU: Convergence failed at  33  side 2    Res =  0.2497E+00
 Side 1  free  transition at x/c =  0.9427   74
 Side 2  free  transition at x/c =  0.0100    9

  15   rms: 0.7553E+00   max: -.5177E+01   T at   74  1   RLX: 0.097
       a = -3.500      CL =  0.3157
      Cm = -0.1163     CD =  0.04418   =>   CDf =  0.00257    CDp =  0.04161

 MRCHDU: Convergence failed at  29  side 2    Res =  0.7641E-04
 Side 1  free  transition at x/c =  0.9527   75
 Side 2  free  transition at x/c =  0.0094    9
 idif Ue xi dudx           1  0.44816214      5.55038452E-03   80.744339    
 Uenew xinew           2  0.20636056      2.55572796E-03

  16   rms: 0.8557E+00   max: 0.1980E+01   T at   85  2   RLX: 0.346
       a = -3.500      CL = -0.0165
      Cm = -0.0535     CD =  0.03952   =>   CDf =  0.00267    CDp =  0.03685

 MRCHDU: Convergence failed at  76  side 1    Res =  0.1055E+01
 MRCHDU: Convergence failed at  77  side 1    Res =  0.3711E+01
 MRCHDU: Convergence failed at  78  side 1    Res =  0.1860E+01
 MRCHDU: Convergence failed at  12  side 2    Res =  0.2064E+02
 MRCHDU: Convergence failed at  13  side 2    Res =  0.5434E+02
 MRCHDU: Convergence failed at  14  side 2    Res =  0.3486E+02
 MRCHDU: Convergence failed at  15  side 2    Res =  0.4469E+02
 MRCHDU: Convergence failed at  16  side 2    Res =  0.7461E+02
 MRCHDU: Convergence failed at  17  side 2    Res =  0.1294E+03
 MRCHDU: Convergence failed at  18  side 2    Res =  0.8762E+03
 MRCHDU: Convergence failed at  19  side 2    Res =  0.1354E+03
 MRCHDU: Convergence failed at  20  side 2    Res =  0.7177E+02
 MRCHDU: Convergence failed at  21  side 2    Res =  0.8741E+02
 MRCHDU: Convergence failed at  22  side 2    Res =  0.1244E+03
 MRCHDU: Convergence failed at  23  side 2    Res =  0.8547E+02
 MRCHDU: Convergence failed at  24  side 2    Res =  0.4022E+03
 MRCHDU: Convergence failed at  25  side 2    Res =  0.1771E+02
 MRCHDU: Convergence failed at  26  side 2    Res =  0.2044E+03
 MRCHDU: Convergence failed at  27  side 2    Res =  0.8728E+02
 MRCHDU: Convergence failed at  28  side 2    Res =  0.2339E+03
 MRCHDU: Convergence failed at  29  side 2    Res =  0.1805E+04
 MRCHDU: Convergence failed at  30  side 2    Res =  0.1009E+03
 MRCHDU: Convergence failed at  31  side 2    Res =  0.5151E+03
 MRCHDU: Convergence failed at  32  side 2    Res =  0.3147E+03
 MRCHDU: Convergence failed at  33  side 2    Res =  0.2644E+03
 MRCHDU: Convergence failed at  34  side 2    Res =  0.2520E+03
 MRCHDU: Convergence failed at  35  side 2    Res =  0.9949E+02
 MRCHDU: Convergence failed at  36  side 2    Res =  0.3997E+03
 MRCHDU: Convergence failed at  37  side 2    Res =  0.2773E+03
 MRCHDU: Convergence failed at  38  side 2    Res =  0.1296E+03
 MRCHDU: Convergence failed at  39  side 2    Res =  0.1085E+03
 MRCHDU: Convergence failed at  40  side 2    Res =  0.1015E+03
 MRCHDU: Convergence failed at  41  side 2    Res =  0.1212E+03
 MRCHDU: Convergence failed at  42  side 2    Res =  0.1086E+03
 MRCHDU: Convergence failed at  43  side 2    Res =  0.8527E+02
 MRCHDU: Convergence failed at  44  side 2    Res =  0.8345E+02
 MRCHDU: Convergence failed at  45  side 2    Res =  0.8438E+02
 MRCHDU: Convergence failed at  46  side 2    Res =  0.8924E+02
 MRCHDU: Convergence failed at  47  side 2    Res =  0.1209E+03
 MRCHDU: Convergence failed at  48  side 2    Res =  0.1624E+03
 MRCHDU: Convergence failed at  49  side 2    Res =  0.1638E+03
 MRCHDU: Convergence failed at  50  side 2    Res =  0.1646E+03
 MRCHDU: Convergence failed at  51  side 2    Res =  0.1276E+03
 MRCHDU: Convergence failed at  52  side 2    Res =  0.1308E+03
 MRCHDU: Convergence failed at  53  side 2    Res =  0.1372E+03
 MRCHDU: Convergence failed at  54  side 2    Res =  0.1422E+03
 MRCHDU: Convergence failed at  55  side 2    Res =  0.1563E+03
 MRCHDU: Convergence failed at  56  side 2    Res =  0.2040E+03
 MRCHDU: Convergence failed at  57  side 2    Res =  0.5752E+03
 MRCHDU: Convergence failed at  58  side 2    Res =  0.5607E+03
 MRCHDU: Convergence failed at  59  side 2    Res =  0.5382E+03
 MRCHDU: Convergence failed at  60  side 2    Res =  0.5214E+03
 MRCHDU: Convergence failed at  61  side 2    Res =  0.4973E+03
 MRCHDU: Convergence failed at  62  side 2    Res =  0.4526E+03
 MRCHDU: Convergence failed at  63  side 2    Res =  0.8797E+03
 MRCHDU: Convergence failed at  64  side 2    Res =  0.7350E+03
 MRCHDU: Convergence failed at  65  side 2    Res =  0.6257E+03
 MRCHDU: Convergence failed at  66  side 2    Res =  0.1602E+04
 MRCHDU: Convergence failed at  67  side 2    Res =  0.1617E+03
 MRCHDU: Convergence failed at  68  side 2    Res =  0.1631E+03
 MRCHDU: Convergence failed at  69  side 2    Res =  0.2746E+04
 MRCHDU: Convergence failed at  70  side 2    Res =  0.6147E+03
 MRCHDU: Convergence failed at  71  side 2    Res =  0.4016E+03
 MRCHDU: Convergence failed at  72  side 2    Res =  0.1056E+03
 MRCHDU: Convergence failed at  73  side 2    Res =  0.9575E+03
 MRCHDU: Convergence failed at  74  side 2    Res =  0.1306E+04
 MRCHDU: Convergence failed at  75  side 2    Res =  0.3932E+03
 MRCHDU: Convergence failed at  76  side 2    Res =  0.2162E+03
 MRCHDU: Convergence failed at  77  side 2    Res =  0.2127E+03
 MRCHDU: Convergence failed at  78  side 2    Res =  0.2108E+03
 MRCHDU: Convergence failed at  79  side 2    Res =  0.2049E+03
 MRCHDU: Convergence failed at  80  side 2    Res =  0.1928E+03
 MRCHDU: Convergence failed at  81  side 2    Res =  0.9258E+02
 MRCHDU: Convergence failed at  82  side 2    Res =  0.3867E+03
 MRCHDU: Convergence failed at  83  side 2    Res =  0.1033E+03
 MRCHDU: Convergence failed at  84  side 2    Res =  0.3678E+03
 Side 1  free  transition at x/c =  0.9381   73
 Side 2  free  transition at x/c =  0.0197   11

  17   rms: 0.1804E+01   max: -.2345E+02   T at   11  2   RLX: 0.021
       a = -3.500      CL = -1.2225
      Cm =  0.2860     CD =  0.00292   =>   CDf =  0.00142    CDp =  0.00150

 Side 1  free  transition at x/c =  0.9418   73
 Side 2  free  transition at x/c =  0.0164   11

  18   rms: 0.3115E+01   max: -.4178E+02   T at   73  1   RLX: 0.012
       a = -3.500      CL = -0.8742
      Cm =  0.1750     CD =  0.03418   =>   CDf =  0.00178    CDp =  0.03239

 Side 1  free  transition at x/c =  0.9505   74
 Side 2  free  transition at x/c =  0.0166   11

  19   rms: 0.2086E+01   max: -.2058E+02   T at   74  1   RLX: 0.024
       a = -3.500      CL = -0.8619
      Cm =  0.1683     CD =  0.03552   =>   CDf =  0.00180    CDp =  0.03372

 Side 1  free  transition at x/c =  0.9612   75
 Side 2  free  transition at x/c =  0.0167   11

  20   rms: 0.1924E+01   max: -.2356E+02   T at   75  1   RLX: 0.021
       a = -3.500      CL = -0.8534
      Cm =  0.1637     CD =  0.03820   =>   CDf =  0.00183    CDp =  0.03637

 Side 1  free  transition at x/c =  0.9706   76
 Side 2  free  transition at x/c =  0.0168   11

  21   rms: 0.2005E+01   max: -.2580E+02   T at   76  1   RLX: 0.019
       a = -3.500      CL = -0.8600
      Cm =  0.1631     CD =  0.04151   =>   CDf =  0.00185    CDp =  0.03966

 Side 1  free  transition at x/c =  0.9794   76
 Side 2  free  transition at x/c =  0.0170   11

  22   rms: 0.1574E+01   max: -.1449E+02   T at   76  1   RLX: 0.035
       a = -3.500      CL = -0.8754
      Cm =  0.1633     CD =  0.04524   =>   CDf =  0.00186    CDp =  0.04338

 Side 1  free  transition at x/c =  0.9934   77
 Side 2  free  transition at x/c =  0.0172   11

  23   rms: 0.1366E+01   max: -.1027E+02   T at   77  1   RLX: 0.049
       a = -3.500      CL = -0.9125
      Cm =  0.1684     CD =  0.05215   =>   CDf =  0.00190    CDp =  0.05025

 Side 1 forced transition at x/c =  1.0000   78
 Side 2  free  transition at x/c =  0.0174   11

  24   rms: 0.9508E+00   max: -.6439E+01   C at   78  1   RLX: 0.078
       a = -3.500      CL = -0.8553
      Cm =  0.1507     CD =  0.05293   =>   CDf =  0.00193    CDp =  0.05100

 Side 1 forced transition at x/c =  1.0000   78
 Side 2  free  transition at x/c =  0.0174   11

  25   rms: 0.6313E+00   max: -.2144E+01   D at   76  1   RLX: 0.233
       a = -3.500      CL = -0.7035
      Cm =  0.1055     CD =  0.05593   =>   CDf =  0.00203    CDp =  0.05390

 MRCHDU: Convergence failed at  97  side 2    Res =  0.1231E+01
 Side 1 forced transition at x/c =  1.0000   78
 Side 2  free  transition at x/c =  0.0170   11

  26   rms: 0.5684E+00   max: 0.3508E+01   C at   78  1   RLX: 0.362
       a = -3.500      CL = -0.4243
      Cm =  0.0295     CD =  0.05008   =>   CDf =  0.00225    CDp =  0.04783

 Side 1 forced transition at x/c =  1.0000   78
 Side 2  free  transition at x/c =  0.0094   10

  27   rms: 0.4978E+00   max: 0.2945E+01   C at   78  1   RLX: 0.335
       a = -3.500      CL = -0.2849
      Cm = -0.0085     CD =  0.06691   =>   CDf =  0.00237    CDp =  0.06454

 Side 1 forced transition at x/c =  1.0000   78
 Side 2  free  transition at x/c =  0.0077   10

  28   rms: 0.5070E+00   max: -.1887E+01   D at  104  2   RLX: 0.265
       a = -3.500      CL = -0.2487
      Cm = -0.0252     CD =  0.06930   =>   CDf =  0.00233    CDp =  0.06697

 Side 1 forced transition at x/c =  1.0000   78
 Side 2  free  transition at x/c =  0.0074   10

  29   rms: 0.5145E+00   max: -.1817E+01   D at  104  2   RLX: 0.275
       a = -3.500      CL = -0.2376
      Cm = -0.0400     CD =  0.06920   =>   CDf =  0.00227    CDp =  0.06694

 Side 1 forced transition at x/c =  1.0000   78
 Side 2  free  transition at x/c =  0.0077   10

  30   rms: 0.5536E+00   max: -.2354E+01   D at  104  2   RLX: 0.212
       a = -3.500      CL = -0.2354
      Cm = -0.0555     CD =  0.07440   =>   CDf =  0.00219    CDp =  0.07220

 Side 1 forced transition at x/c =  1.0000   78
 Side 2  free  transition at x/c =  0.0089   10

  31   rms: 0.7246E+00   max: -.2889E+01   D at  104  2   RLX: 0.173
       a = -3.500      CL = -0.2573
      Cm = -0.0658     CD =  0.06812   =>   CDf =  0.00214    CDp =  0.06597

 Side 1 forced transition at x/c =  1.0000   78
 Side 2  free  transition at x/c =  0.0107   10
 idif Ue xi dudx           1  0.37188804      4.66156006E-03   79.777596    
 Uenew xinew           2  9.15835239E-03  1.14798546E-04

  32   rms: 0.2975E+01   max: 0.9715E+01   T at   11  2   RLX: 0.058
       a = -3.500      CL = -0.2938
      Cm = -0.0685     CD =  0.06688   =>   CDf =  0.00200    CDp =  0.06488

 Side 1 forced transition at x/c =  1.0000   77
 Side 2  free  transition at x/c =  0.0126   12

  33   rms: 0.7042E+00   max: -.6971E+01   D at    2  2   RLX: 0.072
       a = -3.500      CL = -0.2523
      Cm = -0.0878     CD =  0.05120   =>   CDf =  0.00364    CDp =  0.04757

 Side 1 forced transition at x/c =  1.0000   78
 Side 2  free  transition at x/c =  0.0129   11

  34   rms: 0.2564E+01   max: -.4404E+02   T at    2  1   RLX: 0.011
       a = -3.500      CL = -0.2549
      Cm = -0.0866     CD =  0.05382   =>   CDf =  0.00348    CDp =  0.05034

 Side 1 forced transition at x/c =  1.0000   78
 Side 2  free  transition at x/c =  0.0129   11

  35   rms: 0.5149E+00   max: -.1850E+01   D at  102  2   RLX: 0.270
       a = -3.500      CL = -0.2709
      Cm = -0.0703     CD =  0.03802   =>   CDf =  0.00347    CDp =  0.03455

 Side 1  free  transition at x/c =  0.9897   77
 Side 2  free  transition at x/c =  0.0145   11

  36   rms: 0.6686E+00   max: -.8080E+01   T at   11  2   RLX: 0.062
       a = -3.500      CL = -0.2603
      Cm = -0.0727     CD =  0.04937   =>   CDf =  0.00332    CDp =  0.04605

 Side 1  free  transition at x/c =  0.9875   77
 Side 2  free  transition at x/c =  0.0183   11

  37   rms: 0.8904E+00   max: -.1269E+02   T at   11  2   RLX: 0.039
       a = -3.500      CL = -0.2550
      Cm = -0.0711     CD =  0.05245   =>   CDf =  0.00308    CDp =  0.04937

 Side 1  free  transition at x/c =  0.9860   77
 Side 2  free  transition at x/c =  0.0167   11

  38   rms: 0.7447E+00   max: 0.2300E+01   T at   11  2   RLX: 0.236
       a = -3.500      CL = -0.2136
      Cm = -0.0741     CD =  0.03604   =>   CDf =  0.00312    CDp =  0.03292

 Side 1  free  transition at x/c =  0.9824   77
 Side 2  free  transition at x/c =  0.0104   10

  39   rms: 0.1029E+01   max: -.8599E+01   T at   11  2   RLX: 0.058
       a = -3.500      CL = -0.2220
      Cm = -0.0688     CD =  0.04535   =>   CDf =  0.00294    CDp =  0.04241

 Side 1  free  transition at x/c =  0.9823   77
 Side 2  free  transition at x/c =  0.0098   10

  40   rms: 0.9557E+00   max: -.3747E+01   T at   11  2   RLX: 0.133
       a = -3.500      CL = -0.2101
      Cm = -0.0704     CD =  0.04164   =>   CDf =  0.00265    CDp =  0.03899

 Side 1  free  transition at x/c =  0.9817   76
 Side 2  free  transition at x/c =  0.0087   10

  41   rms: 0.1637E+01   max: -.5664E+01   T at   76  1   RLX: 0.088
       a = -3.500      CL = -0.1804
      Cm = -0.0753     CD =  0.03847   =>   CDf =  0.00267    CDp =  0.03580

 Side 1  free  transition at x/c =  0.9906   77
 Side 2  free  transition at x/c =  0.0074   10

  42   rms: 0.2640E+01   max: 0.8674E+01   T at   10  2   RLX: 0.059
       a = -3.500      CL = -0.1501
      Cm = -0.0715     CD =  0.03828   =>   CDf =  0.00311    CDp =  0.03517

 Side 1  free  transition at x/c =  0.9925   77
 Side 2  free  transition at x/c =  0.0063   10

  43   rms: 0.7479E+00   max: -.2419E+01   D at   27  2   RLX: 0.207
       a = -3.500      CL = -0.1211
      Cm = -0.0695     CD =  0.03728   =>   CDf =  0.00352    CDp =  0.03376

 Side 1  free  transition at x/c =  0.9886   77
 Side 2  free  transition at x/c =  0.0060   10

  44   rms: 0.6022E+00   max: -.1913E+01   D at   28  2   RLX: 0.261
       a = -3.500      CL = -0.0960
      Cm = -0.0702     CD =  0.03342   =>   CDf =  0.00382    CDp =  0.02959

 Side 1  free  transition at x/c =  0.9840   77
 Side 2  free  transition at x/c =  0.0062   10

  45   rms: 0.5105E+00   max: -.1454E+01   D at   29  2   RLX: 0.344
       a = -3.500      CL = -0.0556
      Cm = -0.0753     CD =  0.02941   =>   CDf =  0.00426    CDp =  0.02515

 Side 1  free  transition at x/c =  0.9804   76
 Side 2  free  transition at x/c =  0.0070   10

  46   rms: 0.3758E+00   max: 0.2731E+01   T at   76  1   RLX: 0.311
       a = -3.500      CL = -0.1023
      Cm = -0.0697     CD =  0.02508   =>   CDf =  0.00452    CDp =  0.02056

 Side 1  free  transition at x/c =  0.9663   75
 Side 2  free  transition at x/c =  0.0066   10

  47   rms: 0.3480E+02   max: 0.1874E+03   T at   75  1   RLX: 0.005
       a = -3.500      CL = -0.1897
      Cm = -0.0676     CD =  0.02115   =>   CDf =  0.00462    CDp =  0.01653

 MRCHDU: Convergence failed at  52  side 2    Res =  0.1120E+02
 MRCHDU: Convergence failed at  53  side 2    Res =  0.2756E+01
 MRCHDU: Convergence failed at  54  side 2    Res =  0.1548E+01
 MRCHDU: Convergence failed at  55  side 2    Res =  0.3839E+01
 MRCHDU: Convergence failed at  56  side 2    Res =  0.8216E+00
 MRCHDU: Convergence failed at  57  side 2    Res =  0.4754E+00
 MRCHDU: Convergence failed at  58  side 2    Res =  0.4879E+00
 MRCHDU: Convergence failed at  60  side 2    Res =  0.3520E+01
 MRCHDU: Convergence failed at  61  side 2    Res =  0.1460E+01
 MRCHDU: Convergence failed at  62  side 2    Res =  0.1190E+01
 MRCHDU: Convergence failed at  63  side 2    Res =  0.2306E+01
 MRCHDU: Convergence failed at  64  side 2    Res =  0.8816E+02
 MRCHDU: Convergence failed at  65  side 2    Res =  0.1185E+01
 MRCHDU: Convergence failed at  66  side 2    Res =  0.6011E+00
 MRCHDU: Convergence failed at  67  side 2    Res =  0.2788E+01
 Side 1  free  transition at x/c =  0.9502   74
 Side 2  free  transition at x/c =  0.0065   10

  48   rms: 0.4397E+00   max: -.2725E+01   D at   67  2   RLX: 0.183
       a = -3.500      CL = -0.3596
      Cm =  0.0070     CD =  0.01845   =>   CDf =  0.00562    CDp =  0.01283

 Side 1  free  transition at x/c =  0.9478   74
 Side 2  free  transition at x/c =  0.0066   10

  49   rms: 0.9284E+00   max: -.5859E+01   D at   67  2   RLX: 0.085
       a = -3.500      CL = -0.4010
      Cm =  0.0145     CD =  0.01804   =>   CDf =  0.00557    CDp =  0.01247

 Side 1  free  transition at x/c =  0.9427   73
 Side 2  free  transition at x/c =  0.0068   10

  50   rms: 0.5485E+00   max: -.2952E+01   D at   67  2   RLX: 0.169
       a = -3.500      CL = -0.3698
      Cm =  0.0051     CD =  0.01722   =>   CDf =  0.00562    CDp =  0.01160

 Side 1  free  transition at x/c =  0.9477   74
 Side 2  free  transition at x/c =  0.0066   10

  51   rms: 0.6097E+00   max: -.3197E+01   D at   72  2   RLX: 0.156
       a = -3.500      CL = -0.3865
      Cm =  0.0035     CD =  0.01389   =>   CDf =  0.00579    CDp =  0.00810

 Side 1  free  transition at x/c =  0.9428   73
 Side 2  free  transition at x/c =  0.0068   10

  52   rms: 0.3952E+00   max: -.1768E+01   D at   74  2   RLX: 0.283
       a = -3.500      CL = -0.3391
      Cm = -0.0088     CD =  0.01294   =>   CDf =  0.00591    CDp =  0.00703

 Side 1  free  transition at x/c =  0.9482   74
 Side 2  free  transition at x/c =  0.0066   10

  53   rms: 0.2799E+00   max: -.1520E+01   D at   77  2   RLX: 0.329
       a = -3.500      CL = -0.3352
      Cm = -0.0123     CD =  0.01187   =>   CDf =  0.00612    CDp =  0.00575

 Side 1  free  transition at x/c =  0.9428   73
 Side 2  free  transition at x/c =  0.0066   10

  54   rms: 0.2338E+00   max: -.1013E+01   D at   12  2   RLX: 0.494
       a = -3.500      CL = -0.2647
      Cm = -0.0270     CD =  0.01214   =>   CDf =  0.00624    CDp =  0.00590

 Side 1  free  transition at x/c =  0.9497   74
 Side 2  free  transition at x/c =  0.0065   10

  55   rms: 0.1463E+00   max: 0.9976E+00   D at   75  1   RLX: 0.818
       a = -3.500      CL = -0.2430
      Cm = -0.0314     CD =  0.01288   =>   CDf =  0.00632    CDp =  0.00656

 Side 1  free  transition at x/c =  0.9434   74
 Side 2  free  transition at x/c =  0.0065   10

  56   rms: 0.4672E-01   max: -.3177E+00   D at   11  2
       a = -3.500      CL = -0.2158
      Cm = -0.0367     CD =  0.01297   =>   CDf =  0.00629    CDp =  0.00669

 Side 1  free  transition at x/c =  0.9440   74
 Side 2  free  transition at x/c =  0.0066   10

  57   rms: 0.4980E-02   max: -.3888E-01   D at   11  2
       a = -3.500      CL = -0.2136
      Cm = -0.0371     CD =  0.01295   =>   CDf =  0.00630    CDp =  0.00665

 Side 1  free  transition at x/c =  0.9440   74
 Side 2  free  transition at x/c =  0.0066   10

  58   rms: 0.1439E-03   max: -.8274E-03   D at   11  2
       a = -3.500      CL = -0.2135
      Cm = -0.0372     CD =  0.01295   =>   CDf =  0.00630    CDp =  0.00665

 Side 1  free  transition at x/c =  0.9440   74
 Side 2  free  transition at x/c =  0.0066   10

  59   rms: 0.1752E-05   max: 0.5737E-05   T at   74  1
       a = -3.500      CL = -0.2135
      Cm = -0.0372     CD =  0.01295   =>   CDf =  0.00630    CDp =  0.00665
 plradd ia,ip,cpol            2           0  1.73681299E-04

 Point added to stored polar  1
 Point written to save file  mh25_Re600k.base.pol                            
 Dump file unspecified or not available
 Calculating wake trajectory ...
 Calculating source influence matrix ...

 Solving BL system ...

 Side 1  free  transition at x/c =  0.9440   74
 Side 2  free  transition at x/c =  0.0066   10

   1   rms: 0.1431E+00   max: -.6068E+00   D at   11  2   RLX: 0.824
       a = -3.000      CL = -0.1566
      Cm = -0.0396     CD =  0.01181   =>   CDf =  0.00630    CDp =  0.00552

 Side 1  free  transition at x/c =  0.9426   73
 Side 2  free  transition at x/c =  0.0072   10

   2   rms: 0.4690E-01   max: -.2637E+00   D at   10  2
       a = -3.000      CL = -0.1319
      Cm = -0.0426     CD =  0.01175   =>   CDf =  0.00645    CDp =  0.00530

 Side 1  free  transition at x/c =  0.9454   74
 Side 2  free  transition at x/c =  0.0085   10

   3   rms: 0.3678E-01   max: 0.2795E+00   D at   76  1
       a = -3.000      CL = -0.1426
      Cm = -0.0403     CD =  0.01181   =>   CDf =  0.00653    CDp =  0.00528

 Side 1  free  transition at x/c =  0.9425   73
 Side 2  free  transition at x/c =  0.0083   10

   4   rms: 0.1662E-01   max: -.1677E+00   T at   73  1
       a = -3.000      CL = -0.1308
      Cm = -0.0428     CD =  0.01177   =>   CDf =  0.00651    CDp =  0.00526

 Side 1  free  transition at x/c =  0.9457   74
 Side 2  free  transition at x/c =  0.0088   10

   5   rms: 0.4112E-01   max: 0.3098E+00   D at   76  1
       a = -3.000      CL = -0.1429
      Cm = -0.0403     CD =  0.01181   =>   CDf =  0.00652    CDp =  0.00529

 Side 1  free  transition at x/c =  0.9424   73
 Side 2  free  transition at x/c =  0.0082   10

   6   rms: 0.1738E-01   max: -.1723E+00   T at   73  1
       a = -3.000      CL = -0.1307
      Cm = -0.0429     CD =  0.01177   =>   CDf =  0.00651    CDp =  0.00526

 Side 1  free  transition at x/c =  0.9457   74
 Side 2  free  transition at x/c =  0.0088   10

   7   rms: 0.4164E-01   max: 0.3138E+00   D at   76  1
       a = -3.000      CL = -0.1429
      Cm = -0.0402     CD =  0.01181   =>   CDf =  0.00652    CDp =  0.00528

 Side 1  free  transition at x/c =  0.9424   73
 Side 2  free  transition at x/c =  0.0082   10

   8   rms: 0.1746E-01   max: -.1729E+00   T at   73  1
       a = -3.000      CL = -0.1307
      Cm = -0.0429     CD =  0.01177   =>   CDf =  0.00651    CDp =  0.00526

 Side 1  free  transition at x/c =  0.9457   74
 Side 2  free  transition at x/c =  0.0088   10

   9   rms: 0.4171E-01   max: 0.3143E+00   D at   76  1
       a = -3.000      CL = -0.1429
      Cm = -0.0402     CD =  0.01180   =>   CDf =  0.00652    CDp =  0.00528

 Side 1  free  transition at x/c =  0.9424   73
 Side 2  free  transition at x/c =  0.0082   10

  10   rms: 0.1748E-01   max: -.1730E+00   T at   73  1
       a = -3.000      CL = -0.1307
      Cm = -0.0429     CD =  0.01177   =>   CDf =  0.00651    CDp =  0.00526

 Side 1  free  transition at x/c =  0.9457   74
 Side 2  free  transition at x/c =  0.0088   10

  11   rms: 0.4173E-01   max: 0.3144E+00   D at   76  1
       a = -3.000      CL = -0.1429
      Cm = -0.0402     CD =  0.01180   =>   CDf =  0.00652    CDp =  0.00528

 Side 1  free  transition at x/c =  0.9424   73
 Side 2  free  transition at x/c =  0.0082   10

  12   rms: 0.1748E-01   max: -.1730E+00   T at   73  1
       a = -3.000      CL = -0.1307
      Cm = -0.0429     CD =  0.01177   =>   CDf =  0.00651    CDp =  0.00526

 Side 1  free  transition at x/c =  0.9457   74
 Side 2  free  transition at x/c =  0.0088   10

  13   rms: 0.4172E-01   max: 0.3144E+00   D at   76  1
       a = -3.000      CL = -0.1429
      Cm = -0.0402     CD =  0.01180   =>   CDf =  0.00652    CDp =  0.00528

 Side 1  free  transition at x/c =  0.9424   73
 Side 2  free  transition at x/c =  0.0082   10

  14   rms: 0.1748E-01   max: -.1730E+00   T at   73  1
       a = -3.000      CL = -0.1307
      Cm = -0.0429     CD =  0.01177   =>   CDf =  0.00651    CDp =  0.00526

 Side 1  free  transition at x/c =  0.9457   74
 Side 2  free  transition at x/c =  0.0088   10

  15   rms: 0.4172E-01   max: 0.3144E+00   D at   76  1
       a = -3.000      CL = -0.1429
      Cm = -0.0402     CD =  0.01180   =>   CDf =  0.00652    CDp =  0.00528

 Side 1  free  transition at x/c =  0.9424   73
 Side 2  free  transition at x/c =  0.0082   10

  16   rms: 0.1748E-01   max: -.1730E+00   T at   73  1
       a = -3.000      CL = -0.1307
      Cm = -0.0429     CD =  0.01177   =>   CDf =  0.00651    CDp =  0.00526

 MRCHDU: Convergence failed at  74  side 1    Res =  0.5003E-05
 Side 1  free  transition at x/c =  0.9457   74
 Side 2  free  transition at x/c =  0.0088   10

  17   rms: 0.4173E-01   max: 0.3144E+00   D at   76  1
       a = -3.000      CL = -0.1429
      Cm = -0.0402     CD =  0.01180   =>   CDf =  0.00652    CDp =  0.00528

 Side 1  free  transition at x/c =  0.9424   73
 Side 2  free  transition at x/c =  0.0082   10

  18   rms: 0.1748E-01   max: -.1730E+00   T at   73  1
       a = -3.000      CL = -0.1307
      Cm = -0.0429     CD =  0.01177   =>   CDf =  0.00651    CDp =  0.00526

 Side 1  free  transition at x/c =  0.9457   74
 Side 2  free  transition at x/c =  0.0088   10

  19   rms: 0.4172E-01   max: 0.3144E+00   D at   76  1
       a = -3.000      CL = -0.1429
      Cm = -0.0402     CD =  0.01180   =>   CDf =  0.00652    CDp =  0.00528

 Side 1  free  transition at x/c =  0.9424   73
 Side 2  free  transition at x/c =  0.0082   10

  20   rms: 0.1748E-01   max: -.1730E+00   T at   73  1
       a = -3.000      CL = -0.1307
      Cm = -0.0429     CD =  0.01177   =>   CDf =  0.00651    CDp =  0.00526

 Side 1  free  transition at x/c =  0.9457   74
 Side 2  free  transition at x/c =  0.0088   10

  21   rms: 0.4173E-01   max: 0.3144E+00   D at   76  1
       a = -3.000      CL = -0.1429
      Cm = -0.0402     CD =  0.01180   =>   CDf =  0.00652    CDp =  0.00528

 Side 1  free  transition at x/c =  0.9424   73
 Side 2  free  transition at x/c =  0.0082   10

  22   rms: 0.1748E-01   max: -.1730E+00   T at   73  1
       a = -3.000      CL = -0.1307
      Cm = -0.0429     CD =  0.01177   =>   CDf =  0.00651    CDp =  0.00526

 Side 1  free  transition at x/c =  0.9457   74
 Side 2  free  transition at x/c =  0.0088   10

  23   rms: 0.4172E-01   max: 0.3144E+00   D at   76  1
       a = -3.000      CL = -0.1429
      Cm = -0.0402     CD =  0.01180   =>   CDf =  0.00652    CDp =  0.00528

 Side 1  free  transition at x/c =  0.9424   73
 Side 2  free  transition at x/c =  0.0082   10

  24   rms: 0.1748E-01   max: -.1730E+00   T at   73  1
       a = -3.000      CL = -0.1307
      Cm = -0.0429     CD =  0.01177   =>   CDf =  0.00651    CDp =  0.00526

 Side 1  free  transition at x/c =  0.9457   74
 Side 2  free  transition at x/c =  0.0088   10

  25   rms: 0.4173E-01   max: 0.3144E+00   D at   76  1
       a = -3.000      CL = -0.1429
      Cm = -0.0402     CD =  0.01180   =>   CDf =  0.00652    CDp =  0.00528

 Side 1  free  transition at x/c =  0.9424   73
 Side 2  free  transition at x/c =  0.0082   10

  26   rms: 0.1748E-01   max: -.1730E+00   T at   73  1
       a = -3.000      CL = -0.1307
      Cm = -0.0429     CD =  0.01177   =>   CDf =  0.00651    CDp =  0.00526

 Side 1  free  transition at x/c =  0.9457   74
 Side 2  free  transition at x/c =  0.0088   10

  27   rms: 0.4173E-01   max: 0.3144E+00   D at   76  1
       a = -3.000      CL = -0.1429
      Cm = -0.0402     CD =  0.01180   =>   CDf =  0.00652    CDp =  0.00528

 Side 1  free  transition at x/c =  0.9424   73
 Side 2  free  transition at x/c =  0.0082   10

  28   rms: 0.1748E-01   max: -.1730E+00   T at   73  1
       a = -3.000      CL = -0.1307
      Cm = -0.0429     CD =  0.01177   =>   CDf =  0.00651    CDp =  0.00526

 Side 1  free  transition at x/c =  0.9457   74
 Side 2  free  transition at x/c =  0.0088   10

  29   rms: 0.4173E-01   max: 0.3144E+00   D at   76  1
       a = -3.000      CL = -0.1429
      Cm = -0.0402     CD =  0.01180   =>   CDf =  0.00652    CDp =  0.00528

 Side 1  free  transition at x/c =  0.9424   73
 Side 2  free  transition at x/c =  0.0082   10

  30   rms: 0.1748E-01   max: -.1730E+00   T at   73  1
       a = -3.000      CL = -0.1307
      Cm = -0.0429     CD =  0.01177   =>   CDf =  0.00651    CDp =  0.00526

 Side 1  free  transition at x/c =  0.9457   74
 Side 2  free  transition at x/c =  0.0088   10

  31   rms: 0.4173E-01   max: 0.3144E+00   D at   76  1
       a = -3.000      CL = -0.1429
      Cm = -0.0402     CD =  0.01180   =>   CDf =  0.00652    CDp =  0.00528

 Side 1  free  transition at x/c =  0.9424   73
 Side 2  free  transition at x/c =  0.0082   10

  32   rms: 0.1748E-01   max: -.1730E+00   T at   73  1
       a = -3.000      CL = -0.1307
      Cm = -0.0429     CD =  0.01177   =>   CDf =  0.00651    CDp =  0.00526

 Side 1  free  transition at x/c =  0.9457   74
 Side 2  free  transition at x/c =  0.0088   10

  33   rms: 0.4173E-01   max: 0.3144E+00   D at   76  1
       a = -3.000      CL = -0.1429
      Cm = -0.0402     CD =  0.01180   =>   CDf =  0.00652    CDp =  0.00528

 Side 1  free  transition at x/c =  0.9424   73
 Side 2  free  transition at x/c =  0.0082   10

  34   rms: 0.1748E-01   max: -.1730E+00   T at   73  1
       a = -3.000      CL = -0.1307
      Cm = -0.0429     CD =  0.01177   =>   CDf =  0.00651    CDp =  0.00526

 Side 1  free  transition at x/c =  0.9457   74
 Side 2  free  transition at x/c =  0.0088   10

  35   rms: 0.4173E-01   max: 0.3144E+00   D at   76  1
       a = -3.000      CL = -0.1429
      Cm = -0.0402     CD =  0.01180   =>   CDf =  0.00652    CDp =  0.00528

 Side 1  free  transition at x/c =  0.9424   73
 Side 2  free  transition at x/c =  0.0082   10

  36   rms: 0.1748E-01   max: -.1730E+00   T at   73  1
       a = -3.000      CL = -0.1307
      Cm = -0.0429     CD =  0.01177   =>   CDf =  0.00651    CDp =  0.00526

 Side 1  free  transition at x/c =  0.9457   74
 Side 2  free  transition at x/c =  0.0088   10

  37   rms: 0.4173E-01   max: 0.3144E+00   D at   76  1
       a = -3.000      CL = -0.1429
      Cm = -0.0402     CD =  0.01180   =>   CDf =  0.00652    CDp =  0.00528

 Side 1  free  transition at x/c =  0.9424   73
 Side 2  free  transition at x/c =  0.0082   10

  38   rms: 0.1748E-01   max: -.1730E+00   T at   73  1
       a = -3.000      CL = -0.1307
      Cm = -0.0429     CD =  0.01177   =>   CDf =  0.00651    CDp =  0.00526

 Side 1  free  transition at x/c =  0.9457   74
 Side 2  free  transition at x/c =  0.0088   10

  39   rms: 0.4173E-01   max: 0.3144E+00   D at   76  1
       a = -3.000      CL = -0.1429
      Cm = -0.0402     CD =  0.01180   =>   CDf =  0.00652    CDp =  0.00528

 Side 1  free  transition at x/c =  0.9424   73
 Side 2  free  transition at x/c =  0.0082   10

  40   rms: 0.1748E-01   max: -.1730E+00   T at   73  1
       a = -3.000      CL = -0.1307
      Cm = -0.0429     CD =  0.01177   =>   CDf =  0.00651    CDp =  0.00526

 Side 1  free  transition at x/c =  0.9457   74
 Side 2  free  transition at x/c =  0.0088   10

  41   rms: 0.4172E-01   max: 0.3144E+00   D at   76  1
       a = -3.000      CL = -0.1429
[...]
       a = 15.500      CL =  2.1021
      Cm = -0.3126     CD =  0.16169   =>   CDf =  0.00229    CDp =  0.15940

 MRCHDU: Convergence failed at  71  side 1    Res =  0.6697E-05
 MRCHDU: Convergence failed at  75  side 1    Res =  0.4929E-02
 MRCHDU: Convergence failed at  76  side 1    Res =  0.3658E-01
 MRCHDU: Convergence failed at  77  side 1    Res =  0.3603E-01
 MRCHDU: Convergence failed at  78  side 1    Res =  0.3573E-01
 MRCHDU: Convergence failed at  79  side 1    Res =  0.3598E-01
 MRCHDU: Convergence failed at  80  side 1    Res =  0.3637E-01
 MRCHDU: Convergence failed at  81  side 1    Res =  0.3632E-01
 MRCHDU: Convergence failed at  82  side 1    Res =  0.3621E-01
 MRCHDU: Convergence failed at  83  side 1    Res =  0.3601E-01
 MRCHDU: Convergence failed at  84  side 1    Res =  0.3628E-01
 MRCHDU: Convergence failed at  85  side 1    Res =  0.3568E-01
 MRCHDU: Convergence failed at  86  side 1    Res =  0.3347E-01
 MRCHDU: Convergence failed at  87  side 1    Res =  0.3131E-01
 MRCHDU: Convergence failed at  88  side 1    Res =  0.2102E-01
 Side 1  free  transition at x/c =  0.0033   12
 Side 2 forced transition at x/c =  1.0000   74

 133   rms: 0.1348E+05   max: -.8634E+05   C at   88  1   RLX: 0.000
       a = 15.500      CL =  2.1021
      Cm = -0.3126     CD =  0.16170   =>   CDf =  0.00229    CDp =  0.15941

 MRCHDU: Convergence failed at  74  side 1    Res =  0.2014E-01
 MRCHDU: Convergence failed at  75  side 1    Res =  0.3677E-01
 MRCHDU: Convergence failed at  76  side 1    Res =  0.3658E-01
 MRCHDU: Convergence failed at  77  side 1    Res =  0.3603E-01
 MRCHDU: Convergence failed at  78  side 1    Res =  0.3573E-01
 MRCHDU: Convergence failed at  79  side 1    Res =  0.3599E-01
 MRCHDU: Convergence failed at  80  side 1    Res =  0.3638E-01
 MRCHDU: Convergence failed at  81  side 1    Res =  0.3632E-01
 MRCHDU: Convergence failed at  82  side 1    Res =  0.3622E-01
 MRCHDU: Convergence failed at  83  side 1    Res =  0.3602E-01
 MRCHDU: Convergence failed at  84  side 1    Res =  0.3629E-01
 MRCHDU: Convergence failed at  85  side 1    Res =  0.3568E-01
 MRCHDU: Convergence failed at  86  side 1    Res =  0.3347E-01
 MRCHDU: Convergence failed at  87  side 1    Res =  0.3131E-01
 MRCHDU: Convergence failed at  88  side 1    Res =  0.2102E-01
 Side 1  free  transition at x/c =  0.0033   12
 Side 2 forced transition at x/c =  1.0000   74

 134   rms: 0.1477E+05   max: -.9459E+05   C at   88  1   RLX: 0.000
       a = 15.500      CL =  2.1021
      Cm = -0.3126     CD =  0.16171   =>   CDf =  0.00229    CDp =  0.15942

 MRCHDU: Convergence failed at  73  side 1    Res =  0.3476E-01
 MRCHDU: Convergence failed at  74  side 1    Res =  0.3713E-01
 MRCHDU: Convergence failed at  75  side 1    Res =  0.3678E-01
 MRCHDU: Convergence failed at  76  side 1    Res =  0.3659E-01
 MRCHDU: Convergence failed at  77  side 1    Res =  0.3604E-01
 MRCHDU: Convergence failed at  78  side 1    Res =  0.3574E-01
 MRCHDU: Convergence failed at  79  side 1    Res =  0.3599E-01
 MRCHDU: Convergence failed at  80  side 1    Res =  0.3638E-01
 MRCHDU: Convergence failed at  81  side 1    Res =  0.3632E-01
 MRCHDU: Convergence failed at  82  side 1    Res =  0.3622E-01
 MRCHDU: Convergence failed at  83  side 1    Res =  0.3602E-01
 MRCHDU: Convergence failed at  84  side 1    Res =  0.3629E-01
 MRCHDU: Convergence failed at  85  side 1    Res =  0.3568E-01
 MRCHDU: Convergence failed at  86  side 1    Res =  0.3347E-01
 MRCHDU: Convergence failed at  87  side 1    Res =  0.3132E-01
 MRCHDU: Convergence failed at  88  side 1    Res =  0.2103E-01
 Side 1  free  transition at x/c =  0.0033   12
 Side 2 forced transition at x/c =  1.0000   74

 135   rms: 0.1577E+05   max: -.1010E+06   C at   88  1   RLX: 0.000
       a = 15.500      CL =  2.1021
      Cm = -0.3126     CD =  0.16171   =>   CDf =  0.00229    CDp =  0.15943

 MRCHDU: Convergence failed at  71  side 1    Res =  0.1202E-01
 MRCHDU: Convergence failed at  72  side 1    Res =  0.3710E-01
 MRCHDU: Convergence failed at  73  side 1    Res =  0.3740E-01
 MRCHDU: Convergence failed at  74  side 1    Res =  0.3714E-01
 MRCHDU: Convergence failed at  75  side 1    Res =  0.3678E-01
 MRCHDU: Convergence failed at  76  side 1    Res =  0.3659E-01
 MRCHDU: Convergence failed at  77  side 1    Res =  0.3604E-01
 MRCHDU: Convergence failed at  78  side 1    Res =  0.3574E-01
 MRCHDU: Convergence failed at  79  side 1    Res =  0.3600E-01
 MRCHDU: Convergence failed at  80  side 1    Res =  0.3638E-01
 MRCHDU: Convergence failed at  81  side 1    Res =  0.3633E-01
 MRCHDU: Convergence failed at  82  side 1    Res =  0.3622E-01
 MRCHDU: Convergence failed at  83  side 1    Res =  0.3602E-01
 MRCHDU: Convergence failed at  84  side 1    Res =  0.3629E-01
 MRCHDU: Convergence failed at  85  side 1    Res =  0.3569E-01
 MRCHDU: Convergence failed at  86  side 1    Res =  0.3348E-01
 MRCHDU: Convergence failed at  87  side 1    Res =  0.3132E-01
 MRCHDU: Convergence failed at  88  side 1    Res =  0.2103E-01
 Side 1  free  transition at x/c =  0.0033   12
 Side 2 forced transition at x/c =  1.0000   74

 136   rms: 0.1688E+05   max: -.1081E+06   C at   88  1   RLX: 0.000
       a = 15.500      CL =  2.1021
      Cm = -0.3126     CD =  0.16172   =>   CDf =  0.00229    CDp =  0.15943

 MRCHDU: Convergence failed at  71  side 1    Res =  0.6380E-01
 MRCHDU: Convergence failed at  72  side 1    Res =  0.3711E-01
 MRCHDU: Convergence failed at  73  side 1    Res =  0.3740E-01
 MRCHDU: Convergence failed at  74  side 1    Res =  0.3714E-01
 MRCHDU: Convergence failed at  75  side 1    Res =  0.3678E-01
 MRCHDU: Convergence failed at  76  side 1    Res =  0.3660E-01
 MRCHDU: Convergence failed at  77  side 1    Res =  0.3604E-01
 MRCHDU: Convergence failed at  78  side 1    Res =  0.3574E-01
 MRCHDU: Convergence failed at  79  side 1    Res =  0.3600E-01
 MRCHDU: Convergence failed at  80  side 1    Res =  0.3639E-01
 MRCHDU: Convergence failed at  81  side 1    Res =  0.3633E-01
 MRCHDU: Convergence failed at  82  side 1    Res =  0.3623E-01
 MRCHDU: Convergence failed at  83  side 1    Res =  0.3603E-01
 MRCHDU: Convergence failed at  84  side 1    Res =  0.3630E-01
 MRCHDU: Convergence failed at  85  side 1    Res =  0.3569E-01
 MRCHDU: Convergence failed at  86  side 1    Res =  0.3348E-01
 MRCHDU: Convergence failed at  87  side 1    Res =  0.3132E-01
 MRCHDU: Convergence failed at  88  side 1    Res =  0.2103E-01
 Side 1  free  transition at x/c =  0.0033   12
 Side 2 forced transition at x/c =  1.0000   74

 137   rms: 0.1884E+05   max: -.1206E+06   C at   88  1   RLX: 0.000
       a = 15.500      CL =  2.1021
      Cm = -0.3126     CD =  0.16173   =>   CDf =  0.00229    CDp =  0.15944

 MRCHDU: Convergence failed at  71  side 1    Res =  0.1155E+00
 Side 1  free  transition at x/c =  0.0033   12
 Side 2 forced transition at x/c =  1.0000   74

 138   rms: 0.1251E+03   max: 0.6658E+03   T at   81  1   RLX: 0.001
       a = 15.500      CL =  2.1161
      Cm = -0.3118     CD =  0.24586   =>   CDf =  0.00229    CDp =  0.24357

 MRCHDU: Convergence failed at  75  side 1    Res =  0.1473E-01
 MRCHDU: Convergence failed at  76  side 1    Res =  0.2208E-01
 MRCHDU: Convergence failed at  77  side 1    Res =  0.2473E-01
 MRCHDU: Convergence failed at  78  side 1    Res =  0.2677E-01
 MRCHDU: Convergence failed at  79  side 1    Res =  0.2911E-01
 MRCHDU: Convergence failed at  80  side 1    Res =  0.2985E-01
 MRCHDU: Convergence failed at  81  side 1    Res =  0.2678E-01
 MRCHDU: Convergence failed at  82  side 1    Res =  0.2375E-01
 MRCHDU: Convergence failed at  83  side 1    Res =  0.2092E-01
 MRCHDU: Convergence failed at  84  side 1    Res =  0.1959E-01
 MRCHDU: Convergence failed at  85  side 1    Res =  0.1654E-01
 MRCHDU: Convergence failed at  86  side 1    Res =  0.1300E-01
 MRCHDU: Convergence failed at  87  side 1    Res =  0.1129E-01
 Side 1  free  transition at x/c =  0.0033   12
 Side 2 forced transition at x/c =  1.0000   74

 139   rms: 0.8000E+02   max: 0.4711E+03   T at   96  2   RLX: 0.003
       a = 15.500      CL =  2.0510
      Cm = -0.2983     CD =  0.65861   =>   CDf =  0.00226    CDp =  0.65635

 MRCHDU: Convergence failed at  75  side 1    Res =  0.1509E-01
 MRCHDU: Convergence failed at  76  side 1    Res =  0.2154E-01
 MRCHDU: Convergence failed at  77  side 1    Res =  0.2413E-01
 MRCHDU: Convergence failed at  78  side 1    Res =  0.2613E-01
 MRCHDU: Convergence failed at  79  side 1    Res =  0.2837E-01
 MRCHDU: Convergence failed at  80  side 1    Res =  0.2906E-01
 MRCHDU: Convergence failed at  81  side 1    Res =  0.2628E-01
 MRCHDU: Convergence failed at  82  side 1    Res =  0.2362E-01
 MRCHDU: Convergence failed at  83  side 1    Res =  0.2138E-01
 MRCHDU: Convergence failed at  84  side 1    Res =  0.2148E-01
 MRCHDU: Convergence failed at  85  side 1    Res =  0.2082E-01
 MRCHDU: Convergence failed at  86  side 1    Res =  0.2133E-01
 MRCHDU: Convergence failed at  87  side 1    Res =  0.4203E-01
 Side 1  free  transition at x/c =  0.0032   12
 Side 2 forced transition at x/c =  1.0000   74

 140   rms: 0.5111E+01   max: 0.6224E+02   C at   74  2   RLX: 0.017
       a = 15.500      CL =  2.0769
      Cm = -0.2957     CD =  0.50228   =>   CDf =  0.00219    CDp =  0.50008

 MRCHDU: Convergence failed at  75  side 1    Res =  0.1349E-01
 MRCHDU: Convergence failed at  76  side 1    Res =  0.2363E-01
 MRCHDU: Convergence failed at  77  side 1    Res =  0.2571E-01
 MRCHDU: Convergence failed at  78  side 1    Res =  0.2771E-01
 MRCHDU: Convergence failed at  79  side 1    Res =  0.3047E-01
 MRCHDU: Convergence failed at  80  side 1    Res =  0.3209E-01
 MRCHDU: Convergence failed at  81  side 1    Res =  0.2819E-01
 MRCHDU: Convergence failed at  82  side 1    Res =  0.2499E-01
 MRCHDU: Convergence failed at  83  side 1    Res =  0.2218E-01
 MRCHDU: Convergence failed at  84  side 1    Res =  0.2320E-01
 MRCHDU: Convergence failed at  85  side 1    Res =  0.2078E-01
 MRCHDU: Convergence failed at  86  side 1    Res =  0.1813E-01
 MRCHDU: Convergence failed at  87  side 1    Res =  0.2327E-01
 Side 1  free  transition at x/c =  0.0032   11
 Side 2 forced transition at x/c =  1.0000   74

 141   rms: 0.2684E+01   max: 0.3483E+02   C at   74  2   RLX: 0.032
       a = 15.500      CL =  1.9972
      Cm = -0.2701     CD =  0.59753   =>   CDf =  0.00224    CDp =  0.59530

 MRCHDU: Convergence failed at  76  side 1    Res =  0.5810E-01
 MRCHDU: Convergence failed at  77  side 1    Res =  0.1389E+00
 MRCHDU: Convergence failed at  78  side 1    Res =  0.6760E-01
 MRCHDU: Convergence failed at  79  side 1    Res =  0.4218E-01
 MRCHDU: Convergence failed at  80  side 1    Res =  0.3772E-01
 MRCHDU: Convergence failed at  81  side 1    Res =  0.3289E-01
 MRCHDU: Convergence failed at  82  side 1    Res =  0.3199E-01
 MRCHDU: Convergence failed at  83  side 1    Res =  0.2251E-01
 MRCHDU: Convergence failed at  84  side 1    Res =  0.1992E-01
 MRCHDU: Convergence failed at  85  side 1    Res =  0.1759E-01
 MRCHDU: Convergence failed at  86  side 1    Res =  0.1514E-01
 MRCHDU: Convergence failed at  87  side 1    Res =  0.1326E-01
 Side 1  free  transition at x/c =  0.0032   12
 Side 2 forced transition at x/c =  1.0000   74

 142   rms: 0.8960E+01   max: -.5460E+02   T at   96  2   RLX: 0.009
       a = 15.500      CL =  2.0868
      Cm = -0.2922     CD =  0.81910   =>   CDf =  0.00223    CDp =  0.81687

 MRCHDU: Convergence failed at  76  side 1    Res =  0.5717E-01
 MRCHDU: Convergence failed at  77  side 1    Res =  0.1253E+00
 MRCHDU: Convergence failed at  78  side 1    Res =  0.6603E-01
 MRCHDU: Convergence failed at  79  side 1    Res =  0.4184E-01
 MRCHDU: Convergence failed at  80  side 1    Res =  0.4099E-01
 MRCHDU: Convergence failed at  81  side 1    Res =  0.3612E-01
 MRCHDU: Convergence failed at  82  side 1    Res =  0.3298E-01
 MRCHDU: Convergence failed at  83  side 1    Res =  0.2320E-01
 MRCHDU: Convergence failed at  84  side 1    Res =  0.2003E-01
 MRCHDU: Convergence failed at  85  side 1    Res =  0.1705E-01
 MRCHDU: Convergence failed at  86  side 1    Res =  0.1386E-01
 MRCHDU: Convergence failed at  87  side 1    Res =  0.1058E-01
 MRCHDU: Convergence failed at  88  side 1    Res =  0.1052E+00
 Side 1  free  transition at x/c =  0.0033   12
 Side 2 forced transition at x/c =  1.0000   74

 143   rms: 0.4270E+01   max: 0.3975E+02   C at   74  2   RLX: 0.038
       a = 15.500      CL =  2.1114
      Cm = -0.2901     CD =  1.03837   =>   CDf =  0.00224    CDp =  1.03613

 MRCHDU: Convergence failed at  76  side 1    Res =  0.5750E-01
 MRCHDU: Convergence failed at  77  side 1    Res =  0.1421E+00
 MRCHDU: Convergence failed at  78  side 1    Res =  0.6714E-01
 MRCHDU: Convergence failed at  79  side 1    Res =  0.1897E-01
 MRCHDU: Convergence failed at  80  side 1    Res =  0.1459E-01
 MRCHDU: Convergence failed at  81  side 1    Res =  0.2122E-01
 MRCHDU: Convergence failed at  82  side 1    Res =  0.2468E-01
 MRCHDU: Convergence failed at  83  side 1    Res =  0.1790E-01
 MRCHDU: Convergence failed at  84  side 1    Res =  0.1311E-01
 MRCHDU: Convergence failed at  85  side 1    Res =  0.1330E-01
 MRCHDU: Convergence failed at  86  side 1    Res =  0.2141E-01
 MRCHDU: Convergence failed at  92  side 2    Res =  0.2358E+01
 Side 1  free  transition at x/c =  0.0032   11
 Side 2 forced transition at x/c =  1.0000   74

 144   rms: 0.2360E+01   max: 0.3696E+02   C at   74  2   RLX: 0.041
       a = 15.500      CL =  2.0281
      Cm = -0.2707     CD =  0.50776   =>   CDf =  0.00223    CDp =  0.50553

 MRCHDU: Convergence failed at  76  side 1    Res =  0.6347E-01
 MRCHDU: Convergence failed at  77  side 1    Res =  0.8217E-01
 MRCHDU: Convergence failed at  78  side 1    Res =  0.3263E+00
 MRCHDU: Convergence failed at  79  side 1    Res =  0.1274E-01
 MRCHDU: Convergence failed at  80  side 1    Res =  0.9284E-02
 MRCHDU: Convergence failed at  81  side 1    Res =  0.1522E-01
 MRCHDU: Convergence failed at  82  side 1    Res =  0.2068E-01
 MRCHDU: Convergence failed at  83  side 1    Res =  0.2024E-01
 MRCHDU: Convergence failed at  84  side 1    Res =  0.1603E-01
 MRCHDU: Convergence failed at  85  side 1    Res =  0.1496E-01
 MRCHDU: Convergence failed at  86  side 1    Res =  0.2180E-01
 Side 1  free  transition at x/c =  0.0032   12
 Side 2 forced transition at x/c =  1.0000   74

 145   rms: 0.3036E+01   max: 0.4368E+02   C at   77  1   RLX: 0.012
       a = 15.500      CL =  2.0509
      Cm = -0.2785     CD =  0.55480   =>   CDf =  0.00224    CDp =  0.55256

 MRCHDU: Convergence failed at  76  side 1    Res =  0.1774E+00
 MRCHDU: Convergence failed at  77  side 1    Res =  0.2482E-02
 MRCHDU: Convergence failed at  78  side 1    Res =  0.7767E-02
 MRCHDU: Convergence failed at  79  side 1    Res =  0.1861E-01
 MRCHDU: Convergence failed at  80  side 1    Res =  0.2163E-01
 MRCHDU: Convergence failed at  81  side 1    Res =  0.3416E-01
 MRCHDU: Convergence failed at  82  side 1    Res =  0.3003E-01
 MRCHDU: Convergence failed at  83  side 1    Res =  0.2547E-01
 MRCHDU: Convergence failed at  84  side 1    Res =  0.1977E-01
 MRCHDU: Convergence failed at  85  side 1    Res =  0.1709E-01
 MRCHDU: Convergence failed at  86  side 1    Res =  0.2346E-01
 Side 1  free  transition at x/c =  0.0032   12
 Side 2 forced transition at x/c =  1.0000   74

 146   rms: 0.2818E+01   max: 0.1722E+02   C at   74  2   RLX: 0.033
       a = 15.500      CL =  1.9553
      Cm = -0.2586     CD =  0.62045   =>   CDf =  0.00224    CDp =  0.61821

 MRCHDU: Convergence failed at  76  side 1    Res =  0.6460E-01
 MRCHDU: Convergence failed at  77  side 1    Res =  0.8479E-02
 MRCHDU: Convergence failed at  78  side 1    Res =  0.6799E-02
 MRCHDU: Convergence failed at  79  side 1    Res =  0.1632E-01
 MRCHDU: Convergence failed at  80  side 1    Res =  0.2024E-01
 MRCHDU: Convergence failed at  81  side 1    Res =  0.3062E-01
 MRCHDU: Convergence failed at  82  side 1    Res =  0.3875E-01
 MRCHDU: Convergence failed at  83  side 1    Res =  0.2893E-01
 MRCHDU: Convergence failed at  84  side 1    Res =  0.1598E-01
 MRCHDU: Convergence failed at  85  side 1    Res =  0.1455E-01
 MRCHDU: Convergence failed at  86  side 1    Res =  0.2105E-01
 MRCHDU: Convergence failed at  87  side 1    Res =  0.2988E+00
 MRCHDU: Convergence failed at  88  side 1    Res =  0.2293E+00
 Side 1  free  transition at x/c =  0.0034   12
 Side 2 forced transition at x/c =  1.0000   74

 147   rms: 0.1974E+01   max: 0.4007E+02   C at   74  2   RLX: 0.037
       a = 15.500      CL =  1.9579
      Cm = -0.2533     CD =  0.84031   =>   CDf =  0.00223    CDp =  0.83808

 MRCHDU: Convergence failed at  76  side 1    Res =  0.6410E-01
 MRCHDU: Convergence failed at  77  side 1    Res =  0.8973E-02
 MRCHDU: Convergence failed at  78  side 1    Res =  0.7396E-02
 MRCHDU: Convergence failed at  79  side 1    Res =  0.2355E-01
 MRCHDU: Convergence failed at  80  side 1    Res =  0.4852E-01
 MRCHDU: Convergence failed at  81  side 1    Res =  0.1693E-01
 MRCHDU: Convergence failed at  82  side 1    Res =  0.1107E-01
 MRCHDU: Convergence failed at  83  side 1    Res =  0.1534E-01
 MRCHDU: Convergence failed at  84  side 1    Res =  0.1246E-01
 MRCHDU: Convergence failed at  85  side 1    Res =  0.1260E-01
 MRCHDU: Convergence failed at  86  side 1    Res =  0.2150E-01
 MRCHDU: Convergence failed at  87  side 1    Res =  0.3604E-01
 MRCHDU: Convergence failed at  88  side 1    Res =  0.1676E-01
 Side 1  free  transition at x/c =  0.0033   12
 Side 2 forced transition at x/c =  1.0000   74

 148   rms: 0.1397E+01   max: 0.2531E+02   C at   74  2   RLX: 0.059
       a = 15.500      CL =  1.8664
      Cm = -0.2270     CD =  0.76162   =>   CDf =  0.00222    CDp =  0.75940

 MRCHDU: Convergence failed at  76  side 1    Res =  0.7964E-01
 MRCHDU: Convergence failed at  77  side 1    Res =  0.8810E-02
 MRCHDU: Convergence failed at  78  side 1    Res =  0.7430E-02
 MRCHDU: Convergence failed at  79  side 1    Res =  0.2929E-01
 MRCHDU: Convergence failed at  80  side 1    Res =  0.4719E-01
 MRCHDU: Convergence failed at  81  side 1    Res =  0.1949E-01
 MRCHDU: Convergence failed at  82  side 1    Res =  0.1310E-01
 MRCHDU: Convergence failed at  83  side 1    Res =  0.1622E-01
 MRCHDU: Convergence failed at  84  side 1    Res =  0.1367E-01
 MRCHDU: Convergence failed at  85  side 1    Res =  0.1619E-01
 MRCHDU: Convergence failed at  86  side 1    Res =  0.3376E-01
 MRCHDU: Convergence failed at  87  side 1    Res =  0.6874E-01
 Side 1  free  transition at x/c =  0.0033   12
 Side 2 forced transition at x/c =  1.0000   74

 149   rms: 0.1329E+01   max: 0.2028E+02   C at   74  2   RLX: 0.074
       a = 15.500      CL =  1.7137
      Cm = -0.1910     CD =  0.64194   =>   CDf =  0.00219    CDp =  0.63975

 MRCHDU: Convergence failed at  76  side 1    Res =  0.8365E-01
 MRCHDU: Convergence failed at  77  side 1    Res =  0.8152E-02
 MRCHDU: Convergence failed at  78  side 1    Res =  0.7065E-02
 MRCHDU: Convergence failed at  79  side 1    Res =  0.3653E-01
 MRCHDU: Convergence failed at  80  side 1    Res =  0.7594E-01
 MRCHDU: Convergence failed at  81  side 1    Res =  0.3901E-01
 MRCHDU: Convergence failed at  82  side 1    Res =  0.1904E-01
 MRCHDU: Convergence failed at  83  side 1    Res =  0.1932E-01
 MRCHDU: Convergence failed at  84  side 1    Res =  0.1935E-01
 MRCHDU: Convergence failed at  85  side 1    Res =  0.2644E-01
 MRCHDU: Convergence failed at  86  side 1    Res =  0.8648E-01
 MRCHDU: Convergence failed at  87  side 1    Res =  0.1953E+00
 Side 1  free  transition at x/c =  0.0034   12
 Side 2 forced transition at x/c =  1.0000   74

 150   rms: 0.1396E+01   max: 0.2952E+02   C at   74  2   RLX: 0.051
       a = 15.500      CL =  1.6346
      Cm = -0.1747     CD =  0.72950   =>   CDf =  0.00214    CDp =  0.72736


[TIMEOUT]
