
 ===================================================
  XFOIL Version 6.99
  Copyright (C) 2000   Mark Drela, Harold Youngren

  This software comes with ABSOLUTELY NO WARRANTY,
    subject to the GNU General Public License.

  Caveat computor
 ===================================================

 File  xfoil.def  not found

   QUIT    Exit program

  .OPER    Direct operating point(s)
  .MDES    Complex mapping design routine
  .QDES    Surface speed design routine
  .GDES    Geometry design routine

   SAVE f  Write airfoil to labeled coordinate file
   PSAV f  Write airfoil to plain coordinate file
   ISAV f  Write airfoil to ISES coordinate file
   MSAV f  Write airfoil to MSES coordinate file
   REVE    Reverse written-airfoil node ordering

   LOAD f  Read buffer airfoil from coordinate file
   NACA i  Set NACA 4,5-digit airfoil and buffer airfoil
   INTE    Set buffer airfoil by interpolating two airfoils
   NORM    Buffer airfoil normalization toggle
   XYCM rr Change CM reference location, currently  0.25000 0.00000

   BEND    Display structural properties of current airfoil

   PCOP    Set current-airfoil panel nodes directly from buffer airfoil points
   PANE    Set current-airfoil panel nodes ( 160 ) based on curvature
  .PPAR    Show/change paneling

  .PLOP    Plotting options

   WDEF f  Write  current-settings file
   RDEF f  Reread current-settings file
   NAME s  Specify new airfoil name
   NINC    Increment name version number

   Z       Zoom    | (available in all menus)
   U       Unzoom  | 

 XFOIL   c>  
 Labeled airfoil file.  Name:  MH 61  10.26%                                   

 Number of input coordinate points:  68
 Counterclockwise ordering
 Max thickness =     0.102350  at x =   0.277
 Max camber    =     0.015159  at x =   0.373

  LE  x,y  =  -0.00000  -0.00002  |   Chord =   1.00000
  TE  x,y  =   1.00000   0.00000  |

 Current airfoil nodes set from buffer airfoil nodes (  68 )

 XFOIL   c>  
 XFOIL   c>  
 Sharp trailing edge

 Paneling parameters used...
   Number of panel nodes       160
   Panel bunching parameter    1.000
   TE/LE panel density ratio   0.150
   Refined-area/LE panel density ratio    0.200
   Top    side refined area x/c limits  1.000 1.000
   Bottom side refined area x/c limits  1.000 1.000

 XFOIL   c>  
.OPERi   c>  
 Xtr/c     =  1.0000    top    side
 Xtr/c     =  1.0000    bottom side
 Ncrit     =    9.00   ( 0.070 % turb. level )
 Vacc      =  0.0100

 Klag  =  5.6000     Uxwt  =    1.00
 A     =  6.7000     B     =  0.7500       KCt = 0.01485
 CtiniK=  1.8000     CtiniX=  3.3000

..VPAR   c>  
..VPAR   c>  
.OPERi   c>  
 M  =    0.0000
 Re =    150000

.OPERv   c>  
.OPERv   c>  
.OPERv   c>  
 Polar  1 newly created for accumulation
 Airfoil archived with polar: MH 61  10.26%                                   

Enter  polar save filename  OR  <return> for no file   s>  
 New polar save file available

Enter  polar dump filename  OR  <return> for no file   s>  
 Polar dump file will NOT be written

 Polar accumulation enabled

.OPERva   c>   Calculating unit vorticity distributions ...
 Calculating wake trajectory ...
 Calculating source influence matrix ...

 Solving BL system ...

 Initializing BL ...
    side            1  ...
 MRCHUE: Inverse mode at  48     Hk =   3.800
 MRCHUE: Inverse mode at  49     Hk =   4.102
 MRCHUE: Inverse mode at  50     Hk =   4.398
 MRCHUE: Inverse mode at  51     Hk =   4.689
 MRCHUE: Inverse mode at  52     Hk =   4.975
 MRCHUE: Inverse mode at  53     Hk =   5.256
 MRCHUE: Inverse mode at  54     Hk =   5.535
 MRCHUE: Inverse mode at  55     Hk =   5.810
 MRCHUE: Inverse mode at  56     Hk =   6.081
 MRCHUE: Inverse mode at  57     Hk =   6.350
 MRCHUE: Inverse mode at  58     Hk =   6.615
 MRCHUE: Inverse mode at  59     Hk =   6.877
 MRCHUE: Inverse mode at  60     Hk =   7.137
 MRCHUE: Inverse mode at  61     Hk =   7.394
 MRCHUE: Inverse mode at  62     Hk =   7.648
 MRCHUE: Inverse mode at  63     Hk =   7.901
 MRCHUE: Inverse mode at  64     Hk =   8.151
 MRCHUE: Inverse mode at  65     Hk =   8.399
 MRCHUE: Inverse mode at  66     Hk =   8.645
 MRCHUE: Inverse mode at  67     Hk =   8.889
 MRCHUE: Inverse mode at  68     Hk =   9.131
 MRCHUE: Inverse mode at  69     Hk =   9.371
 MRCHUE: Inverse mode at  70     Hk =   9.609
 MRCHUE: Inverse mode at  71     Hk =   9.324
 MRCHUE: Inverse mode at  72     Hk =   8.272
 MRCHUE: Inverse mode at  73     Hk =   7.464
 MRCHUE: Inverse mode at  74     Hk =   6.808
 MRCHUE: Inverse mode at  75     Hk =   6.272
 MRCHUE: Inverse mode at  76     Hk =   5.834
 MRCHUE: Inverse mode at  77     Hk =   5.627
    side            2  ...
 MRCHUE: Inverse mode at   8     Hk =   3.800
 MRCHUE: Inverse mode at   9     Hk =   4.793
 MRCHUE: Inverse mode at  10     Hk =   5.739
 MRCHUE: Convergence failed at  11  side 2    Res =  0.4175E+01
 MRCHUE: Inverse mode at  12     Hk =   7.502
 MRCHUE: Inverse mode at  13     Hk =   9.116
 MRCHUE: Inverse mode at  14     Hk =   8.318
 MRCHUE: Inverse mode at  15     Hk =   2.753
 MRCHUE: Inverse mode at  16     Hk =   2.500
 MRCHUE: Inverse mode at  85     Hk =   2.500
 MRCHUE: Inverse mode at  87     Hk =   3.302

 MRCHDU: Convergence failed at  14  side 2    Res =  0.2922E+01
 MRCHDU: Convergence failed at  15  side 2    Res =  0.8169E+01
 MRCHDU: Convergence failed at  16  side 2    Res =  0.3062E+02
 MRCHDU: Convergence failed at  17  side 2    Res =  0.1375E+02
 MRCHDU: Convergence failed at  18  side 2    Res =  0.1366E+02
 MRCHDU: Convergence failed at  19  side 2    Res =  0.1238E+03
 MRCHDU: Convergence failed at  20  side 2    Res =  0.4912E+02
 MRCHDU: Convergence failed at  21  side 2    Res =  0.5927E+02
 MRCHDU: Convergence failed at  22  side 2    Res =  0.5630E+02
 MRCHDU: Convergence failed at  23  side 2    Res =  0.5946E+02
 MRCHDU: Convergence failed at  24  side 2    Res =  0.5809E+02
 MRCHDU: Convergence failed at  25  side 2    Res =  0.5817E+02
 MRCHDU: Convergence failed at  26  side 2    Res =  0.6115E+02
 MRCHDU: Convergence failed at  27  side 2    Res =  0.6511E+02
 MRCHDU: Convergence failed at  28  side 2    Res =  0.6385E+02
 MRCHDU: Convergence failed at  29  side 2    Res =  0.5958E+02
 MRCHDU: Convergence failed at  30  side 2    Res =  0.6538E+02
 MRCHDU: Convergence failed at  31  side 2    Res =  0.7355E+02
 MRCHDU: Convergence failed at  32  side 2    Res =  0.6915E+02
 MRCHDU: Convergence failed at  33  side 2    Res =  0.7784E+02
 MRCHDU: Convergence failed at  34  side 2    Res =  0.7611E+02
 MRCHDU: Convergence failed at  35  side 2    Res =  0.2851E+02
 MRCHDU: Convergence failed at  36  side 2    Res =  0.3041E+02
 MRCHDU: Convergence failed at  37  side 2    Res =  0.3233E+02
 MRCHDU: Convergence failed at  38  side 2    Res =  0.6553E+02
 MRCHDU: Convergence failed at  39  side 2    Res =  0.7285E+02
 MRCHDU: Convergence failed at  40  side 2    Res =  0.8136E+02
 MRCHDU: Convergence failed at  41  side 2    Res =  0.6373E+02
 MRCHDU: Convergence failed at  42  side 2    Res =  0.6969E+02
 MRCHDU: Convergence failed at  43  side 2    Res =  0.7657E+02
 MRCHDU: Convergence failed at  44  side 2    Res =  0.4624E+02
 MRCHDU: Convergence failed at  45  side 2    Res =  0.4891E+02
 MRCHDU: Convergence failed at  46  side 2    Res =  0.5216E+02
 MRCHDU: Convergence failed at  47  side 2    Res =  0.5545E+02
 MRCHDU: Convergence failed at  48  side 2    Res =  0.5923E+02
 MRCHDU: Convergence failed at  49  side 2    Res =  0.6305E+02
 MRCHDU: Convergence failed at  50  side 2    Res =  0.6769E+02
 MRCHDU: Convergence failed at  51  side 2    Res =  0.7204E+02
 MRCHDU: Convergence failed at  52  side 2    Res =  0.4843E+02
 MRCHDU: Convergence failed at  53  side 2    Res =  0.5056E+02
 MRCHDU: Convergence failed at  54  side 2    Res =  0.5313E+02
 MRCHDU: Convergence failed at  55  side 2    Res =  0.5565E+02
 MRCHDU: Convergence failed at  56  side 2    Res =  0.5851E+02
 MRCHDU: Convergence failed at  57  side 2    Res =  0.6169E+02
 MRCHDU: Convergence failed at  58  side 2    Res =  0.6469E+02
 MRCHDU: Convergence failed at  59  side 2    Res =  0.6799E+02
 MRCHDU: Convergence failed at  60  side 2    Res =  0.7174E+02
 MRCHDU: Convergence failed at  61  side 2    Res =  0.7564E+02
 MRCHDU: Convergence failed at  62  side 2    Res =  0.7914E+02
 MRCHDU: Convergence failed at  63  side 2    Res =  0.8464E+02
 MRCHDU: Convergence failed at  64  side 2    Res =  0.8970E+02
 MRCHDU: Convergence failed at  65  side 2    Res =  0.9490E+02
 MRCHDU: Convergence failed at  66  side 2    Res =  0.1021E+03
 MRCHDU: Convergence failed at  67  side 2    Res =  0.1079E+03
 MRCHDU: Convergence failed at  68  side 2    Res =  0.6601E+02
 MRCHDU: Convergence failed at  69  side 2    Res =  0.6835E+02
 MRCHDU: Convergence failed at  70  side 2    Res =  0.7056E+02
 MRCHDU: Convergence failed at  71  side 2    Res =  0.7327E+02
 MRCHDU: Convergence failed at  72  side 2    Res =  0.7571E+02
 MRCHDU: Convergence failed at  73  side 2    Res =  0.7890E+02
 MRCHDU: Convergence failed at  74  side 2    Res =  0.8150E+02
 MRCHDU: Convergence failed at  75  side 2    Res =  0.8448E+02
 MRCHDU: Convergence failed at  76  side 2    Res =  0.8850E+02
 MRCHDU: Convergence failed at  77  side 2    Res =  0.9243E+02
 MRCHDU: Convergence failed at  78  side 2    Res =  0.9583E+02
 MRCHDU: Convergence failed at  79  side 2    Res =  0.1013E+03
 MRCHDU: Convergence failed at  80  side 2    Res =  0.1072E+03
 MRCHDU: Convergence failed at  81  side 2    Res =  0.1140E+03
 MRCHDU: Convergence failed at  82  side 2    Res =  0.1194E+03
 MRCHDU: Convergence failed at  83  side 2    Res =  0.1445E+03
 MRCHDU: Convergence failed at  84  side 2    Res =  0.2070E+03
 MRCHDU: Convergence failed at  85  side 2    Res =  0.4746E+02
 Side 1  free  transition at x/c =  0.9243   71
 Side 2  free  transition at x/c =  0.0382   14

   1   rms: 0.1379E+01   max: -.1086E+01   U at   85  2   RLX: 0.093
       a = -4.000      CL = -2.6180
      Cm =  0.6251     CD =  0.00792   =>   CDf =  0.00207    CDp =  0.00585

 MRCHDU: Convergence failed at  75  side 2    Res =  0.1052E-01
 Side 1  free  transition at x/c =  0.9266   71
 Side 2  free  transition at x/c =  0.0563   16

   2   rms: 0.1022E+02   max: -.1840E+03   C at   16  2   RLX: 0.003
       a = -4.000      CL = -2.3472
      Cm =  0.5179     CD =  0.01482   =>   CDf =  0.01469    CDp =  0.00012

 MRCHDU: Convergence failed at  75  side 2    Res =  0.8626E-02
 Side 1  free  transition at x/c =  0.9268   71
 Side 2  free  transition at x/c =  0.0643   16

   3   rms: 0.2645E+01   max: 0.3417E+02   C at   16  2   RLX: 0.018
       a = -4.000      CL = -2.2893
      Cm =  0.5060     CD =  0.01478   =>   CDf =  0.01459    CDp =  0.00020

 MRCHDU: Convergence failed at  20  side 2    Res =  0.2229E+00
 MRCHDU: Convergence failed at  21  side 2    Res =  0.3894E+00
 MRCHDU: Convergence failed at  22  side 2    Res =  0.3620E+00
 MRCHDU: Convergence failed at  23  side 2    Res =  0.3401E+00
 MRCHDU: Convergence failed at  24  side 2    Res =  0.3348E+00
 MRCHDU: Convergence failed at  25  side 2    Res =  0.3380E+00
 MRCHDU: Convergence failed at  26  side 2    Res =  0.3441E+00
 MRCHDU: Convergence failed at  27  side 2    Res =  0.3502E+00
 MRCHDU: Convergence failed at  28  side 2    Res =  0.3570E+00
 MRCHDU: Convergence failed at  29  side 2    Res =  0.3639E+00
 MRCHDU: Convergence failed at  30  side 2    Res =  0.3697E+00
 MRCHDU: Convergence failed at  31  side 2    Res =  0.3747E+00
 MRCHDU: Convergence failed at  32  side 2    Res =  0.3801E+00
 MRCHDU: Convergence failed at  33  side 2    Res =  0.3859E+00
 MRCHDU: Convergence failed at  34  side 2    Res =  0.3915E+00
 MRCHDU: Convergence failed at  35  side 2    Res =  0.3972E+00
 MRCHDU: Convergence failed at  36  side 2    Res =  0.4020E+00
 MRCHDU: Convergence failed at  37  side 2    Res =  0.4098E+00
 MRCHDU: Convergence failed at  38  side 2    Res =  0.2422E+00
 MRCHDU: Convergence failed at  39  side 2    Res =  0.2329E+00
 MRCHDU: Convergence failed at  40  side 2    Res =  0.2355E+00
 MRCHDU: Convergence failed at  41  side 2    Res =  0.2376E+00
 MRCHDU: Convergence failed at  42  side 2    Res =  0.2394E+00
 MRCHDU: Convergence failed at  43  side 2    Res =  0.2484E+00
 MRCHDU: Convergence failed at  44  side 2    Res =  0.2499E+00
 MRCHDU: Convergence failed at  45  side 2    Res =  0.2513E+00
 MRCHDU: Convergence failed at  46  side 2    Res =  0.2529E+00
 MRCHDU: Convergence failed at  47  side 2    Res =  0.2543E+00
 MRCHDU: Convergence failed at  48  side 2    Res =  0.2557E+00
 MRCHDU: Convergence failed at  49  side 2    Res =  0.2570E+00
 MRCHDU: Convergence failed at  50  side 2    Res =  0.2582E+00
 MRCHDU: Convergence failed at  51  side 2    Res =  0.2593E+00
 MRCHDU: Convergence failed at  52  side 2    Res =  0.2604E+00
 MRCHDU: Convergence failed at  53  side 2    Res =  0.2615E+00
 MRCHDU: Convergence failed at  54  side 2    Res =  0.2625E+00
 MRCHDU: Convergence failed at  55  side 2    Res =  0.2637E+00
 MRCHDU: Convergence failed at  56  side 2    Res =  0.2652E+00
 MRCHDU: Convergence failed at  57  side 2    Res =  0.2668E+00
 MRCHDU: Convergence failed at  58  side 2    Res =  0.2689E+00
 MRCHDU: Convergence failed at  75  side 2    Res =  0.4455E+00
 MRCHDU: Convergence failed at  76  side 2    Res =  0.8287E+00
 Side 1  free  transition at x/c =  0.9282   71
 Side 2  free  transition at x/c =  0.0894   18

   4   rms: 0.2715E+01   max: 0.2146E+02   C at   18  2   RLX: 0.028
       a = -4.000      CL = -1.7162
      Cm =  0.3670     CD =  0.01622   =>   CDf =  0.00393    CDp =  0.01229

 MRCHDU: Convergence failed at  19  side 2    Res =  0.2648E+01
 MRCHDU: Convergence failed at  20  side 2    Res =  0.2820E+01
 MRCHDU: Convergence failed at  21  side 2    Res =  0.4004E+01
 MRCHDU: Convergence failed at  22  side 2    Res =  0.1008E+02
 MRCHDU: Convergence failed at  23  side 2    Res =  0.1602E+02
 MRCHDU: Convergence failed at  24  side 2    Res =  0.5068E+01
 MRCHDU: Convergence failed at  25  side 2    Res =  0.3057E+01
 MRCHDU: Convergence failed at  26  side 2    Res =  0.2522E+01
 MRCHDU: Convergence failed at  27  side 2    Res =  0.2268E+01
 MRCHDU: Convergence failed at  28  side 2    Res =  0.2135E+01
 MRCHDU: Convergence failed at  29  side 2    Res =  0.2061E+01
 MRCHDU: Convergence failed at  30  side 2    Res =  0.2020E+01
 MRCHDU: Convergence failed at  31  side 2    Res =  0.1992E+01
 MRCHDU: Convergence failed at  32  side 2    Res =  0.1980E+01
 MRCHDU: Convergence failed at  33  side 2    Res =  0.1976E+01
 MRCHDU: Convergence failed at  34  side 2    Res =  0.1976E+01
 MRCHDU: Convergence failed at  35  side 2    Res =  0.1981E+01
 MRCHDU: Convergence failed at  36  side 2    Res =  0.1988E+01
 MRCHDU: Convergence failed at  37  side 2    Res =  0.1999E+01
 MRCHDU: Convergence failed at  38  side 2    Res =  0.2012E+01
 MRCHDU: Convergence failed at  39  side 2    Res =  0.2028E+01
 MRCHDU: Convergence failed at  40  side 2    Res =  0.2048E+01
 MRCHDU: Convergence failed at  41  side 2    Res =  0.2070E+01
 MRCHDU: Convergence failed at  42  side 2    Res =  0.2097E+01
 MRCHDU: Convergence failed at  43  side 2    Res =  0.2127E+01
 MRCHDU: Convergence failed at  44  side 2    Res =  0.2162E+01
 MRCHDU: Convergence failed at  45  side 2    Res =  0.2202E+01
 MRCHDU: Convergence failed at  46  side 2    Res =  0.2247E+01
 MRCHDU: Convergence failed at  47  side 2    Res =  0.2298E+01
 MRCHDU: Convergence failed at  48  side 2    Res =  0.2357E+01
 MRCHDU: Convergence failed at  49  side 2    Res =  0.2424E+01
 MRCHDU: Convergence failed at  50  side 2    Res =  0.2504E+01
 MRCHDU: Convergence failed at  51  side 2    Res =  0.2595E+01
 MRCHDU: Convergence failed at  52  side 2    Res =  0.2703E+01
 MRCHDU: Convergence failed at  53  side 2    Res =  0.2832E+01
 MRCHDU: Convergence failed at  54  side 2    Res =  0.2988E+01
 MRCHDU: Convergence failed at  55  side 2    Res =  0.3181E+01
 MRCHDU: Convergence failed at  56  side 2    Res =  0.3428E+01
 MRCHDU: Convergence failed at  57  side 2    Res =  0.3690E+01
 MRCHDU: Convergence failed at  58  side 2    Res =  0.5046E+01
 MRCHDU: Convergence failed at  59  side 2    Res =  0.2756E+01
 MRCHDU: Convergence failed at  60  side 2    Res =  0.2232E+01
 MRCHDU: Convergence failed at  61  side 2    Res =  0.2659E+01
 MRCHDU: Convergence failed at  63  side 2    Res =  0.3007E+01
 MRCHDU: Convergence failed at  64  side 2    Res =  0.4347E+01
 MRCHDU: Convergence failed at  65  side 2    Res =  0.3724E+01
 MRCHDU: Convergence failed at  66  side 2    Res =  0.3146E+01
 MRCHDU: Convergence failed at  67  side 2    Res =  0.2886E+01
 MRCHDU: Convergence failed at  68  side 2    Res =  0.2715E+01
 MRCHDU: Convergence failed at  69  side 2    Res =  0.2513E+01
 MRCHDU: Convergence failed at  70  side 2    Res =  0.1866E+01
 MRCHDU: Convergence failed at  71  side 2    Res =  0.2104E+01
 MRCHDU: Convergence failed at  72  side 2    Res =  0.2361E+01
 MRCHDU: Convergence failed at  73  side 2    Res =  0.2781E+01
 MRCHDU: Convergence failed at  74  side 2    Res =  0.3669E+01
 MRCHDU: Convergence failed at  75  side 2    Res =  0.3712E+01
 MRCHDU: Convergence failed at  76  side 2    Res =  0.3768E+01
 MRCHDU: Convergence failed at  77  side 2    Res =  0.1988E+02
 MRCHDU: Convergence failed at  78  side 2    Res =  0.1272E+01
 MRCHDU: Convergence failed at  80  side 2    Res =  0.3328E+02
 MRCHDU: Convergence failed at  81  side 2    Res =  0.1225E+02
 Side 1  free  transition at x/c =  0.9308   72
 Side 2  free  transition at x/c =  0.9556   82

   5   rms: 0.9200E+00   max: -.9242E+00   U at   85  2   RLX: 0.376
       a = -4.000      CL = -1.5100
      Cm =  0.3051     CD =  0.00843   =>   CDf =  0.01430    CDp = -0.00587

 Side 1  free  transition at x/c =  0.9248   71
 Side 2  free  transition at x/c =  0.6603   60

   6   rms: 0.9059E+00   max: 0.1064E+02   C at   60  2   RLX: 0.141
       a = -4.000      CL = -1.3485
      Cm =  0.2522     CD =  0.00932   =>   CDf =  0.00843    CDp =  0.00089

 Side 1  free  transition at x/c =  0.9225   71
 Side 2  free  transition at x/c =  0.5181   50

   7   rms: 0.1128E+02   max: -.1870E+03   C at   50  2   RLX: 0.003
       a = -4.000      CL = -1.3428
      Cm =  0.2504     CD =  0.00946   =>   CDf =  0.00907    CDp =  0.00039

 Side 1  free  transition at x/c =  0.9227   71
 Side 2  free  transition at x/c =  0.5424   52

   8   rms: 0.8132E+01   max: 0.1352E+03   C at   52  2   RLX: 0.011
       a = -4.000      CL = -1.3309
      Cm =  0.2471     CD =  0.00973   =>   CDf =  0.00885    CDp =  0.00088

 Side 1  free  transition at x/c =  0.9220   71
 Side 2  free  transition at x/c =  0.4673   46

   9   rms: 0.3462E+01   max: -.5703E+02   C at   46  2   RLX: 0.009
       a = -4.000      CL = -1.3193
      Cm =  0.2439     CD =  0.00966   =>   CDf =  0.00945    CDp =  0.00021

 Side 1  free  transition at x/c =  0.9220   71
 Side 2  free  transition at x/c =  0.4945   48

  10   rms: 0.6055E+01   max: -.9939E+02   C at   48  2   RLX: 0.005
       a = -4.000      CL = -1.3132
      Cm =  0.2422     CD =  0.00958   =>   CDf =  0.00917    CDp =  0.00041

 Side 1  free  transition at x/c =  0.9222   71
 Side 2  free  transition at x/c =  0.5279   51

  11   rms: 0.2920E+02   max: -.4755E+03   C at   51  2   RLX: 0.001
       a = -4.000      CL = -1.3127
      Cm =  0.2421     CD =  0.00946   =>   CDf =  0.00881    CDp =  0.00065

 Side 1  free  transition at x/c =  0.9224   71
 Side 2  free  transition at x/c =  0.5512   52

  12   rms: 0.3064E+01   max: 0.4867E+02   C at   52  2   RLX: 0.031
       a = -4.000      CL = -1.2811
      Cm =  0.2332     CD =  0.00974   =>   CDf =  0.00863    CDp =  0.00111

 Side 1  free  transition at x/c =  0.9212   71
 Side 2  free  transition at x/c =  0.3631   39

  13   rms: 0.1640E+01   max: -.2806E+02   C at   39  2   RLX: 0.018
       a = -4.000      CL = -1.2583
      Cm =  0.2270     CD =  0.01007   =>   CDf =  0.01010    CDp = -0.00003

 Side 1  free  transition at x/c =  0.9211   71
 Side 2  free  transition at x/c =  0.3830   40

  14   rms: 0.1977E+01   max: -.3339E+02   C at   40  2   RLX: 0.015
       a = -4.000      CL = -1.2417
      Cm =  0.2225     CD =  0.01002   =>   CDf =  0.00985    CDp =  0.00016

 Side 1  free  transition at x/c =  0.9211   71
 Side 2  free  transition at x/c =  0.4099   42

  15   rms: 0.2377E+01   max: -.3953E+02   C at   42  2   RLX: 0.013
       a = -4.000      CL = -1.2286
      Cm =  0.2188     CD =  0.00993   =>   CDf =  0.00955    CDp =  0.00038

 Side 1  free  transition at x/c =  0.9211   71
 Side 2  free  transition at x/c =  0.4301   43

  16   rms: 0.3237E+01   max: -.5199E+02   C at   43  2   RLX: 0.010
       a = -4.000      CL = -1.2182
      Cm =  0.2159     CD =  0.00987   =>   CDf =  0.00932    CDp =  0.00055

 Side 1  free  transition at x/c =  0.9212   71
 Side 2  free  transition at x/c =  0.4520   45

  17   rms: 0.3977E+01   max: -.6481E+02   C at   45  2   RLX: 0.008
       a = -4.000      CL = -1.2099
      Cm =  0.2136     CD =  0.00979   =>   CDf =  0.00909    CDp =  0.00070

 Side 1  free  transition at x/c =  0.9213   71
 Side 2  free  transition at x/c =  0.4775   47

  18   rms: 0.6498E+01   max: -.1052E+03   C at   47  2   RLX: 0.005
       a = -4.000      CL = -1.2050
      Cm =  0.2122     CD =  0.00971   =>   CDf =  0.00884    CDp =  0.00088

 Side 1  free  transition at x/c =  0.9214   71
 Side 2  free  transition at x/c =  0.5058   49

  19   rms: 0.1522E+02   max: -.2413E+03   C at   49  2   RLX: 0.002
       a = -4.000      CL = -1.2030
      Cm =  0.2117     CD =  0.00963   =>   CDf =  0.00856    CDp =  0.00106

 Side 1  free  transition at x/c =  0.9215   71
 Side 2  free  transition at x/c =  0.5364   51

  20   rms: 0.3554E+02   max: -.5420E+03   C at   51  2   RLX: 0.001
       a = -4.000      CL = -1.2026
      Cm =  0.2116     CD =  0.00953   =>   CDf =  0.00827    CDp =  0.00126

 Side 1  free  transition at x/c =  0.9216   71
 Side 2  free  transition at x/c =  0.5461   52

  21   rms: 0.2066E+01   max: -.2917E+02   C at   52  2   RLX: 0.017
       a = -4.000      CL = -1.1853
      Cm =  0.2066     CD =  0.00952   =>   CDf =  0.00823    CDp =  0.00129

 Side 1  free  transition at x/c =  0.9215   71
 Side 2  free  transition at x/c =  0.4527   45

  22   rms: 0.4448E+01   max: -.7315E+02   C at   45  2   RLX: 0.007
       a = -4.000      CL = -1.1746
      Cm =  0.2036     CD =  0.00975   =>   CDf =  0.00894    CDp =  0.00081

 Side 1  free  transition at x/c =  0.9216   71
 Side 2  free  transition at x/c =  0.4781   47

  23   rms: 0.9327E+01   max: -.1524E+03   C at   47  2   RLX: 0.003
       a = -4.000      CL = -1.1710
      Cm =  0.2026     CD =  0.00967   =>   CDf =  0.00869    CDp =  0.00097

 Side 1  free  transition at x/c =  0.9217   71
 Side 2  free  transition at x/c =  0.5043   49

  24   rms: 0.5054E+02   max: -.8074E+03   C at   49  2   RLX: 0.001
       a = -4.000      CL = -1.1703
      Cm =  0.2024     CD =  0.00958   =>   CDf =  0.00843    CDp =  0.00115

 Side 1  free  transition at x/c =  0.9219   71
 Side 2  free  transition at x/c =  0.5270   50

  25   rms: 0.1344E+02   max: 0.2015E+03   C at   50  2   RLX: 0.007
       a = -4.000      CL = -1.1637
      Cm =  0.2006     CD =  0.00979   =>   CDf =  0.00821    CDp =  0.00158

 Side 1  free  transition at x/c =  0.9213   71
 Side 2  free  transition at x/c =  0.4736   47

  26   rms: 0.6734E+01   max: -.1123E+03   C at   47  2   RLX: 0.004
       a = -4.000      CL = -1.1586
      Cm =  0.1992     CD =  0.00971   =>   CDf =  0.00871    CDp =  0.00100

 Side 1  free  transition at x/c =  0.9215   71
 Side 2  free  transition at x/c =  0.4953   48

  27   rms: 0.4441E+02   max: -.7039E+03   C at   48  2   RLX: 0.001
       a = -4.000      CL = -1.1573
      Cm =  0.1988     CD =  0.00964   =>   CDf =  0.00848    CDp =  0.00117

 Side 1  free  transition at x/c =  0.9216   71
 Side 2  free  transition at x/c =  0.5370   51

  28   rms: 0.2192E+02   max: 0.3229E+03   C at   51  2   RLX: 0.005
       a = -4.000      CL = -1.1550
      Cm =  0.1984     CD =  0.00978   =>   CDf =  0.00804    CDp =  0.00175

 Side 1  free  transition at x/c =  0.9212   71
 Side 2  free  transition at x/c =  0.5005   49

  29   rms: 0.6265E+02   max: -.1017E+04   C at   49  2   RLX: 0.000
       a = -4.000      CL = -1.1547
      Cm =  0.1984     CD =  0.00967   =>   CDf =  0.00843    CDp =  0.00124

 Side 1  free  transition at x/c =  0.9214   71
 Side 2  free  transition at x/c =  0.5429   52

  30   rms: 0.1637E+03   max: 0.2461E+04   C at   52  2   RLX: 0.001
       a = -4.000      CL = -1.1555
      Cm =  0.1989     CD =  0.00980   =>   CDf =  0.00796    CDp =  0.00184

 Side 1  free  transition at x/c =  0.9211   71
 Side 2  free  transition at x/c =  0.5931   55

  31   rms: 0.2321E+01   max: 0.3580E+02   C at   55  2   RLX: 0.042
       a = -4.000      CL = -1.1273
      Cm =  0.1919     CD =  0.00988   =>   CDf =  0.00782    CDp =  0.00206

 Side 1  free  transition at x/c =  0.9200   71
 Side 2  free  transition at x/c =  0.4457   45

  32   rms: 0.3418E+01   max: -.5774E+02   C at   45  2   RLX: 0.009
       a = -4.000      CL = -1.1169
      Cm =  0.1891     CD =  0.01002   =>   CDf =  0.00882    CDp =  0.00120

 Side 1  free  transition at x/c =  0.9202   71
 Side 2  free  transition at x/c =  0.4672   46

  33   rms: 0.7464E+01   max: -.1232E+03   C at   46  2   RLX: 0.004
       a = -4.000      CL = -1.1120
      Cm =  0.1877     CD =  0.00994   =>   CDf =  0.00861    CDp =  0.00133

 Side 1  free  transition at x/c =  0.9203   71
 Side 2  free  transition at x/c =  0.5092   49

  34   rms: 0.1255E+02   max: 0.1872E+03   C at   49  2   RLX: 0.008
       a = -4.000      CL = -1.1067
      Cm =  0.1864     CD =  0.01005   =>   CDf =  0.00814    CDp =  0.00192

 Side 1  free  transition at x/c =  0.9200   71
 Side 2  free  transition at x/c =  0.4768   47

  35   rms: 0.1986E+02   max: -.3264E+03   C at   47  2   RLX: 0.002
       a = -4.000      CL = -1.1053
      Cm =  0.1860     CD =  0.00995   =>   CDf =  0.00848    CDp =  0.00147

 Side 1  free  transition at x/c =  0.9201   71
 Side 2  free  transition at x/c =  0.4992   48

  36   rms: 0.1531E+02   max: 0.2299E+03   C at   48  2   RLX: 0.007
       a = -4.000      CL = -1.1003
      Cm =  0.1848     CD =  0.01013   =>   CDf =  0.00822    CDp =  0.00190

 Side 1  free  transition at x/c =  0.9197   71
 Side 2  free  transition at x/c =  0.4655   46

  37   rms: 0.9751E+01   max: -.1614E+03   C at   46  2   RLX: 0.003
       a = -4.000      CL = -1.0973
      Cm =  0.1839     CD =  0.01002   =>   CDf =  0.00857    CDp =  0.00145

 Side 1  free  transition at x/c =  0.9199   71
 Side 2  free  transition at x/c =  0.4902   48

  38   rms: 0.1880E+02   max: 0.2997E+03   C at   48  2   RLX: 0.005
       a = -4.000      CL = -1.0937
      Cm =  0.1831     CD =  0.01021   =>   CDf =  0.00830    CDp =  0.00191

 Side 1  free  transition at x/c =  0.9195   71
 Side 2  free  transition at x/c =  0.4592   46

  39   rms: 0.6126E+01   max: -.1036E+03   C at   46  2   RLX: 0.005
       a = -4.000      CL = -1.0895
      Cm =  0.1819     CD =  0.01007   =>   CDf =  0.00861    CDp =  0.00145

 Side 1  free  transition at x/c =  0.9196   71
 Side 2  free  transition at x/c =  0.4798   47

  40   rms: 0.1104E+03   max: 0.1766E+04   C at   47  2   RLX: 0.001
       a = -4.000      CL = -1.0896
      Cm =  0.1821     CD =  0.01028   =>   CDf =  0.00837    CDp =  0.00191

 Side 1  free  transition at x/c =  0.9192   71
 Side 2  free  transition at x/c =  0.4443   44

  41   rms: 0.6778E+01   max: -.1124E+03   C at   44  2   RLX: 0.004
       a = -4.000      CL = -1.0847
      Cm =  0.1808     CD =  0.01015   =>   CDf =  0.00873    CDp =  0.00142

 Side 1  free  transition at x/c =  0.9194   71
 Side 2  free  transition at x/c =  0.5583   53

  42   rms: 0.4159E+01   max: 0.6508E+02   C at   53  2   RLX: 0.023
       a = -4.000      CL = -1.0724
      Cm =  0.1779     CD =  0.01017   =>   CDf =  0.00777    CDp =  0.00240

 Side 1  free  transition at x/c =  0.9188   71
 Side 2  free  transition at x/c =  0.4551   45

  43   rms: 0.1276E+02   max: -.2087E+03   C at   45  2   RLX: 0.002
       a = -4.000      CL = -1.0689
      Cm =  0.1770     CD =  0.01020   =>   CDf =  0.00853    CDp =  0.00167

 Side 1  free  transition at x/c =  0.9190   71
 Side 2  free  transition at x/c =  0.4812   47

  44   rms: 0.1967E+02   max: 0.3099E+03   C at   47  2   RLX: 0.005
       a = -4.000      CL = -1.0660
      Cm =  0.1764     CD =  0.01039   =>   CDf =  0.00827    CDp =  0.00212

 Side 1  free  transition at x/c =  0.9186   71
 Side 2  free  transition at x/c =  0.4399   44

  45   rms: 0.1037E+02   max: -.1734E+03   C at   44  2   RLX: 0.003
       a = -4.000      CL = -1.0629
      Cm =  0.1755     CD =  0.01028   =>   CDf =  0.00865    CDp =  0.00163

 Side 1  free  transition at x/c =  0.9187   71
 Side 2  free  transition at x/c =  0.4626   46

  46   rms: 0.6216E+02   max: -.1025E+04   C at   46  2   RLX: 0.000
       a = -4.000      CL = -1.0618
      Cm =  0.1752     CD =  0.01019   =>   CDf =  0.00842    CDp =  0.00177

 Side 1  free  transition at x/c =  0.9189   71
 Side 2  free  transition at x/c =  0.4814   47

  47   rms: 0.1549E+02   max: 0.2395E+03   C at   47  2   RLX: 0.006
       a = -4.000      CL = -1.0571
      Cm =  0.1740     CD =  0.01039   =>   CDf =  0.00821    CDp =  0.00218

 Side 1  free  transition at x/c =  0.9185   71
 Side 2  free  transition at x/c =  0.4518   45

  48   rms: 0.6829E+02   max: 0.1138E+04   C at   45  2   RLX: 0.001
       a = -4.000      CL = -1.0586
      Cm =  0.1746     CD =  0.01062   =>   CDf =  0.00851    CDp =  0.00210

 Side 1  free  transition at x/c =  0.9180   71
 Side 2  free  transition at x/c =  0.3876   40

  49   rms: 0.8676E+01   max: -.1476E+03   C at   40  2   RLX: 0.003
       a = -4.000      CL = -1.0543
      Cm =  0.1735     CD =  0.01052   =>   CDf =  0.00901    CDp =  0.00151

 Side 1  free  transition at x/c =  0.9182   71
 Side 2  free  transition at x/c =  0.4174   43

  50   rms: 0.1211E+02   max: -.2081E+03   C at   43  2   RLX: 0.002
       a = -4.000      CL = -1.0520
      Cm =  0.1728     CD =  0.01039   =>   CDf =  0.00878    CDp =  0.00161

 Side 1  free  transition at x/c =  0.9183   71
 Side 2  free  transition at x/c =  0.4348   44

  51   rms: 0.1009E+03   max: 0.1693E+04   C at   44  2   RLX: 0.001
       a = -4.000      CL = -1.0521
      Cm =  0.1730     CD =  0.01069   =>   CDf =  0.00860    CDp =  0.00210

 Side 1  free  transition at x/c =  0.9179   71
 Side 2  free  transition at x/c =  0.3860   40

  52   rms: 0.1334E+02   max: -.2282E+03   C at   40  2   RLX: 0.002
       a = -4.000      CL = -1.0495
      Cm =  0.1723     CD =  0.01054   =>   CDf =  0.00900    CDp =  0.00154

 Side 1  free  transition at x/c =  0.9180   71
 Side 2  free  transition at x/c =  0.4078   42

  53   rms: 0.6295E+02   max: -.1077E+04   C at   42  2   RLX: 0.000
       a = -4.000      CL = -1.0482
      Cm =  0.1719     CD =  0.01044   =>   CDf =  0.00881    CDp =  0.00162

 Side 1  free  transition at x/c =  0.9181   71
 Side 2  free  transition at x/c =  0.4328   44

  54   rms: 0.1826E+02   max: 0.3021E+03   C at   44  2   RLX: 0.005
       a = -4.000      CL = -1.0456
      Cm =  0.1715     CD =  0.01068   =>   CDf =  0.00854    CDp =  0.00214

 Side 1  free  transition at x/c =  0.9177   71
 Side 2  free  transition at x/c =  0.3885   40

  55   rms: 0.5015E+02   max: 0.8558E+03   C at   40  2   RLX: 0.002
       a = -4.000      CL = -1.0458
      Cm =  0.1718     CD =  0.01092   =>   CDf =  0.00897    CDp =  0.00195

 Side 1  free  transition at x/c =  0.9173   71
 Side 2  free  transition at x/c =  0.3004   34

  56   rms: 0.4807E+01   max: -.8618E+02   C at   34  2   RLX: 0.006
       a = -4.000      CL = -1.0394
      Cm =  0.1702     CD =  0.01088   =>   CDf =  0.00959    CDp =  0.00129

 Side 1  free  transition at x/c =  0.9174   71
 Side 2  free  transition at x/c =  0.3250   36

  57   rms: 0.7335E+01   max: -.1304E+03   C at   36  2   RLX: 0.004
       a = -4.000      CL = -1.0364
      Cm =  0.1692     CD =  0.01079   =>   CDf =  0.00938    CDp =  0.00140

 Side 1  free  transition at x/c =  0.9174   71
 Side 2  free  transition at x/c =  0.3524   38

  58   rms: 0.1373E+02   max: -.2382E+03   C at   38  2   RLX: 0.002
       a = -4.000      CL = -1.0350
      Cm =  0.1687     CD =  0.01068   =>   CDf =  0.00914    CDp =  0.00154

 Side 1  free  transition at x/c =  0.9175   71
 Side 2  free  transition at x/c =  0.3742   39

  59   rms: 0.3886E+02   max: -.6461E+03   C at   39  2   RLX: 0.001
       a = -4.000      CL = -1.0338
      Cm =  0.1683     CD =  0.01060   =>   CDf =  0.00895    CDp =  0.00165

 Side 1  free  transition at x/c =  0.9176   71
 Side 2  free  transition at x/c =  0.3949   41

  60   rms: 0.4426E+01   max: 0.6571E+02   C at   41  2   RLX: 0.023
       a = -4.000      CL = -1.0210
      Cm =  0.1647     CD =  0.01100   =>   CDf =  0.00884    CDp =  0.00215

 Side 1  free  transition at x/c =  0.9167   71
 Side 2  free  transition at x/c =  0.0748   17

  61   rms: 0.3920E+01   max: -.8549E+02   C at   17  2   RLX: 0.006
       a = -4.000      CL = -1.0126
      Cm =  0.1633     CD =  0.01195   =>   CDf =  0.01120    CDp =  0.00075

 Side 1  free  transition at x/c =  0.9167   71
 Side 2  free  transition at x/c =  0.0769   17

  62   rms: 0.1844E+01   max: -.2099E+02   T at   17  2   RLX: 0.024
       a = -4.000      CL = -0.9933
      Cm =  0.1588     CD =  0.01197   =>   CDf =  0.01126    CDp =  0.00071

 MRCHDU: Convergence failed at  41  side 2    Res =  0.1640E+01
 MRCHDU: Convergence failed at  42  side 2    Res =  0.1992E+01
 Side 1  free  transition at x/c =  0.9166   71
 Side 2  free  transition at x/c =  0.4396   44

  63   rms: 0.1657E+01   max: 0.2678E+02   C at   44  2   RLX: 0.056
       a = -4.000      CL = -0.9715
      Cm =  0.1504     CD =  0.01089   =>   CDf =  0.00852    CDp =  0.00236

 Side 1  free  transition at x/c =  0.9159   71
 Side 2  free  transition at x/c =  0.3438   37

  64   rms: 0.9447E+00   max: 0.1499E+02   C at   37  2   RLX: 0.100
       a = -4.000      CL = -0.9021
      Cm =  0.1320     CD =  0.01133   =>   CDf =  0.00903    CDp =  0.00230

 Side 1  free  transition at x/c =  0.9152   70
 Side 2  free  transition at x/c =  0.2879   33

  65   rms: 0.5693E+00   max: 0.8217E+01   C at   33  2   RLX: 0.183
       a = -4.000      CL = -0.7903
      Cm =  0.1020     CD =  0.01185   =>   CDf =  0.00913    CDp =  0.00272

 Side 1  free  transition at x/c =  0.9127   70
 Side 2  free  transition at x/c =  0.2064   27

  66   rms: 0.2715E+00   max: -.2631E+00   D at   86  2
       a = -4.000      CL = -0.3208
      Cm = -0.0219     CD =  0.01348   =>   CDf =  0.00914    CDp =  0.00435

 Side 1  free  transition at x/c =  0.9055   70
 Side 2  free  transition at x/c =  0.1562   23

  67   rms: 0.3352E+00   max: -.5622E+01   C at   23  2   RLX: 0.089
       a = -4.000      CL = -0.3226
      Cm = -0.0220     CD =  0.01446   =>   CDf =  0.00732    CDp =  0.00714

 Side 1  free  transition at x/c =  0.9055   70
 Side 2  free  transition at x/c =  0.2094   27

  68   rms: 0.1109E+00   max: -.7674E+00   T at   27  2   RLX: 0.652
       a = -4.000      CL = -0.3138
      Cm = -0.0231     CD =  0.01413   =>   CDf =  0.00732    CDp =  0.00682

 MRCHDU: Convergence failed at  29  side 2    Res =  0.1582E+02
 MRCHDU: Convergence failed at  30  side 2    Res =  0.1300E+01
 MRCHDU: Convergence failed at  31  side 2    Res =  0.1675E+01
 MRCHDU: Convergence failed at  32  side 2    Res =  0.2425E+01
 MRCHDU: Convergence failed at  33  side 2    Res =  0.3144E+01
 MRCHDU: Convergence failed at  34  side 2    Res =  0.3656E+01
 MRCHDU: Convergence failed at  35  side 2    Res =  0.3887E+01
 MRCHDU: Convergence failed at  36  side 2    Res =  0.3929E+01
 MRCHDU: Convergence failed at  37  side 2    Res =  0.3885E+01
 MRCHDU: Convergence failed at  38  side 2    Res =  0.3826E+01
 MRCHDU: Convergence failed at  39  side 2    Res =  0.3789E+01
 MRCHDU: Convergence failed at  40  side 2    Res =  0.3765E+01
 MRCHDU: Convergence failed at  41  side 2    Res =  0.2394E+01
 MRCHDU: Convergence failed at  42  side 2    Res =  0.4680E+01
 MRCHDU: Convergence failed at  43  side 2    Res =  0.4982E+01
 MRCHDU: Convergence failed at  44  side 2    Res =  0.4926E+01
 MRCHDU: Convergence failed at  45  side 2    Res =  0.4834E+01
 MRCHDU: Convergence failed at  46  side 2    Res =  0.4763E+01
 MRCHDU: Convergence failed at  47  side 2    Res =  0.4669E+01
 MRCHDU: Convergence failed at  48  side 2    Res =  0.4555E+01
 MRCHDU: Convergence failed at  49  side 2    Res =  0.4457E+01
 MRCHDU: Convergence failed at  50  side 2    Res =  0.4388E+01
 MRCHDU: Convergence failed at  51  side 2    Res =  0.4398E+01
 MRCHDU: Convergence failed at  52  side 2    Res =  0.4377E+01
 MRCHDU: Convergence failed at  53  side 2    Res =  0.4346E+01
 MRCHDU: Convergence failed at  54  side 2    Res =  0.4323E+01
 MRCHDU: Convergence failed at  55  side 2    Res =  0.4321E+01
 MRCHDU: Convergence failed at  56  side 2    Res =  0.4297E+01
 MRCHDU: Convergence failed at  57  side 2    Res =  0.4295E+01
 MRCHDU: Convergence failed at  58  side 2    Res =  0.4149E+01
 MRCHDU: Convergence failed at  59  side 2    Res =  0.4232E+01
 MRCHDU: Convergence failed at  60  side 2    Res =  0.4109E+01
 MRCHDU: Convergence failed at  61  side 2    Res =  0.4201E+01
 MRCHDU: Convergence failed at  62  side 2    Res =  0.4190E+01
 MRCHDU: Convergence failed at  63  side 2    Res =  0.4072E+01
 MRCHDU: Convergence failed at  64  side 2    Res =  0.4149E+01
 MRCHDU: Convergence failed at  65  side 2    Res =  0.4151E+01
 MRCHDU: Convergence failed at  66  side 2    Res =  0.4071E+01
 MRCHDU: Convergence failed at  67  side 2    Res =  0.4045E+01
 MRCHDU: Convergence failed at  68  side 2    Res =  0.4023E+01
 MRCHDU: Convergence failed at  69  side 2    Res =  0.4002E+01
 MRCHDU: Convergence failed at  70  side 2    Res =  0.3977E+01
 MRCHDU: Convergence failed at  71  side 2    Res =  0.3951E+01
 MRCHDU: Convergence failed at  72  side 2    Res =  0.3921E+01
 MRCHDU: Convergence failed at  73  side 2    Res =  0.3895E+01
 MRCHDU: Convergence failed at  74  side 2    Res =  0.4465E+01
 MRCHDU: Convergence failed at  75  side 2    Res =  0.4647E+01
 MRCHDU: Convergence failed at  76  side 2    Res =  0.4849E+01
 MRCHDU: Convergence failed at  77  side 2    Res =  0.5076E+01
 MRCHDU: Convergence failed at  78  side 2    Res =  0.5437E+01
 MRCHDU: Convergence failed at  79  side 2    Res =  0.5874E+01
 MRCHDU: Convergence failed at  80  side 2    Res =  0.6449E+01
 MRCHDU: Convergence failed at  81  side 2    Res =  0.1412E+02
 MRCHDU: Convergence failed at  82  side 2    Res =  0.1642E+02
 MRCHDU: Convergence failed at  83  side 2    Res =  0.7891E+02
 MRCHDU: Convergence failed at  84  side 2    Res =  0.2272E+02
 Side 1  free  transition at x/c =  0.9059   71
 Side 2  free  transition at x/c =  0.4110   41

  69   rms: 0.3630E+00   max: -.2757E+01   D at    2  1   RLX: 0.181
       a = -4.000      CL = -0.6219
      Cm =  0.1074     CD =  0.00808   =>   CDf =  0.00461    CDp =  0.00347

 Side 1  free  transition at x/c =  0.9068   71
 Side 2  free  transition at x/c =  0.9139   77

  70   rms: 0.3215E+00   max: -.1700E+01   C at   79  2   RLX: 0.294
       a = -4.000      CL = -0.5165
      Cm =  0.0639     CD =  0.00830   =>   CDf =  0.00552    CDp =  0.00278

 Side 1  free  transition at x/c =  0.9073   71
 Side 2  free  transition at x/c =  0.5430   51

  71   rms: 0.7679E+00   max: 0.1159E+02   C at   51  2   RLX: 0.129
       a = -4.000      CL = -0.4870
      Cm =  0.0503     CD =  0.00998   =>   CDf =  0.00667    CDp =  0.00332

 Side 1  free  transition at x/c =  0.9067   71
 Side 2  free  transition at x/c =  0.4323   43

  72   rms: 0.7453E+00   max: 0.1132E+02   C at   43  2   RLX: 0.132
       a = -4.000      CL = -0.4628
      Cm =  0.0401     CD =  0.01050   =>   CDf =  0.00701    CDp =  0.00350

 Side 1  free  transition at x/c =  0.9064   71
 Side 2  free  transition at x/c =  0.3827   39

  73   rms: 0.3069E+00   max: 0.4244E+01   C at   39  2   RLX: 0.353
       a = -4.000      CL = -0.4121
      Cm =  0.0178     CD =  0.01149   =>   CDf =  0.00720    CDp =  0.00429

 Side 1  free  transition at x/c =  0.9057   71
 Side 2  free  transition at x/c =  0.3107   34

  74   rms: 0.1210E+00   max: 0.9388E+00   C at   34  2
       a = -4.000      CL = -0.3167
      Cm = -0.0224     CD =  0.01349   =>   CDf =  0.00723    CDp =  0.00626

 Side 1  free  transition at x/c =  0.9053   71
 Side 2  free  transition at x/c =  0.2462   29

  75   rms: 0.3041E-01   max: -.3743E+00   C at   29  2
       a = -4.000      CL = -0.3100
      Cm = -0.0237     CD =  0.01378   =>   CDf =  0.00689    CDp =  0.00690

 Side 1  free  transition at x/c =  0.9060   71
 Side 2  free  transition at x/c =  0.2753   31

  76   rms: 0.8025E-02   max: 0.1294E+00   C at   31  2
       a = -4.000      CL = -0.3102
      Cm = -0.0237     CD =  0.01379   =>   CDf =  0.00672    CDp =  0.00707

 Side 1  free  transition at x/c =  0.9060   71
 Side 2  free  transition at x/c =  0.2711   31

  77   rms: 0.1338E-03   max: -.1752E-02   D at   35  2
       a = -4.000      CL = -0.3101
      Cm = -0.0237     CD =  0.01379   =>   CDf =  0.00675    CDp =  0.00704

 Side 1  free  transition at x/c =  0.9060   71
 Side 2  free  transition at x/c =  0.2710   31

  78   rms: 0.1748E-05   max: -.1461E-04   D at    4  1
       a = -4.000      CL = -0.3101
      Cm = -0.0237     CD =  0.01379   =>   CDf =  0.00675    CDp =  0.00704
 plradd ia,ip,cpol            1           0  1.83658747E-04

 Point added to stored polar  1
 Point written to save file  mh61_Re150k.base.pol                            
 Dump file unspecified or not available
 Calculating wake trajectory ...
 Calculating source influence matrix ...

 Solving BL system ...

 Side 1  free  transition at x/c =  0.9060   71
 Side 2  free  transition at x/c =  0.2710   31

   1   rms: 0.4388E+00   max: -.6716E+01   C at   31  2   RLX: 0.074
       a = -3.500      CL = -0.3082
      Cm = -0.0234     CD =  0.01363   =>   CDf =  0.00675    CDp =  0.00688

 Side 1  free  transition at x/c =  0.9047   71
 Side 2  free  transition at x/c =  0.2962   33

   2   rms: 0.2955E+00   max: -.3941E+01   C at   33  2   RLX: 0.127
       a = -3.500      CL = -0.3045
      Cm = -0.0229     CD =  0.01353   =>   CDf =  0.00667    CDp =  0.00686

 Side 1  free  transition at x/c =  0.9028   71
 Side 2  free  transition at x/c =  0.3231   35

   3   rms: 0.2365E+00   max: -.2753E+01   C at   35  2   RLX: 0.182
       a = -3.500      CL = -0.3000
      Cm = -0.0222     CD =  0.01345   =>   CDf =  0.00662    CDp =  0.00683

 Side 1  free  transition at x/c =  0.9008   70
 Side 2  free  transition at x/c =  0.3493   37

   4   rms: 0.2218E+00   max: -.2184E+01   C at   37  2   RLX: 0.229
       a = -3.500      CL = -0.2937
      Cm = -0.0221     CD =  0.01324   =>   CDf =  0.00661    CDp =  0.00663

 Side 1  free  transition at x/c =  0.8971   70
 Side 2  free  transition at x/c =  0.3699   38

   5   rms: 0.1165E+00   max: -.1235E+01   T at   38  2   RLX: 0.405
       a = -3.500      CL = -0.2826
      Cm = -0.0219     CD =  0.01356   =>   CDf =  0.00662    CDp =  0.00694

 Side 1  free  transition at x/c =  0.8929   70
 Side 2  free  transition at x/c =  0.4020   40

   6   rms: 0.1410E+00   max: -.2142E+01   C at   40  2   RLX: 0.233
       a = -3.500      CL = -0.2826
      Cm = -0.0210     CD =  0.01323   =>   CDf =  0.00633    CDp =  0.00690

 Side 1  free  transition at x/c =  0.8918   70
 Side 2  free  transition at x/c =  0.4076   41

   7   rms: 0.1019E+00   max: -.1010E+01   C at   41  2   RLX: 0.495
       a = -3.500      CL = -0.2768
      Cm = -0.0208     CD =  0.01306   =>   CDf =  0.00654    CDp =  0.00652

 Side 1  free  transition at x/c =  0.8903   70
 Side 2  free  transition at x/c =  0.4263   42

   8   rms: 0.7396E-01   max: -.7061E+00   T at   42  2   RLX: 0.708
       a = -3.500      CL = -0.2728
      Cm = -0.0204     CD =  0.01384   =>   CDf =  0.00670    CDp =  0.00714

 MRCHDU: Convergence failed at  47  side 2    Res =  0.3047E+01
 MRCHDU: Convergence failed at  48  side 2    Res =  0.6673E+02
 MRCHDU: Convergence failed at  49  side 2    Res =  0.2821E+02
 MRCHDU: Convergence failed at  50  side 2    Res =  0.1764E+02
 MRCHDU: Convergence failed at  51  side 2    Res =  0.1648E+02
 MRCHDU: Convergence failed at  52  side 2    Res =  0.1802E+02
 MRCHDU: Convergence failed at  53  side 2    Res =  0.2829E+02
 MRCHDU: Convergence failed at  54  side 2    Res =  0.6046E+02
 MRCHDU: Convergence failed at  55  side 2    Res =  0.4542E+02
 MRCHDU: Convergence failed at  56  side 2    Res =  0.1299E+03
 MRCHDU: Convergence failed at  57  side 2    Res =  0.8686E+02
 MRCHDU: Convergence failed at  58  side 2    Res =  0.3382E+02
 MRCHDU: Convergence failed at  59  side 2    Res =  0.2148E+02
 MRCHDU: Convergence failed at  60  side 2    Res =  0.1601E+02
 MRCHDU: Convergence failed at  61  side 2    Res =  0.1297E+02
 MRCHDU: Convergence failed at  62  side 2    Res =  0.1102E+02
 MRCHDU: Convergence failed at  63  side 2    Res =  0.9691E+01
 MRCHDU: Convergence failed at  64  side 2    Res =  0.8743E+01
 MRCHDU: Convergence failed at  65  side 2    Res =  0.7668E+01
 MRCHDU: Convergence failed at  66  side 2    Res =  0.7218E+01
 MRCHDU: Convergence failed at  67  side 2    Res =  0.6810E+01
 MRCHDU: Convergence failed at  68  side 2    Res =  0.6477E+01
 MRCHDU: Convergence failed at  69  side 2    Res =  0.6193E+01
 MRCHDU: Convergence failed at  70  side 2    Res =  0.5967E+01
 MRCHDU: Convergence failed at  71  side 2    Res =  0.5777E+01
 MRCHDU: Convergence failed at  72  side 2    Res =  0.5606E+01
 MRCHDU: Convergence failed at  73  side 2    Res =  0.5471E+01
 MRCHDU: Convergence failed at  74  side 2    Res =  0.5353E+01
 MRCHDU: Convergence failed at  75  side 2    Res =  0.5247E+01
 MRCHDU: Convergence failed at  76  side 2    Res =  0.5153E+01
 MRCHDU: Convergence failed at  77  side 2    Res =  0.5086E+01
 MRCHDU: Convergence failed at  78  side 2    Res =  0.4995E+01
 MRCHDU: Convergence failed at  79  side 2    Res =  0.4897E+01
 MRCHDU: Convergence failed at  80  side 2    Res =  0.4778E+01
 MRCHDU: Convergence failed at  81  side 2    Res =  0.4622E+01
 MRCHDU: Convergence failed at  82  side 2    Res =  0.4346E+01
 MRCHDU: Convergence failed at  83  side 2    Res =  0.5528E+01
 MRCHDU: Convergence failed at  84  side 2    Res =  0.8584E+01
 Side 1  free  transition at x/c =  0.8889   70
 Side 2  free  transition at x/c =  0.4946   47

   9   rms: 0.2249E+00   max: 0.5162E+00   D at   89  2   RLX: 0.814
       a = -3.500      CL = -0.2312
      Cm = -0.0204     CD =  0.01022   =>   CDf =  0.00390    CDp =  0.00632

 Side 1  free  transition at x/c =  0.8946   70
 Side 2  free  transition at x/c =  0.5406   50

  10   rms: 0.1047E+00   max: -.7995E+00   C at   50  2   RLX: 0.625
       a = -3.500      CL = -0.2669
      Cm = -0.0183     CD =  0.01236   =>   CDf =  0.00627    CDp =  0.00610

 Side 1  free  transition at x/c =  0.8896   70
 Side 2  free  transition at x/c =  0.4799   46

  11   rms: 0.4090E-01   max: -.4892E+00   D at   48  2
       a = -3.500      CL = -0.2755
      Cm = -0.0194     CD =  0.01297   =>   CDf =  0.00630    CDp =  0.00667

 Side 1  free  transition at x/c =  0.8887   70
 Side 2  free  transition at x/c =  0.4859   46

  12   rms: 0.1080E-01   max: 0.1408E+00   C at   46  2
       a = -3.500      CL = -0.2748
      Cm = -0.0195     CD =  0.01302   =>   CDf =  0.00598    CDp =  0.00704

 Side 1  free  transition at x/c =  0.8888   70
 Side 2  free  transition at x/c =  0.4808   46

  13   rms: 0.3335E-03   max: -.3124E-02   D at   51  2
       a = -3.500      CL = -0.2748
      Cm = -0.0195     CD =  0.01303   =>   CDf =  0.00604    CDp =  0.00699

 Side 1  free  transition at x/c =  0.8888   70
 Side 2  free  transition at x/c =  0.4806   46

  14   rms: 0.3059E-05   max: -.3404E-04   C at   46  2
       a = -3.500      CL = -0.2748
      Cm = -0.0195     CD =  0.01303   =>   CDf =  0.00604    CDp =  0.00699
 plradd ia,ip,cpol            2           0  1.83658747E-04

 Point added to stored polar  1
 Point written to save file  mh61_Re150k.base.pol                            
 Dump file unspecified or not available
 Calculating wake trajectory ...
 Calculating source influence matrix ...

 Solving BL system ...

 Side 1  free  transition at x/c =  0.8888   70
 Side 2  free  transition at x/c =  0.4806   46

   1   rms: 0.1288E+00   max: -.9866E+00   C at   46  2   RLX: 0.507
       a = -3.000      CL = -0.2565
      Cm = -0.0169     CD =  0.01294   =>   CDf =  0.00604    CDp =  0.00690

 Side 1  free  transition at x/c =  0.8826   69
 Side 2  free  transition at x/c =  0.5228   49

   2   rms: 0.8992E-01   max: -.9029E+00   C at   49  2   RLX: 0.554
       a = -3.000      CL = -0.2411
      Cm = -0.0176     CD =  0.01269   =>   CDf =  0.00608    CDp =  0.00660

 Side 1  free  transition at x/c =  0.8749   68
 Side 2  free  transition at x/c =  0.5468   51

   3   rms: 0.5775E-01   max: -.4640E+00   C at   51  2
       a = -3.000      CL = -0.2312
      Cm = -0.0167     CD =  0.01245   =>   CDf =  0.00617    CDp =  0.00627

 Side 1  free  transition at x/c =  0.8714   68
 Side 2  free  transition at x/c =  0.5884   54

   4   rms: 0.1845E-01   max: -.2346E+00   C at   54  2
       a = -3.000      CL = -0.2331
      Cm = -0.0160     CD =  0.01257   =>   CDf =  0.00590    CDp =  0.00667

 Side 1  free  transition at x/c =  0.8716   68
 Side 2  free  transition at x/c =  0.5946   54

   5   rms: 0.5036E-02   max: -.5682E-01   C at   54  2
       a = -3.000      CL = -0.2330
      Cm = -0.0161     CD =  0.01261   =>   CDf =  0.00582    CDp =  0.00679

 Side 1  free  transition at x/c =  0.8716   68
 Side 2  free  transition at x/c =  0.5969   55

   6   rms: 0.4957E-02   max: -.6525E-01   C at   55  2
       a = -3.000      CL = -0.2330
      Cm = -0.0161     CD =  0.01261   =>   CDf =  0.00583    CDp =  0.00678

 Side 1  free  transition at x/c =  0.8716   68
 Side 2  free  transition at x/c =  0.5971   55

   7   rms: 0.1398E-03   max: -.1595E-02   D at   59  2
       a = -3.000      CL = -0.2330
      Cm = -0.0161     CD =  0.01261   =>   CDf =  0.00578    CDp =  0.00682

 Side 1  free  transition at x/c =  0.8716   68
 Side 2  free  transition at x/c =  0.5971   55

   8   rms: 0.1083E-05   max: -.9497E-05   C at   55  2
       a = -3.000      CL = -0.2330
      Cm = -0.0161     CD =  0.01261   =>   CDf =  0.00578    CDp =  0.00682
 plradd ia,ip,cpol            3           0  1.83658747E-04

 Point added to stored polar  1
 Point written to save file  mh61_Re150k.base.pol                            
 Dump file unspecified or not available
 Calculating wake trajectory ...
 Calculating source influence matrix ...

 Solving BL system ...

 Side 1  free  transition at x/c =  0.8716   68
 Side 2  free  transition at x/c =  0.5971   55

   1   rms: 0.1412E+00   max: -.1388E+01   C at   55  2   RLX: 0.360
       a = -2.500      CL = -0.2170
      Cm = -0.0150     CD =  0.01237   =>   CDf =  0.00578    CDp =  0.00658

 Side 1  free  transition at x/c =  0.8645   68
 Side 2  free  transition at x/c =  0.6229   56

   2   rms: 0.8511E-01   max: -.6489E+00   T at   56  2   RLX: 0.771
       a = -2.500      CL = -0.1968
      Cm = -0.0134     CD =  0.01301   =>   CDf =  0.00593    CDp =  0.00709

 MRCHDU: Convergence failed at  68  side 2    Res =  0.1123E+02
 MRCHDU: Convergence failed at  69  side 2    Res =  0.1122E+02
 MRCHDU: Convergence failed at  70  side 2    Res =  0.1157E+02
 MRCHDU: Convergence failed at  71  side 2    Res =  0.1043E+02
 MRCHDU: Convergence failed at  72  side 2    Res =  0.9296E+01
 MRCHDU: Convergence failed at  73  side 2    Res =  0.8310E+01
 MRCHDU: Convergence failed at  74  side 2    Res =  0.7511E+01
 MRCHDU: Convergence failed at  75  side 2    Res =  0.6878E+01
 MRCHDU: Convergence failed at  76  side 2    Res =  0.6378E+01
 MRCHDU: Convergence failed at  77  side 2    Res =  0.6001E+01
 MRCHDU: Convergence failed at  78  side 2    Res =  0.5312E+01
 MRCHDU: Convergence failed at  79  side 2    Res =  0.5190E+01
 MRCHDU: Convergence failed at  80  side 2    Res =  0.5124E+01
 MRCHDU: Convergence failed at  81  side 2    Res =  0.5112E+01
 MRCHDU: Convergence failed at  82  side 2    Res =  0.5088E+01
 MRCHDU: Convergence failed at  83  side 2    Res =  0.4772E+01
 MRCHDU: Convergence failed at  84  side 2    Res =  0.4168E+01
 Side 1  free  transition at x/c =  0.8585   67
 Side 2  free  transition at x/c =  0.7737   67

   3   rms: 0.1544E+00   max: 0.1123E+01   D at   56  2
       a = -2.500      CL = -0.1167
      Cm = -0.0266     CD =  0.01132   =>   CDf =  0.00514    CDp =  0.00617

 MRCHDU: Convergence failed at  55  side 2    Res =  0.4722E+01
 Side 1  free  transition at x/c =  0.8621   69
 Side 2  free  transition at x/c =  0.7564   65
 idif Ue xi dudx           1  0.32540748      3.42977047E-03   94.877335    
 Uenew xinew           2  5.53976521E-02  5.83887100E-04

   4   rms: 0.9565E-01   max: -.4261E+00   D at   66  2
       a = -2.500      CL = -0.2014
      Cm = -0.0094     CD =  0.01194   =>   CDf =  0.00531    CDp =  0.00663

 Side 1  free  transition at x/c =  0.8581   67
 Side 2  free  transition at x/c =  0.7083   63

   5   rms: 0.1803E-01   max: -.1318E+00   T at    2  2
       a = -2.500      CL = -0.1894
      Cm = -0.0126     CD =  0.01218   =>   CDf =  0.00551    CDp =  0.00667

 Side 1  free  transition at x/c =  0.8549   67
 Side 2  free  transition at x/c =  0.7107   63

   6   rms: 0.3453E-02   max: -.3320E-01   D at    4  2
       a = -2.500      CL = -0.1896
      Cm = -0.0125     CD =  0.01217   =>   CDf =  0.00549    CDp =  0.00668

 Side 1  free  transition at x/c =  0.8554   67
 Side 2  free  transition at x/c =  0.7103   63

   7   rms: 0.3909E-04   max: -.3570E-03   D at    7  2
       a = -2.500      CL = -0.1896
      Cm = -0.0125     CD =  0.01217   =>   CDf =  0.00549    CDp =  0.00667
 plradd ia,ip,cpol            4           0  1.83658747E-04

 Point added to stored polar  1
 Point written to save file  mh61_Re150k.base.pol                            
 Dump file unspecified or not available
 Calculating wake trajectory ...
 Calculating source influence matrix ...

 Solving BL system ...

 Side 1  free  transition at x/c =  0.8554   67
 Side 2  free  transition at x/c =  0.7103   63

   1   rms: 0.1344E+00   max: -.1406E+01   C at   63  2   RLX: 0.356
       a = -2.000      CL = -0.1731
      Cm = -0.0113     CD =  0.01198   =>   CDf =  0.00579    CDp =  0.00619

 Side 1  free  transition at x/c =  0.8495   68
 Side 2  free  transition at x/c =  0.7429   64

   2   rms: 0.1359E+00   max: -.1986E+01   T at    2  1   RLX: 0.252
       a = -2.000      CL = -0.1655
      Cm = -0.0113     CD =  0.01221   =>   CDf =  0.00556    CDp =  0.00665

 Side 1  free  transition at x/c =  0.8478   67
 Side 2  free  transition at x/c =  0.7637   66

   3   rms: 0.9294E-01   max: -.1050E+01   C at   66  2   RLX: 0.476
       a = -2.000      CL = -0.1512
      Cm = -0.0110     CD =  0.01189   =>   CDf =  0.00553    CDp =  0.00635

 Side 1  free  transition at x/c =  0.8434   67
 Side 2  free  transition at x/c =  0.7847   67

   4   rms: 0.4152E-01   max: -.4103E+00   C at   67  2
       a = -2.000      CL = -0.1434
      Cm = -0.0092     CD =  0.01178   =>   CDf =  0.00550    CDp =  0.00629

 Side 1  free  transition at x/c =  0.8396   67
 Side 2  free  transition at x/c =  0.8405   71

   5   rms: 0.1415E-01   max: 0.1085E+00   D at   72  2
       a = -2.000      CL = -0.1340
      Cm = -0.0106     CD =  0.01188   =>   CDf =  0.00527    CDp =  0.00661

 Side 1  free  transition at x/c =  0.8406   67
 Side 2  free  transition at x/c =  0.8409   71

   6   rms: 0.9575E-03   max: 0.1051E-01   C at   71  2
       a = -2.000      CL = -0.1338
      Cm = -0.0107     CD =  0.01189   =>   CDf =  0.00529    CDp =  0.00660

 Side 1  free  transition at x/c =  0.8406   67
 Side 2  free  transition at x/c =  0.8406   71

   7   rms: 0.1763E-04   max: -.1317E-03   D at   83  2
       a = -2.000      CL = -0.1337
      Cm = -0.0107     CD =  0.01189   =>   CDf =  0.00530    CDp =  0.00659
 plradd ia,ip,cpol            5           0  1.13248755E-03

 Point added to stored polar  1
 Point written to save file  mh61_Re150k.base.pol                            
 Dump file unspecified or not available
 Calculating wake trajectory ...
 Calculating source influence matrix ...

 Solving BL system ...

 Side 1  free  transition at x/c =  0.8407   67
 Side 2  free  transition at x/c =  0.8406   71

   1   rms: 0.1230E+00   max: -.8047E+00   C at   71  2   RLX: 0.621
       a = -1.500      CL = -0.0910
      Cm = -0.0110     CD =  0.01180   =>   CDf =  0.00530    CDp =  0.00650

 Side 1  free  transition at x/c =  0.8321   66
 Side 2  free  transition at x/c =  0.9040   76

   2   rms: 0.7598E-01   max: 0.3789E+00   D at   81  2
       a = -1.500      CL = -0.0274
      Cm = -0.0189     CD =  0.01195   =>   CDf =  0.00538    CDp =  0.00657

 Side 1  free  transition at x/c =  0.8268   66
 Side 2  free  transition at x/c =  0.9200   77

   3   rms: 0.3758E-01   max: -.2431E+00   D at   82  2
       a = -1.500      CL = -0.0456
      Cm = -0.0153     CD =  0.01202   =>   CDf =  0.00550    CDp =  0.00653

 Side 1  free  transition at x/c =  0.8269   66
 Side 2  free  transition at x/c =  0.9387   78

   4   rms: 0.1405E-01   max: 0.1035E+00   D at   82  2
       a = -1.500      CL = -0.0400
      Cm = -0.0164     CD =  0.01204   =>   CDf =  0.00548    CDp =  0.00655

 Side 1  free  transition at x/c =  0.8271   66
 Side 2  free  transition at x/c =  0.9324   78

   5   rms: 0.1359E-02   max: -.9189E-02   D at   81  2
       a = -1.500      CL = -0.0403
      Cm = -0.0163     CD =  0.01206   =>   CDf =  0.00549    CDp =  0.00657

 Side 1  free  transition at x/c =  0.8271   66
 Side 2  free  transition at x/c =  0.9329   78

   6   rms: 0.1164E-04   max: 0.6545E-04   D at   85  2
       a = -1.500      CL = -0.0403
      Cm = -0.0163     CD =  0.01206   =>   CDf =  0.00549    CDp =  0.00657
 plradd ia,ip,cpol            6           0  1.73375737E-02

 Point added to stored polar  1
 Point written to save file  mh61_Re150k.base.pol                            
 Dump file unspecified or not available
 Calculating wake trajectory ...
 Calculating source influence matrix ...

 Solving BL system ...

 Side 1  free  transition at x/c =  0.8271   66
 Side 2  free  transition at x/c =  0.9329   78

   1   rms: 0.1277E+00   max: 0.4336E+00   D at   81  2
       a = -1.000      CL =  0.0632
      Cm = -0.0244     CD =  0.01221   =>   CDf =  0.00576    CDp =  0.00645

 Side 1  free  transition at x/c =  0.8136   66
 Side 2  free  transition at x/c =  0.9757   80

   2   rms: 0.1967E-01   max: 0.1828E+00   D at    3  1
       a = -1.000      CL =  0.0620
      Cm = -0.0249     CD =  0.01225   =>   CDf =  0.00585    CDp =  0.00639

 Side 1  free  transition at x/c =  0.8125   66
 Side 2  free  transition at x/c =  0.9807   80

   3   rms: 0.1607E-02   max: 0.1429E-01   D at    5  2
       a = -1.000      CL =  0.0614
      Cm = -0.0247     CD =  0.01223   =>   CDf =  0.00583    CDp =  0.00640

 Side 1  free  transition at x/c =  0.8127   66
 Side 2  free  transition at x/c =  0.9810   80

   4   rms: 0.1811E-04   max: 0.1751E-03   D at    7  2
       a = -1.000      CL =  0.0614
      Cm = -0.0247     CD =  0.01223   =>   CDf =  0.00583    CDp =  0.00640
 plradd ia,ip,cpol            7           0  0.23533928    

 Point added to stored polar  1
 Point written to save file  mh61_Re150k.base.pol                            
 Dump file unspecified or not available
 Calculating wake trajectory ...
 Calculating source influence matrix ...

 Solving BL system ...

 Side 1  free  transition at x/c =  0.8127   66
 Side 2  free  transition at x/c =  0.9810   80

   1   rms: 0.1246E+00   max: 0.9016E+00   C at   80  2   RLX: 0.753
       a = -0.500      CL =  0.1274
      Cm = -0.0293     CD =  0.01238   =>   CDf =  0.00605    CDp =  0.00633

 Side 1  free  transition at x/c =  0.8021   66
 Side 2 forced transition at x/c =  1.0000   81

   2   rms: 0.3477E-01   max: -.3468E+00   D at    2  1
       a = -0.500      CL =  0.1399
      Cm = -0.0302     CD =  0.01213   =>   CDf =  0.00607    CDp =  0.00606

 Side 1  free  transition at x/c =  0.7940   66
 Side 2 forced transition at x/c =  1.0000   81

   3   rms: 0.1393E-01   max: -.1161E+00   D at   68  1
       a = -0.500      CL =  0.1371
      Cm = -0.0294     CD =  0.01205   =>   CDf =  0.00613    CDp =  0.00593

 Side 1  free  transition at x/c =  0.7962   66
 Side 2 forced transition at x/c =  1.0000   81

   4   rms: 0.7643E-03   max: -.6966E-02   D at   66  1
       a = -0.500      CL =  0.1371
      Cm = -0.0293     CD =  0.01206   =>   CDf =  0.00612    CDp =  0.00595

 Side 1  free  transition at x/c =  0.7963   66
 Side 2 forced transition at x/c =  1.0000   81

   5   rms: 0.2892E-05   max: 0.1269E-04   D at   68  1
       a = -0.500      CL =  0.1371
      Cm = -0.0293     CD =  0.01206   =>   CDf =  0.00612    CDp =  0.00595
 plradd ia,ip,cpol            8           0  0.20836677    

 Point added to stored polar  1
 Point written to save file  mh61_Re150k.base.pol                            
 Dump file unspecified or not available
 Calculating wake trajectory ...
 Calculating source influence matrix ...

 Solving BL system ...

 Side 1  free  transition at x/c =  0.7963   66
 Side 2 forced transition at x/c =  1.0000   81

   1   rms: 0.8032E-01   max: -.1932E+00   D at   72  2
       a =  0.000      CL =  0.1718
      Cm = -0.0255     CD =  0.01200   =>   CDf =  0.00612    CDp =  0.00588

 Side 1  free  transition at x/c =  0.7823   65
 Side 2 forced transition at x/c =  1.0000   81

   2   rms: 0.1801E-01   max: -.1793E+00   D at   65  1
       a =  0.000      CL =  0.1779
      Cm = -0.0269     CD =  0.01208   =>   CDf =  0.00633    CDp =  0.00576

 Side 1  free  transition at x/c =  0.7784   64
 Side 2 forced transition at x/c =  1.0000   81

   3   rms: 0.4091E-02   max: -.3912E-01   D at   64  1
       a =  0.000      CL =  0.1776
      Cm = -0.0267     CD =  0.01205   =>   CDf =  0.00632    CDp =  0.00573

 Side 1  free  transition at x/c =  0.7791   64
 Side 2 forced transition at x/c =  1.0000   81

   4   rms: 0.1874E-03   max: 0.1592E-02   D at   67  1
       a =  0.000      CL =  0.1777
      Cm = -0.0268     CD =  0.01206   =>   CDf =  0.00632    CDp =  0.00574

 Side 1  free  transition at x/c =  0.7791   64
 Side 2 forced transition at x/c =  1.0000   81

   5   rms: 0.2775E-05   max: 0.1807E-04   D at    4  2
       a =  0.000      CL =  0.1777
      Cm = -0.0268     CD =  0.01206   =>   CDf =  0.00632    CDp =  0.00574
 plradd ia,ip,cpol            9           0  0.20836677    

 Point added to stored polar  1
 Point written to save file  mh61_Re150k.base.pol                            
 Dump file unspecified or not available
 Calculating wake trajectory ...
 Calculating source influence matrix ...

 Solving BL system ...

 Side 1  free  transition at x/c =  0.7791   64
 Side 2 forced transition at x/c =  1.0000   81

   1   rms: 0.9541E-01   max: -.1252E+00   n at   80  2
       a =  0.500      CL =  0.2364
      Cm = -0.0295     CD =  0.01238   =>   CDf =  0.00643    CDp =  0.00595

 Side 1  free  transition at x/c =  0.7504   63
 Side 2 forced transition at x/c =  1.0000   80

   2   rms: 0.6723E-01   max: -.4764E+00   D at   69  1
       a =  0.500      CL =  0.2155
      Cm = -0.0226     CD =  0.01221   =>   CDf =  0.00641    CDp =  0.00580

 Side 1  free  transition at x/c =  0.7689   65
 Side 2 forced transition at x/c =  1.0000   80

   3   rms: 0.3906E-01   max: 0.3710E+00   D at   65  1
       a =  0.500      CL =  0.2186
      Cm = -0.0236     CD =  0.01203   =>   CDf =  0.00650    CDp =  0.00553

 Side 1  free  transition at x/c =  0.7645   64
 Side 2 forced transition at x/c =  1.0000   80

   4   rms: 0.1963E-01   max: 0.1648E+00   D at   66  1
       a =  0.500      CL =  0.2251
      Cm = -0.0257     CD =  0.01221   =>   CDf =  0.00647    CDp =  0.00574

 Side 1  free  transition at x/c =  0.7578   64
 Side 2 forced transition at x/c =  1.0000   80

   5   rms: 0.7385E-02   max: -.6533E-01   D at   67  1
       a =  0.500      CL =  0.2233
      Cm = -0.0251     CD =  0.01214   =>   CDf =  0.00645    CDp =  0.00569

 Side 1  free  transition at x/c =  0.7596   64
 Side 2 forced transition at x/c =  1.0000   80

   6   rms: 0.5717E-03   max: -.4469E-02   D at   66  1
       a =  0.500      CL =  0.2232
      Cm = -0.0251     CD =  0.01214   =>   CDf =  0.00645    CDp =  0.00569

 Side 1  free  transition at x/c =  0.7597   64
 Side 2 forced transition at x/c =  1.0000   80

   7   rms: 0.3144E-05   max: -.1595E-04   D at   75  1
       a =  0.500      CL =  0.2232
      Cm = -0.0251     CD =  0.01214   =>   CDf =  0.00645    CDp =  0.00569
 plradd ia,ip,cpol           10           0  0.18153593    

 Point added to stored polar  1
 Point written to save file  mh61_Re150k.base.pol                            
 Dump file unspecified or not available
 Calculating wake trajectory ...
 Calculating source influence matrix ...

 Solving BL system ...

 Side 1  free  transition at x/c =  0.7597   64
 Side 2 forced transition at x/c =  1.0000   80

   1   rms: 0.7634E-01   max: -.1180E+00   D at   74  2
       a =  1.000      CL =  0.2687
      Cm = -0.0232     CD =  0.01223   =>   CDf =  0.00645    CDp =  0.00578

 Side 1  free  transition at x/c =  0.7413   63
 Side 2 forced transition at x/c =  1.0000   80

   2   rms: 0.1837E-01   max: -.2264E+00   D at   63  1
       a =  1.000      CL =  0.2681
      Cm = -0.0228     CD =  0.01218   =>   CDf =  0.00658    CDp =  0.00560

 Side 1  free  transition at x/c =  0.7421   63
 Side 2 forced transition at x/c =  1.0000   80

   3   rms: 0.1336E-02   max: 0.1323E-01   D at   65  1
       a =  1.000      CL =  0.2683
      Cm = -0.0229     CD =  0.01220   =>   CDf =  0.00658    CDp =  0.00562

 Side 1  free  transition at x/c =  0.7418   63
 Side 2 forced transition at x/c =  1.0000   80

   4   rms: 0.9876E-05   max: -.7795E-04   D at   64  1
       a =  1.000      CL =  0.2683
      Cm = -0.0229     CD =  0.01219   =>   CDf =  0.00658    CDp =  0.00561
 plradd ia,ip,cpol           11           0  0.16818704    

 Point added to stored polar  1
 Point written to save file  mh61_Re150k.base.pol                            
 Dump file unspecified or not available
 Calculating wake trajectory ...
 Calculating source influence matrix ...

 Solving BL system ...

 Side 1  free  transition at x/c =  0.7418   63
 Side 2 forced transition at x/c =  1.0000   80

   1   rms: 0.7603E-01   max: -.1069E+00   D at   75  2
       a =  1.500      CL =  0.3109
      Cm = -0.0196     CD =  0.01218   =>   CDf =  0.00658    CDp =  0.00559

 Side 1  free  transition at x/c =  0.7278   63
 Side 2 forced transition at x/c =  1.0000   79

   2   rms: 0.1482E-01   max: -.1745E+00   D at   63  1
       a =  1.500      CL =  0.3148
      Cm = -0.0208     CD =  0.01231   =>   CDf =  0.00665    CDp =  0.00566

 Side 1  free  transition at x/c =  0.7231   62
 Side 2 forced transition at x/c =  1.0000   79

   3   rms: 0.4611E-02   max: -.5037E-01   D at   62  1
       a =  1.500      CL =  0.3148
      Cm = -0.0208     CD =  0.01226   =>   CDf =  0.00669    CDp =  0.00558

 Side 1  free  transition at x/c =  0.7236   62
 Side 2 forced transition at x/c =  1.0000   79

   4   rms: 0.3609E-03   max: 0.2836E-02   D at   65  1
       a =  1.500      CL =  0.3148
      Cm = -0.0208     CD =  0.01227   =>   CDf =  0.00667    CDp =  0.00560

 Side 1  free  transition at x/c =  0.7235   62
 Side 2 forced transition at x/c =  1.0000   79

   5   rms: 0.3690E-05   max: 0.2449E-04   D at    4  1
       a =  1.500      CL =  0.3148
      Cm = -0.0208     CD =  0.01227   =>   CDf =  0.00667    CDp =  0.00560
 plradd ia,ip,cpol           12           0  0.15488784    

 Point added to stored polar  1
 Point written to save file  mh61_Re150k.base.pol                            
 Dump file unspecified or not available
 Calculating wake trajectory ...
 Calculating source influence matrix ...

 Solving BL system ...

 Side 1  free  transition at x/c =  0.7235   62
 Side 2 forced transition at x/c =  1.0000   79

   1   rms: 0.9082E-01   max: 0.6418E+00   T at   62  1
       a =  2.000      CL =  0.3715
      Cm = -0.0224     CD =  0.01269   =>   CDf =  0.00668    CDp =  0.00601

 Side 1  free  transition at x/c =  0.6934   60
 Side 2 forced transition at x/c =  1.0000   79

   2   rms: 0.5610E-01   max: -.4008E+00   D at   65  1
       a =  2.000      CL =  0.3606
      Cm = -0.0182     CD =  0.01238   =>   CDf =  0.00670    CDp =  0.00568

 Side 1  free  transition at x/c =  0.7089   61
 Side 2 forced transition at x/c =  1.0000   79

   3   rms: 0.3303E-01   max: 0.2853E+00   D at   63  1
       a =  2.000      CL =  0.3625
      Cm = -0.0189     CD =  0.01233   =>   CDf =  0.00672    CDp =  0.00561

 Side 1  free  transition at x/c =  0.7041   61
 Side 2 forced transition at x/c =  1.0000   79

   4   rms: 0.3612E-02   max: 0.4047E-01   D at   63  1
       a =  2.000      CL =  0.3633
      Cm = -0.0192     CD =  0.01236   =>   CDf =  0.00672    CDp =  0.00565

 Side 1  free  transition at x/c =  0.7027   61
 Side 2 forced transition at x/c =  1.0000   79

   5   rms: 0.3594E-03   max: -.2678E-02   D at   63  1
       a =  2.000      CL =  0.3632
      Cm = -0.0192     CD =  0.01236   =>   CDf =  0.00672    CDp =  0.00564

 Side 1  free  transition at x/c =  0.7028   61
 Side 2 forced transition at x/c =  1.0000   79

   6   rms: 0.1946E-05   max: -.1243E-04   D at   77  1
       a =  2.000      CL =  0.3632
      Cm = -0.0192     CD =  0.01236   =>   CDf =  0.00672    CDp =  0.00564
 plradd ia,ip,cpol           13           0  0.12845805    

 Point added to stored polar  1
 Point written to save file  mh61_Re150k.base.pol                            
 Dump file unspecified or not available
 Calculating wake trajectory ...
 Calculating source influence matrix ...

 Solving BL system ...

 Side 1  free  transition at x/c =  0.7028   61
 Side 2 forced transition at x/c =  1.0000   79

   1   rms: 0.7744E-01   max: -.8436E-01   D at   76  2
       a =  2.500      CL =  0.4100
      Cm = -0.0168     CD =  0.01233   =>   CDf =  0.00672    CDp =  0.00561

 Side 1  free  transition at x/c =  0.6853   60
 Side 2 forced transition at x/c =  1.0000   79

   2   rms: 0.1731E-01   max: -.2175E+00   D at   60  1
       a =  2.500      CL =  0.4110
      Cm = -0.0171     CD =  0.01240   =>   CDf =  0.00675    CDp =  0.00565

 Side 1  free  transition at x/c =  0.6835   59
 Side 2 forced transition at x/c =  1.0000   79

   3   rms: 0.1668E-02   max: -.1878E-01   D at   59  1
       a =  2.500      CL =  0.4111
      Cm = -0.0172     CD =  0.01239   =>   CDf =  0.00680    CDp =  0.00559

 Side 1  free  transition at x/c =  0.6835   59
 Side 2 forced transition at x/c =  1.0000   79

   4   rms: 0.5174E-04   max: 0.3792E-03   T at   59  1
       a =  2.500      CL =  0.4111
      Cm = -0.0172     CD =  0.01239   =>   CDf =  0.00679    CDp =  0.00560
 plradd ia,ip,cpol           14           0  8.94791037E-02

 Point added to stored polar  1
 Point written to save file  mh61_Re150k.base.pol                            
 Dump file unspecified or not available
 Calculating wake trajectory ...
 Calculating source influence matrix ...

 Solving BL system ...

 Side 1  free  transition at x/c =  0.6835   59
 Side 2 forced transition at x/c =  1.0000   79

   1   rms: 0.1086E+00   max: 0.7855E+00   T at   59  1   RLX: 0.727
       a =  3.000      CL =  0.4541
      Cm = -0.0190     CD =  0.01283   =>   CDf =  0.00663    CDp =  0.00620

 Side 1  free  transition at x/c =  0.6549   58
 Side 2 forced transition at x/c =  1.0000   78

   2   rms: 0.6280E-01   max: -.4667E+00   D at   63  1
       a =  3.000      CL =  0.4586
      Cm = -0.0148     CD =  0.01246   =>   CDf =  0.00676    CDp =  0.00570

 Side 1  free  transition at x/c =  0.6679   59
 Side 2 forced transition at x/c =  1.0000   78

   3   rms: 0.3369E-01   max: 0.3019E+00   D at   60  1
       a =  3.000      CL =  0.4601
      Cm = -0.0153     CD =  0.01236   =>   CDf =  0.00668    CDp =  0.00567

 Side 1  free  transition at x/c =  0.6624   59
 Side 2 forced transition at x/c =  1.0000   78

   4   rms: 0.5512E-02   max: 0.4349E-01   T at   59  1
       a =  3.000      CL =  0.4610
      Cm = -0.0157     CD =  0.01246   =>   CDf =  0.00672    CDp =  0.00575

 Side 1  free  transition at x/c =  0.6601   59
 Side 2 forced transition at x/c =  1.0000   78

   5   rms: 0.9415E-03   max: -.7557E-02   D at   60  1
       a =  3.000      CL =  0.4610
      Cm = -0.0157     CD =  0.01246   =>   CDf =  0.00675    CDp =  0.00571

 Side 1  free  transition at x/c =  0.6603   59
 Side 2 forced transition at x/c =  1.0000   78

   6   rms: 0.2569E-05   max: -.1564E-04   D at   59  1
       a =  3.000      CL =  0.4610
      Cm = -0.0157     CD =  0.01246   =>   CDf =  0.00675    CDp =  0.00572
 plradd ia,ip,cpol           15           0  6.42661452E-02

 Point added to stored polar  1
 Point written to save file  mh61_Re150k.base.pol                            
 Dump file unspecified or not available
 Calculating wake trajectory ...
 Calculating source influence matrix ...

 Solving BL system ...

 Side 1  free  transition at x/c =  0.6603   59
 Side 2 forced transition at x/c =  1.0000   78

   1   rms: 0.8123E-01   max: -.7271E-01   C at   78  2
       a =  3.500      CL =  0.5087
      Cm = -0.0132     CD =  0.01235   =>   CDf =  0.00675    CDp =  0.00560

 Side 1  free  transition at x/c =  0.6421   57
 Side 2 forced transition at x/c =  1.0000   78

   2   rms: 0.1826E-01   max: -.1953E+00   D at   58  1
       a =  3.500      CL =  0.5119
      Cm = -0.0146     CD =  0.01258   =>   CDf =  0.00668    CDp =  0.00590

 Side 1  free  transition at x/c =  0.6330   57
 Side 2 forced transition at x/c =  1.0000   78

   3   rms: 0.1015E-01   max: -.8748E-01   D at   58  1
       a =  3.500      CL =  0.5110
      Cm = -0.0142     CD =  0.01252   =>   CDf =  0.00675    CDp =  0.00577

 Side 1  free  transition at x/c =  0.6356   57
 Side 2 forced transition at x/c =  1.0000   78

   4   rms: 0.8575E-03   max: -.7138E-02   D at   58  1
       a =  3.500      CL =  0.5110
      Cm = -0.0142     CD =  0.01252   =>   CDf =  0.00672    CDp =  0.00580

 Side 1  free  transition at x/c =  0.6357   57
 Side 2 forced transition at x/c =  1.0000   78

   5   rms: 0.4093E-05   max: -.3630E-04   D at    4  2
       a =  3.500      CL =  0.5110
      Cm = -0.0142     CD =  0.01253   =>   CDf =  0.00672    CDp =  0.00580
 plradd ia,ip,cpol           16           0  4.03269865E-02

 Point added to stored polar  1
 Point written to save file  mh61_Re150k.base.pol                            
 Dump file unspecified or not available
 Calculating wake trajectory ...
 Calculating source influence matrix ...

 Solving BL system ...

 Side 1  free  transition at x/c =  0.6357   57
 Side 2 forced transition at x/c =  1.0000   78

   1   rms: 0.8680E-01   max: -.5962E+00   D at    3  2   RLX: 0.839
       a =  4.000      CL =  0.5527
      Cm = -0.0127     CD =  0.01251   =>   CDf =  0.00643    CDp =  0.00608

 Side 1  free  transition at x/c =  0.6149   56
 Side 2 forced transition at x/c =  1.0000   77

   2   rms: 0.2733E-01   max: -.2424E+00   D at   57  1
       a =  4.000      CL =  0.5620
      Cm = -0.0130     CD =  0.01260   =>   CDf =  0.00667    CDp =  0.00593

 Side 1  free  transition at x/c =  0.6062   56
 Side 2 forced transition at x/c =  1.0000   77

   3   rms: 0.9357E-02   max: -.8667E-01   D at   57  1
       a =  4.000      CL =  0.5613
      Cm = -0.0127     CD =  0.01258   =>   CDf =  0.00669    CDp =  0.00589

 Side 1  free  transition at x/c =  0.6086   56
 Side 2 forced transition at x/c =  1.0000   77

   4   rms: 0.6246E-03   max: -.5436E-02   D at   57  1
       a =  4.000      CL =  0.5612
      Cm = -0.0127     CD =  0.01258   =>   CDf =  0.00666    CDp =  0.00592

 Side 1  free  transition at x/c =  0.6087   56
 Side 2 forced transition at x/c =  1.0000   77

   5   rms: 0.2173E-05   max: -.1410E-04   C at   77  2
       a =  4.000      CL =  0.5612
      Cm = -0.0127     CD =  0.01258   =>   CDf =  0.00666    CDp =  0.00592
 plradd ia,ip,cpol           17           0  1.93670355E-02

 Point added to stored polar  1
 Point written to save file  mh61_Re150k.base.pol                            
 Dump file unspecified or not available
 Calculating wake trajectory ...
 Calculating source influence matrix ...

 Solving BL system ...

 Side 1  free  transition at x/c =  0.6087   56
 Side 2 forced transition at x/c =  1.0000   77

   1   rms: 0.8338E-01   max: 0.4544E+00   T at   56  1
       a =  4.500      CL =  0.6116
      Cm = -0.0111     CD =  0.01259   =>   CDf =  0.00667    CDp =  0.00592

 Side 1  free  transition at x/c =  0.5785   54
 Side 2 forced transition at x/c =  1.0000   77

   2   rms: 0.3461E-01   max: -.3425E+00   D at   55  1
       a =  4.500      CL =  0.6115
      Cm = -0.0110     CD =  0.01261   =>   CDf =  0.00659    CDp =  0.00602

 Side 1  free  transition at x/c =  0.5783   54
 Side 2 forced transition at x/c =  1.0000   77

   3   rms: 0.1800E-02   max: -.2239E-01   D at   59  1
       a =  4.500      CL =  0.6115
      Cm = -0.0111     CD =  0.01265   =>   CDf =  0.00663    CDp =  0.00602

 Side 1  free  transition at x/c =  0.5778   54
 Side 2 forced transition at x/c =  1.0000   77

   4   rms: 0.3757E-04   max: -.4013E-03   D at   59  1
       a =  4.500      CL =  0.6115
      Cm = -0.0111     CD =  0.01265   =>   CDf =  0.00664    CDp =  0.00601
 plradd ia,ip,cpol           18           0  1.14187701E-02

 Point added to stored polar  1
 Point written to save file  mh61_Re150k.base.pol                            
 Dump file unspecified or not available
 Calculating wake trajectory ...
 Calculating source influence matrix ...

 Solving BL system ...

 Side 1  free  transition at x/c =  0.5779   54
 Side 2 forced transition at x/c =  1.0000   77

   1   rms: 0.9152E-01   max: 0.5049E+00   T at   54  1
       a =  5.000      CL =  0.6606
      Cm = -0.0087     CD =  0.01259   =>   CDf =  0.00623    CDp =  0.00636

 Side 1  free  transition at x/c =  0.5480   52
 Side 2 forced transition at x/c =  1.0000   76

   2   rms: 0.3785E-01   max: -.3193E+00   D at   54  1
       a =  5.000      CL =  0.6625
      Cm = -0.0098     CD =  0.01266   =>   CDf =  0.00642    CDp =  0.00624

 Side 1  free  transition at x/c =  0.5401   52
 Side 2 forced transition at x/c =  1.0000   76

   3   rms: 0.3960E-02   max: -.3961E-01   D at   53  1
       a =  5.000      CL =  0.6621
      Cm = -0.0097     CD =  0.01280   =>   CDf =  0.00654    CDp =  0.00626

 Side 1  free  transition at x/c =  0.5403   52
 Side 2 forced transition at x/c =  1.0000   76

   4   rms: 0.5042E-04   max: 0.7482E-03   D at   53  1
       a =  5.000      CL =  0.6621
      Cm = -0.0097     CD =  0.01280   =>   CDf =  0.00654    CDp =  0.00626
 plradd ia,ip,cpol           19           0  3.18860766E-05

 Point added to stored polar  1
 Point written to save file  mh61_Re150k.base.pol                            
 Dump file unspecified or not available
[...]
      Cm = -0.2122     CD =  0.17423   =>   CDf =  0.00372    CDp =  0.17051

 Side 1  free  transition at x/c =  0.1139   21
 Side 2 forced transition at x/c =  1.0000   75

  13   rms: 0.3857E+02   max: 0.3772E+03   T at   22  1   RLX: 0.001
       a = 14.750      CL =  1.2112
      Cm = -0.2078     CD =  0.17212   =>   CDf =  0.00374    CDp =  0.16837

 Side 1  free  transition at x/c =  0.1087   21
 Side 2 forced transition at x/c =  1.0000   75

  14   rms: 0.7874E+00   max: -.1026E+02   T at   21  1   RLX: 0.049
       a = 14.750      CL =  1.2461
      Cm = -0.2177     CD =  0.16540   =>   CDf =  0.00367    CDp =  0.16174

 Side 1  free  transition at x/c =  0.1080   21
 Side 2 forced transition at x/c =  1.0000   75

  15   rms: 0.6392E+00   max: 0.5529E+01   C at   75  2   RLX: 0.151
       a = 14.750      CL =  1.2031
      Cm = -0.2008     CD =  0.13179   =>   CDf =  0.00378    CDp =  0.12802

 Side 1  free  transition at x/c =  0.1049   21
 Side 2 forced transition at x/c =  1.0000   75

  16   rms: 0.5925E+00   max: 0.4244E+01   C at   75  2   RLX: 0.202
       a = 14.750      CL =  1.1260
      Cm = -0.1760     CD =  0.14115   =>   CDf =  0.00408    CDp =  0.13707

 Side 1  free  transition at x/c =  0.0945   20
 Side 2 forced transition at x/c =  1.0000   75

  17   rms: 0.5844E+00   max: 0.4692E+01   T at   20  1   RLX: 0.152
       a = 14.750      CL =  1.0444
      Cm = -0.1452     CD =  0.18310   =>   CDf =  0.00433    CDp =  0.17877

 Side 1  free  transition at x/c =  0.0873   19
 Side 2 forced transition at x/c =  1.0000   75

  18   rms: 0.4830E+00   max: -.2617E+01   D at   97  2   RLX: 0.191
       a = 14.750      CL =  0.9863
      Cm = -0.1277     CD =  0.18542   =>   CDf =  0.00449    CDp =  0.18093

 Side 1  free  transition at x/c =  0.0804   19
 Side 2 forced transition at x/c =  1.0000   75

  19   rms: 0.4752E+00   max: 0.2672E+01   T at   19  1   RLX: 0.200
       a = 14.750      CL =  0.9274
      Cm = -0.1079     CD =  0.18921   =>   CDf =  0.00462    CDp =  0.18459

 Side 1  free  transition at x/c =  0.0766   18
 Side 2 forced transition at x/c =  1.0000   75

  20   rms: 0.5560E+00   max: 0.4014E+01   C at   75  2   RLX: 0.168
       a = 14.750      CL =  0.8933
      Cm = -0.1033     CD =  0.20860   =>   CDf =  0.00472    CDp =  0.20388

 Side 1  free  transition at x/c =  0.0757   18
 Side 2 forced transition at x/c =  1.0000   75

  21   rms: 0.4329E+00   max: -.2614E+01   D at   97  2   RLX: 0.191
       a = 14.750      CL =  0.8383
      Cm = -0.0867     CD =  0.19006   =>   CDf =  0.00481    CDp =  0.18526

 Side 1  free  transition at x/c =  0.0738   18
 Side 2 forced transition at x/c =  1.0000   75

  22   rms: 0.3978E+00   max: -.2355E+01   D at   97  2   RLX: 0.212
       a = 14.750      CL =  0.7834
      Cm = -0.0702     CD =  0.17109   =>   CDf =  0.00485    CDp =  0.16624

 MRCHDU: Convergence failed at  97  side 2    Res =  0.6497E-01
 Side 1  free  transition at x/c =  0.0712   18
 Side 2 forced transition at x/c =  1.0000   75

  23   rms: 0.3685E+00   max: -.2256E+01   D at   97  2   RLX: 0.222
       a = 14.750      CL =  0.7399
      Cm = -0.0570     CD =  0.16295   =>   CDf =  0.00486    CDp =  0.15809

 MRCHDU: Convergence failed at  97  side 2    Res =  0.2191E+00
 Side 1  free  transition at x/c =  0.0694   18
 Side 2 forced transition at x/c =  1.0000   75

  24   rms: 0.4284E+00   max: -.1265E+01   T at   96  2   RLX: 0.395
       a = 14.750      CL =  0.5923
      Cm = -0.0332     CD =  0.24479   =>   CDf =  0.00484    CDp =  0.23995

 Side 1  free  transition at x/c =  0.0714   18
 Side 2 forced transition at x/c =  1.0000   75

  25   rms: 0.2653E+00   max: -.8797E+00   T at   97  2   RLX: 0.568
       a = 14.750      CL =  0.5255
      Cm = -0.0215     CD =  0.19208   =>   CDf =  0.00445    CDp =  0.18764

 Side 1  free  transition at x/c =  0.0708   18
 Side 2 forced transition at x/c =  1.0000   75

  26   rms: 0.1946E+00   max: 0.1995E+01   T at   18  1   RLX: 0.710
       a = 14.750      CL =  0.5316
      Cm = -0.0190     CD =  0.16831   =>   CDf =  0.00408    CDp =  0.16424

 Side 1  free  transition at x/c =  0.0701   18
 Side 2 forced transition at x/c =  1.0000   75

  27   rms: 0.1216E+00   max: 0.1414E+01   D at   18  1   RLX: 0.825
       a = 14.750      CL =  0.5586
      Cm = -0.0224     CD =  0.17223   =>   CDf =  0.00381    CDp =  0.16842

 Side 1  free  transition at x/c =  0.0650   18
 Side 2 forced transition at x/c =  1.0000   75

  28   rms: 0.9761E-01   max: -.5439E+00   D at   18  1   RLX: 0.919
       a = 14.750      CL =  0.5682
      Cm = -0.0271     CD =  0.15472   =>   CDf =  0.00377    CDp =  0.15096

 Side 1  free  transition at x/c =  0.0660   18
 Side 2 forced transition at x/c =  1.0000   75

  29   rms: 0.6212E-01   max: -.2774E+00   D at   18  1
       a = 14.750      CL =  0.5917
      Cm = -0.0243     CD =  0.15081   =>   CDf =  0.00376    CDp =  0.14705

 Side 1  free  transition at x/c =  0.0642   17
 Side 2 forced transition at x/c =  1.0000   75

  30   rms: 0.1235E+00   max: -.5482E+00   D at   18  1   RLX: 0.912
       a = 14.750      CL =  0.6073
      Cm = -0.0238     CD =  0.15258   =>   CDf =  0.00376    CDp =  0.14882

 Side 1  free  transition at x/c =  0.0639   17
 Side 2 forced transition at x/c =  1.0000   75

  31   rms: 0.8637E-01   max: 0.3745E+00   D at   18  1
       a = 14.750      CL =  0.6286
      Cm = -0.0234     CD =  0.16748   =>   CDf =  0.00374    CDp =  0.16374

 Side 1  free  transition at x/c =  0.0604   17
 Side 2 forced transition at x/c =  1.0000   75

  32   rms: 0.1303E+00   max: -.5075E+00   T at   17  1   RLX: 0.985
       a = 14.750      CL =  0.6080
      Cm = -0.0286     CD =  0.17741   =>   CDf =  0.00371    CDp =  0.17370

 Side 1  free  transition at x/c =  0.0618   17
 Side 2 forced transition at x/c =  1.0000   75

  33   rms: 0.3842E-01   max: -.4075E+00   D at   17  1
       a = 14.750      CL =  0.5999
      Cm = -0.0247     CD =  0.16114   =>   CDf =  0.00376    CDp =  0.15737

 Side 1  free  transition at x/c =  0.0653   18
 Side 2 forced transition at x/c =  1.0000   75

  34   rms: 0.2104E+00   max: -.1583E+01   T at   18  1   RLX: 0.316
       a = 14.750      CL =  0.5562
      Cm = -0.0194     CD =  0.16241   =>   CDf =  0.00373    CDp =  0.15869

 Side 1  free  transition at x/c =  0.0655   18
 Side 2 forced transition at x/c =  1.0000   75

  35   rms: 0.7186E-01   max: -.4285E+00   D at   18  1
       a = 14.750      CL =  0.5743
      Cm = -0.0264     CD =  0.14786   =>   CDf =  0.00377    CDp =  0.14409

 Side 1  free  transition at x/c =  0.0658   18
 Side 2 forced transition at x/c =  1.0000   75

  36   rms: 0.6340E-01   max: -.2174E+00   D at   18  1
       a = 14.750      CL =  0.6018
      Cm = -0.0232     CD =  0.15118   =>   CDf =  0.00376    CDp =  0.14742

 Side 1  free  transition at x/c =  0.0634   17
 Side 2 forced transition at x/c =  1.0000   75

  37   rms: 0.3815E-01   max: -.1804E+00   D at   17  1
       a = 14.750      CL =  0.6099
      Cm = -0.0221     CD =  0.15482   =>   CDf =  0.00374    CDp =  0.15109

 Side 1  free  transition at x/c =  0.0640   17
 Side 2 forced transition at x/c =  1.0000   75

  38   rms: 0.1344E-01   max: 0.5018E-01   T at   17  1
       a = 14.750      CL =  0.6150
      Cm = -0.0228     CD =  0.15867   =>   CDf =  0.00372    CDp =  0.15495

 Side 1  free  transition at x/c =  0.0636   17
 Side 2 forced transition at x/c =  1.0000   75

  39   rms: 0.1677E-01   max: 0.7293E-01   D at   18  1
       a = 14.750      CL =  0.6160
      Cm = -0.0233     CD =  0.16045   =>   CDf =  0.00372    CDp =  0.15673

 Side 1  free  transition at x/c =  0.0637   17
 Side 2 forced transition at x/c =  1.0000   75

  40   rms: 0.4689E-02   max: -.2151E-01   T at   17  1
       a = 14.750      CL =  0.6145
      Cm = -0.0228     CD =  0.15852   =>   CDf =  0.00373    CDp =  0.15480

 Side 1  free  transition at x/c =  0.0638   17
 Side 2 forced transition at x/c =  1.0000   75

  41   rms: 0.2341E-02   max: 0.1113E-01   D at   18  1
       a = 14.750      CL =  0.6150
      Cm = -0.0229     CD =  0.15880   =>   CDf =  0.00372    CDp =  0.15508

 Side 1  free  transition at x/c =  0.0638   17
 Side 2 forced transition at x/c =  1.0000   75

  42   rms: 0.9822E-03   max: 0.4549E-02   T at   18  1
       a = 14.750      CL =  0.6147
      Cm = -0.0228     CD =  0.15858   =>   CDf =  0.00372    CDp =  0.15485

 Side 1  free  transition at x/c =  0.0638   17
 Side 2 forced transition at x/c =  1.0000   75

  43   rms: 0.1421E-03   max: 0.5849E-03   T at   18  1
       a = 14.750      CL =  0.6147
      Cm = -0.0228     CD =  0.15855   =>   CDf =  0.00372    CDp =  0.15483

 Side 1  free  transition at x/c =  0.0638   17
 Side 2 forced transition at x/c =  1.0000   75

  44   rms: 0.2067E-04   max: -.9708E-04   T at   17  1
       a = 14.750      CL =  0.6147
      Cm = -0.0228     CD =  0.15854   =>   CDf =  0.00372    CDp =  0.15482
 plradd ia,ip,cpol           48           0  3.18860766E-05

 Point added to stored polar  1
 Point written to save file  mh61_Re150k.base.pol                            
 Dump file unspecified or not available
 Calculating wake trajectory ...
 Calculating source influence matrix ...

 Solving BL system ...

 Side 1  free  transition at x/c =  0.0638   17
 Side 2 forced transition at x/c =  1.0000   75

   1   rms: 0.3482E-01   max: 0.1388E+00   T at   17  1   RLX: 0.441
       a = 15.000      CL =  0.6125
      Cm = -0.0245     CD =  0.16169   =>   CDf =  0.00372    CDp =  0.15796

 Side 1  free  transition at x/c =  0.0633   17
 Side 2 forced transition at x/c =  1.0000   75

   2   rms: 0.3107E-01   max: 0.1107E+00   D at   18  1
       a = 15.000      CL =  0.6092
      Cm = -0.0270     CD =  0.16610   =>   CDf =  0.00373    CDp =  0.16238

 Side 1  free  transition at x/c =  0.0626   17
 Side 2 forced transition at x/c =  1.0000   75

   3   rms: 0.1769E-01   max: -.8794E-01   T at   17  1
       a = 15.000      CL =  0.6066
      Cm = -0.0267     CD =  0.16404   =>   CDf =  0.00374    CDp =  0.16030

 Side 1  free  transition at x/c =  0.0632   17
 Side 2 forced transition at x/c =  1.0000   75

   4   rms: 0.6575E-02   max: -.3232E-01   D at   18  1
       a = 15.000      CL =  0.6060
      Cm = -0.0261     CD =  0.16182   =>   CDf =  0.00374    CDp =  0.15808

 Side 1  free  transition at x/c =  0.0633   17
 Side 2 forced transition at x/c =  1.0000   75

   5   rms: 0.2441E-02   max: 0.1530E-01   T at   17  1
       a = 15.000      CL =  0.6063
      Cm = -0.0263     CD =  0.16243   =>   CDf =  0.00374    CDp =  0.15869

 Side 1  free  transition at x/c =  0.0632   17
 Side 2 forced transition at x/c =  1.0000   75

   6   rms: 0.6927E-03   max: -.3629E-02   T at   17  1
       a = 15.000      CL =  0.6063
      Cm = -0.0263     CD =  0.16242   =>   CDf =  0.00374    CDp =  0.15868

 Side 1  free  transition at x/c =  0.0632   17
 Side 2 forced transition at x/c =  1.0000   75

   7   rms: 0.6141E-04   max: -.3065E-03   T at   17  1
       a = 15.000      CL =  0.6063
      Cm = -0.0263     CD =  0.16238   =>   CDf =  0.00374    CDp =  0.15864
 plradd ia,ip,cpol           49           0  3.18860766E-05

 Point added to stored polar  1
 Point written to save file  mh61_Re150k.base.pol                            
 Dump file unspecified or not available
 Calculating wake trajectory ...
 Calculating source influence matrix ...

 Solving BL system ...

 Side 1  free  transition at x/c =  0.0632   17
 Side 2 forced transition at x/c =  1.0000   75

   1   rms: 0.5983E-01   max: 0.3233E+00   T at   17  1   RLX: 0.424
       a = 15.250      CL =  0.6006
      Cm = -0.0284     CD =  0.16508   =>   CDf =  0.00374    CDp =  0.16134

 Side 1  free  transition at x/c =  0.0625   17
 Side 2 forced transition at x/c =  1.0000   75

   2   rms: 0.2995E-01   max: 0.2222E+00   T at   17  1
       a = 15.250      CL =  0.5935
      Cm = -0.0306     CD =  0.16655   =>   CDf =  0.00375    CDp =  0.16281

 Side 1  free  transition at x/c =  0.0613   17
 Side 2 forced transition at x/c =  1.0000   75

   3   rms: 0.1381E-01   max: -.6933E-01   D at   18  1
       a = 15.250      CL =  0.5929
      Cm = -0.0298     CD =  0.16353   =>   CDf =  0.00376    CDp =  0.15977

 Side 1  free  transition at x/c =  0.0613   17
 Side 2 forced transition at x/c =  1.0000   75

   4   rms: 0.6201E-02   max: 0.7151E-01   T at   17  1
       a = 15.250      CL =  0.5951
      Cm = -0.0301     CD =  0.16558   =>   CDf =  0.00376    CDp =  0.16182

 Side 1  free  transition at x/c =  0.0608   17
 Side 2 forced transition at x/c =  1.0000   75

   5   rms: 0.1019E-02   max: -.5856E-02   D at   18  1
       a = 15.250      CL =  0.5952
      Cm = -0.0301     CD =  0.16560   =>   CDf =  0.00376    CDp =  0.16185

 Side 1  free  transition at x/c =  0.0608   17
 Side 2 forced transition at x/c =  1.0000   75

   6   rms: 0.3691E-03   max: 0.4518E-02   T at   17  1
       a = 15.250      CL =  0.5954
      Cm = -0.0301     CD =  0.16573   =>   CDf =  0.00376    CDp =  0.16197

 Side 1  free  transition at x/c =  0.0607   17
 Side 2 forced transition at x/c =  1.0000   75

   7   rms: 0.2107E-04   max: -.2109E-03   D at   95  2
       a = 15.250      CL =  0.5954
      Cm = -0.0301     CD =  0.16575   =>   CDf =  0.00376    CDp =  0.16199
 plradd ia,ip,cpol           50           0  3.18860766E-05

 Point added to stored polar  1
 Point written to save file  mh61_Re150k.base.pol                            
 Dump file unspecified or not available
 Calculating wake trajectory ...
 Calculating source influence matrix ...

 Solving BL system ...

 Side 1  free  transition at x/c =  0.0607   17
 Side 2 forced transition at x/c =  1.0000   75

   1   rms: 0.3102E-01   max: 0.4521E+00   T at   17  1   RLX: 0.415
       a = 15.500      CL =  0.5950
      Cm = -0.0314     CD =  0.16839   =>   CDf =  0.00375    CDp =  0.16463

 Side 1  free  transition at x/c =  0.0593   17
 Side 2 forced transition at x/c =  1.0000   75

   2   rms: 0.1155E-01   max: 0.2301E+00   T at   17  1
       a = 15.500      CL =  0.5959
      Cm = -0.0322     CD =  0.16988   =>   CDf =  0.00376    CDp =  0.16612

 Side 1  free  transition at x/c =  0.0573   17
 Side 2 forced transition at x/c =  1.0000   75

   3   rms: 0.4979E-02   max: -.3103E-01   D at   18  1
       a = 15.500      CL =  0.5948
      Cm = -0.0320     CD =  0.16817   =>   CDf =  0.00376    CDp =  0.16442

 Side 1  free  transition at x/c =  0.0575   17
 Side 2 forced transition at x/c =  1.0000   75

   4   rms: 0.2175E-02   max: 0.2377E-01   T at   17  1
       a = 15.500      CL =  0.5959
      Cm = -0.0320     CD =  0.16869   =>   CDf =  0.00375    CDp =  0.16493

 Side 1  free  transition at x/c =  0.0573   17
 Side 2 forced transition at x/c =  1.0000   75

   5   rms: 0.3319E-03   max: 0.3229E-02   T at   17  1
       a = 15.500      CL =  0.5961
      Cm = -0.0320     CD =  0.16887   =>   CDf =  0.00375    CDp =  0.16512

 Side 1  free  transition at x/c =  0.0573   17
 Side 2 forced transition at x/c =  1.0000   75

   6   rms: 0.4092E-04   max: 0.4469E-03   T at   17  1
       a = 15.500      CL =  0.5961
      Cm = -0.0320     CD =  0.16889   =>   CDf =  0.00375    CDp =  0.16513
 plradd ia,ip,cpol           51           0  3.18860766E-05

 Point added to stored polar  1
 Point written to save file  mh61_Re150k.base.pol                            
 Dump file unspecified or not available
 Calculating wake trajectory ...
 Calculating source influence matrix ...

 Solving BL system ...

 Side 1  free  transition at x/c =  0.0573   17
 Side 2 forced transition at x/c =  1.0000   75

   1   rms: 0.2824E-01   max: 0.5475E+00   T at   17  1   RLX: 0.408
       a = 15.750      CL =  0.5987
      Cm = -0.0324     CD =  0.17051   =>   CDf =  0.00375    CDp =  0.16676

 Side 1  free  transition at x/c =  0.0555   17
 Side 2 forced transition at x/c =  1.0000   75

   2   rms: 0.2821E-01   max: 0.3800E+00   T at   17  1
       a = 15.750      CL =  0.6055
      Cm = -0.0319     CD =  0.17042   =>   CDf =  0.00375    CDp =  0.16667

 Side 1  free  transition at x/c =  0.0537   17
 Side 2 forced transition at x/c =  1.0000   75

   3   rms: 0.1290E-01   max: 0.5018E-01   T at   17  1
       a = 15.750      CL =  0.6082
      Cm = -0.0311     CD =  0.16930   =>   CDf =  0.00373    CDp =  0.16556

 Side 1  free  transition at x/c =  0.0536   17
 Side 2 forced transition at x/c =  1.0000   75

   4   rms: 0.7012E-02   max: 0.4566E-01   T at   17  1
       a = 15.750      CL =  0.6117
      Cm = -0.0310     CD =  0.17118   =>   CDf =  0.00372    CDp =  0.16745

 Side 1  free  transition at x/c =  0.0535   17
 Side 2 forced transition at x/c =  1.0000   75

   5   rms: 0.1270E-02   max: 0.6969E-02   D at   17  1
       a = 15.750      CL =  0.6118
      Cm = -0.0311     CD =  0.17147   =>   CDf =  0.00372    CDp =  0.16775

 Side 1  free  transition at x/c =  0.0534   17
 Side 2 forced transition at x/c =  1.0000   75

   6   rms: 0.5297E-03   max: -.2692E-02   T at   17  1
       a = 15.750      CL =  0.6115
      Cm = -0.0311     CD =  0.17132   =>   CDf =  0.00372    CDp =  0.16760

 Side 1  free  transition at x/c =  0.0535   17
 Side 2 forced transition at x/c =  1.0000   75

   7   rms: 0.6320E-04   max: 0.3373E-03   D at   94  2
       a = 15.750      CL =  0.6115
      Cm = -0.0311     CD =  0.17128   =>   CDf =  0.00372    CDp =  0.16756
 plradd ia,ip,cpol           52           0  3.18860766E-05

 Point added to stored polar  1
 Point written to save file  mh61_Re150k.base.pol                            
 Dump file unspecified or not available
 Calculating wake trajectory ...
 Calculating source influence matrix ...

 Solving BL system ...

 Side 1  free  transition at x/c =  0.0535   17
 Side 2 forced transition at x/c =  1.0000   75

   1   rms: 0.4842E-01   max: 0.3859E+00   T at   17  1   RLX: 0.406
       a = 16.000      CL =  0.6170
      Cm = -0.0308     CD =  0.17270   =>   CDf =  0.00372    CDp =  0.16898

 Side 1  free  transition at x/c =  0.0529   17
 Side 2 forced transition at x/c =  1.0000   75

   2   rms: 0.4033E-01   max: 0.2798E+00   T at   17  1
       a = 16.000      CL =  0.6272
      Cm = -0.0295     CD =  0.17356   =>   CDf =  0.00371    CDp =  0.16986

 Side 1  free  transition at x/c =  0.0521   16
 Side 2 forced transition at x/c =  1.0000   75

   3   rms: 0.3846E-01   max: -.1316E+00   D at   17  1
       a = 16.000      CL =  0.6228
      Cm = -0.0294     CD =  0.17064   =>   CDf =  0.00371    CDp =  0.16693

 Side 1  free  transition at x/c =  0.0521   16
 Side 2 forced transition at x/c =  1.0000   75

   4   rms: 0.7945E-02   max: -.3842E-01   D at   94  2
       a = 16.000      CL =  0.6279
      Cm = -0.0298     CD =  0.17665   =>   CDf =  0.00371    CDp =  0.17293

 Side 1  free  transition at x/c =  0.0521   16
 Side 2 forced transition at x/c =  1.0000   75

   5   rms: 0.2025E-02   max: 0.6164E-02   D at   17  1
       a = 16.000      CL =  0.6279
      Cm = -0.0298     CD =  0.17702   =>   CDf =  0.00371    CDp =  0.17331

 Side 1  free  transition at x/c =  0.0521   16
 Side 2 forced transition at x/c =  1.0000   75

   6   rms: 0.3619E-03   max: 0.2058E-02   D at   94  2
       a = 16.000      CL =  0.6277
      Cm = -0.0298     CD =  0.17672   =>   CDf =  0.00371    CDp =  0.17301

 Side 1  free  transition at x/c =  0.0521   16
 Side 2 forced transition at x/c =  1.0000   75

   7   rms: 0.1402E-04   max: 0.1250E-03   D at   94  2
       a = 16.000      CL =  0.6277
      Cm = -0.0298     CD =  0.17671   =>   CDf =  0.00371    CDp =  0.17300
 plradd ia,ip,cpol           53           0  3.18860766E-05

 Point added to stored polar  1
 Point written to save file  mh61_Re150k.base.pol                            
 Dump file unspecified or not available

.OPERva   c>  
 Polar accumulation disabled

.OPERv   c>  
 XFOIL   c>  
 XFOIL   c>  