  
       XFOIL         Version 6.99
  
 Calculated polar for: MH 70  11.08%                                   
  
 1 1 Reynolds number fixed          Mach number fixed         
  
 xtrf =   1.000 (top)        1.000 (bottom)  
 Mach =   0.000     Re =     0.200 e 6     Ncrit =   9.000
  
   alpha    CL        CD       CDp       CM     Top_Xtr  Bot_Xtr
  ------ -------- --------- --------- -------- -------- --------
-4.000  -0.0960   0.01614   0.00855  -0.0664   0.8690   0.0342
-3.500  -0.0487   0.01460   0.00702  -0.0643   0.8520   0.0491
-3.000  -0.0039   0.01238   0.00568  -0.0624   0.8353   0.2365
-2.500   0.0438   0.01152   0.00539  -0.0607   0.8187   0.4231
-2.000   0.0894   0.01072   0.00522  -0.0580   0.8023   0.6176
-1.000   0.2093   0.01004   0.00501  -0.0556   0.7685   0.9545
-0.500   0.3157   0.00990   0.00454  -0.0655   0.7492   1.0000
0.000   0.3600   0.00993   0.00433  -0.0633   0.7290   1.0000
0.500   0.4067   0.01000   0.00416  -0.0612   0.7089   1.0000
1.000   0.4547   0.01010   0.00407  -0.0594   0.6874   1.0000
1.500   0.5037   0.01021   0.00401  -0.0578   0.6642   1.0000
2.000   0.5536   0.01035   0.00399  -0.0562   0.6403   1.0000
2.500   0.6042   0.01051   0.00400  -0.0549   0.6144   1.0000
3.000   0.6549   0.01072   0.00410  -0.0536   0.5858   1.0000
3.500   0.7057   0.01098   0.00424  -0.0524   0.5553   1.0000
4.000   0.7563   0.01132   0.00445  -0.0513   0.5228   1.0000
4.500   0.8063   0.01176   0.00473  -0.0501   0.4887   1.0000
5.000   0.8558   0.01226   0.00516  -0.0490   0.4521   1.0000
5.500   0.9044   0.01287   0.00566  -0.0477   0.4156   1.0000
6.000   0.9520   0.01359   0.00625  -0.0465   0.3796   1.0000
6.500   0.9987   0.01437   0.00697  -0.0451   0.3441   1.0000
7.000   1.0442   0.01526   0.00778  -0.0437   0.3112   1.0000
7.500   1.0885   0.01624   0.00872  -0.0422   0.2811   1.0000
8.000   1.1315   0.01732   0.00977  -0.0406   0.2540   1.0000
8.500   1.1724   0.01853   0.01091  -0.0388   0.2298   1.0000
9.000   1.2122   0.01970   0.01218  -0.0368   0.2071   1.0000
9.500   1.2484   0.02115   0.01357  -0.0345   0.1875   1.0000
10.000   1.2824   0.02251   0.01509  -0.0320   0.1688   1.0000
10.250   1.2971   0.02330   0.01586  -0.0305   0.1604   1.0000
10.500   1.3110   0.02403   0.01672  -0.0288   0.1522   1.0000
10.750   1.3218   0.02501   0.01761  -0.0268   0.1450   1.0000
11.000   1.3321   0.02575   0.01854  -0.0248   0.1376   1.0000
11.250   1.3412   0.02686   0.01960  -0.0229   0.1310   1.0000
11.500   1.3500   0.02779   0.02070  -0.0211   0.1241   1.0000
11.750   1.3575   0.02909   0.02195  -0.0194   0.1180   1.0000
12.000   1.3651   0.03024   0.02328  -0.0179   0.1117   1.0000
12.250   1.3712   0.03179   0.02474  -0.0165   0.1059   1.0000
12.500   1.3775   0.03317   0.02636  -0.0152   0.1005   1.0000
12.750   1.3818   0.03482   0.02802  -0.0140   0.0954   1.0000
13.000   1.3864   0.03662   0.02994  -0.0130   0.0903   1.0000
13.250   1.3901   0.03846   0.03188  -0.0121   0.0857   1.0000
13.500   1.3929   0.04059   0.03399  -0.0113   0.0813   1.0000
13.750   1.3946   0.04278   0.03638  -0.0107   0.0771   1.0000
14.000   1.3956   0.04510   0.03875  -0.0104   0.0734   1.0000
14.250   1.3964   0.04764   0.04133  -0.0099   0.0698   1.0000
14.500   1.3957   0.05034   0.04423  -0.0099   0.0665   1.0000
14.750   1.3943   0.05317   0.04713  -0.0100   0.0633   1.0000
15.000   1.3938   0.05605   0.05001  -0.0099   0.0603   1.0000
15.250   1.3898   0.05946   0.05365  -0.0105   0.0578   1.0000
15.500   1.3864   0.06287   0.05719  -0.0113   0.0552   1.0000
15.750   1.3842   0.06621   0.06055  -0.0120   0.0529   1.0000
16.000   1.3815   0.06978   0.06420  -0.0126   0.0507   1.0000
