
 ===================================================
  XFOIL Version 6.99
  Copyright (C) 2000   Mark Drela, Harold Youngren

  This software comes with ABSOLUTELY NO WARRANTY,
    subject to the GNU General Public License.

  Caveat computor
 ===================================================

 File  xfoil.def  not found

   QUIT    Exit program

  .OPER    Direct operating point(s)
  .MDES    Complex mapping design routine
  .QDES    Surface speed design routine
  .GDES    Geometry design routine

   SAVE f  Write airfoil to labeled coordinate file
   PSAV f  Write airfoil to plain coordinate file
   ISAV f  Write airfoil to ISES coordinate file
   MSAV f  Write airfoil to MSES coordinate file
   REVE    Reverse written-airfoil node ordering

   LOAD f  Read buffer airfoil from coordinate file
   NACA i  Set NACA 4,5-digit airfoil and buffer airfoil
   INTE    Set buffer airfoil by interpolating two airfoils
   NORM    Buffer airfoil normalization toggle
   XYCM rr Change CM reference location, currently  0.25000 0.00000

   BEND    Display structural properties of current airfoil

   PCOP    Set current-airfoil panel nodes directly from buffer airfoil points
   PANE    Set current-airfoil panel nodes ( 160 ) based on curvature
  .PPAR    Show/change paneling

  .PLOP    Plotting options

   WDEF f  Write  current-settings file
   RDEF f  Reread current-settings file
   NAME s  Specify new airfoil name
   NINC    Increment name version number

   Z       Zoom    | (available in all menus)
   U       Unzoom  | 

 XFOIL   c>  
 Labeled airfoil file.  Name:  MH 70  11.08%                                   

 Number of input coordinate points:  68
 Counterclockwise ordering
 Max thickness =     0.110770  at x =   0.293
 Max camber    =     0.030847  at x =   0.385

  LE  x,y  =   0.00000  -0.00001  |   Chord =   1.00000
  TE  x,y  =   1.00000   0.00000  |

 Current airfoil nodes set from buffer airfoil nodes (  68 )

 XFOIL   c>  
 XFOIL   c>  
 Sharp trailing edge

 Paneling parameters used...
   Number of panel nodes       160
   Panel bunching parameter    1.000
   TE/LE panel density ratio   0.150
   Refined-area/LE panel density ratio    0.200
   Top    side refined area x/c limits  1.000 1.000
   Bottom side refined area x/c limits  1.000 1.000

 XFOIL   c>  
.OPERi   c>  
 Xtr/c     =  1.0000    top    side
 Xtr/c     =  1.0000    bottom side
 Ncrit     =    9.00   ( 0.070 % turb. level )
 Vacc      =  0.0100

 Klag  =  5.6000     Uxwt  =    1.00
 A     =  6.7000     B     =  0.7500       KCt = 0.01485
 CtiniK=  1.8000     CtiniX=  3.3000

..VPAR   c>  
..VPAR   c>  
.OPERi   c>  
 M  =    0.0000
 Re =    150000

.OPERv   c>  
.OPERv   c>  
.OPERv   c>  
 Polar  1 newly created for accumulation
 Airfoil archived with polar: MH 70  11.08%                                   

Enter  polar save filename  OR  <return> for no file   s>  
 New polar save file available

Enter  polar dump filename  OR  <return> for no file   s>  
 Polar dump file will NOT be written

 Polar accumulation enabled

.OPERva   c>   Calculating unit vorticity distributions ...
 Calculating wake trajectory ...
 Calculating source influence matrix ...

 Solving BL system ...

 Initializing BL ...
    side            1  ...
 MRCHUE: Inverse mode at  50     Hk =   3.800
 MRCHUE: Inverse mode at  51     Hk =   4.148
 MRCHUE: Inverse mode at  52     Hk =   4.488
 MRCHUE: Inverse mode at  53     Hk =   4.823
 MRCHUE: Inverse mode at  54     Hk =   5.153
 MRCHUE: Inverse mode at  55     Hk =   5.479
 MRCHUE: Inverse mode at  56     Hk =   5.801
 MRCHUE: Inverse mode at  57     Hk =   6.119
 MRCHUE: Inverse mode at  58     Hk =   6.435
 MRCHUE: Inverse mode at  59     Hk =   6.749
 MRCHUE: Inverse mode at  60     Hk =   7.060
 MRCHUE: Inverse mode at  61     Hk =   7.368
 MRCHUE: Inverse mode at  62     Hk =   7.673
 MRCHUE: Inverse mode at  63     Hk =   7.974
 MRCHUE: Inverse mode at  64     Hk =   8.272
 MRCHUE: Inverse mode at  65     Hk =   8.566
 MRCHUE: Inverse mode at  66     Hk =   8.857
 MRCHUE: Inverse mode at  67     Hk =   9.144
 MRCHUE: Inverse mode at  68     Hk =   9.428
 MRCHUE: Inverse mode at  69     Hk =   9.288
 MRCHUE: Inverse mode at  70     Hk =   8.017
 MRCHUE: Inverse mode at  71     Hk =   7.097
 MRCHUE: Inverse mode at  72     Hk =   6.379
 MRCHUE: Inverse mode at  73     Hk =   5.807
 MRCHUE: Inverse mode at  74     Hk =   5.359
 MRCHUE: Inverse mode at  75     Hk =   5.022
 MRCHUE: Inverse mode at  76     Hk =   4.850
    side            2  ...
 MRCHUE: Inverse mode at  13     Hk =   4.431
 MRCHUE: Inverse mode at  14     Hk =   5.027
 MRCHUE: Inverse mode at  15     Hk =   5.562
 MRCHUE: Convergence failed at  16  side 2    Res =  0.6202E+01
 MRCHUE: Inverse mode at  17     Hk =   6.111
 MRCHUE: Inverse mode at  18     Hk =   6.660
 MRCHUE: Inverse mode at  19     Hk =   7.227
 MRCHUE: Inverse mode at  20     Hk =   7.825
 MRCHUE: Inverse mode at  21     Hk =   8.471
 MRCHUE: Inverse mode at  22     Hk =   9.179
 MRCHUE: Inverse mode at  23     Hk =   9.959
 MRCHUE: Inverse mode at  24     Hk =   7.937
 MRCHUE: Inverse mode at  25     Hk =   4.742
 MRCHUE: Inverse mode at  26     Hk =   2.787

 Side 1  free  transition at x/c =  0.9082   69
 Side 2  free  transition at x/c =  0.0472   24

   1   rms: 0.2700E+00   max: -.9363E+00   D at   30  2   RLX: 0.534
       a = -4.000      CL = -0.1365
      Cm = -0.0772     CD =  0.01861   =>   CDf =  0.00696    CDp =  0.01165

 Side 1  free  transition at x/c =  0.9050   69
 Side 2  free  transition at x/c =  0.0475   24

   2   rms: 0.1366E+00   max: -.4163E+00   D at   29  2   RLX: 0.852
       a = -4.000      CL = -0.0713
      Cm = -0.0772     CD =  0.01800   =>   CDf =  0.00756    CDp =  0.01043

 Side 1  free  transition at x/c =  0.9108   70
 Side 2  free  transition at x/c =  0.0502   24

   3   rms: 0.5951E-01   max: 0.4038E+00   T at   24  2
       a = -4.000      CL = -0.0890
      Cm = -0.0715     CD =  0.01983   =>   CDf =  0.00791    CDp =  0.01192

 Side 1  free  transition at x/c =  0.8985   70
 Side 2  free  transition at x/c =  0.0473   23

   4   rms: 0.1987E-01   max: -.2863E+00   D at   23  2
       a = -4.000      CL = -0.0855
      Cm = -0.0725     CD =  0.01841   =>   CDf =  0.00789    CDp =  0.01052

 Side 1  free  transition at x/c =  0.9024   70
 Side 2  free  transition at x/c =  0.0478   23

   5   rms: 0.4252E-02   max: 0.3451E-01   D at   25  2
       a = -4.000      CL = -0.0858
      Cm = -0.0724     CD =  0.01826   =>   CDf =  0.00788    CDp =  0.01038

 Side 1  free  transition at x/c =  0.9028   70
 Side 2  free  transition at x/c =  0.0478   23

   6   rms: 0.7983E-04   max: 0.1006E-02   D at   24  2
       a = -4.000      CL = -0.0858
      Cm = -0.0724     CD =  0.01826   =>   CDf =  0.00788    CDp =  0.01038
 plradd ia,ip,cpol            1           0  5.32257080E-04

 Point added to stored polar  1
 Point written to save file  mh70_Re150k.base.pol                            
 Dump file unspecified or not available
 Calculating wake trajectory ...
 Calculating source influence matrix ...

 Solving BL system ...

 Side 1  free  transition at x/c =  0.9028   70
 Side 2  free  transition at x/c =  0.0478   23

   1   rms: 0.1216E+00   max: -.8534E+00   T at   23  2   RLX: 0.586
       a = -3.500      CL = -0.0530
      Cm = -0.0717     CD =  0.01720   =>   CDf =  0.00788    CDp =  0.00932

 Side 1  free  transition at x/c =  0.8934   69
 Side 2  free  transition at x/c =  0.0577   24

   2   rms: 0.5701E-01   max: 0.8867E+00   D at   24  2
       a = -3.500      CL = -0.0405
      Cm = -0.0701     CD =  0.01649   =>   CDf =  0.00785    CDp =  0.00864

 Side 1  free  transition at x/c =  0.8809   69
 Side 2  free  transition at x/c =  0.0671   25

   3   rms: 0.2295E-01   max: 0.2534E+00   D at   25  2
       a = -3.500      CL = -0.0364
      Cm = -0.0705     CD =  0.01629   =>   CDf =  0.00784    CDp =  0.00846

 Side 1  free  transition at x/c =  0.8847   69
 Side 2  free  transition at x/c =  0.0705   25

   4   rms: 0.6646E-02   max: -.4828E-01   D at   26  2
       a = -3.500      CL = -0.0361
      Cm = -0.0705     CD =  0.01632   =>   CDf =  0.00784    CDp =  0.00848

 Side 1  free  transition at x/c =  0.8849   69
 Side 2  free  transition at x/c =  0.0713   25

   5   rms: 0.4820E-04   max: -.3355E-03   D at   26  2
       a = -3.500      CL = -0.0361
      Cm = -0.0705     CD =  0.01633   =>   CDf =  0.00785    CDp =  0.00848
 plradd ia,ip,cpol            2           0  1.59021222E-03

 Point added to stored polar  1
 Point written to save file  mh70_Re150k.base.pol                            
 Dump file unspecified or not available
 Calculating wake trajectory ...
 Calculating source influence matrix ...

 Solving BL system ...

 Side 1  free  transition at x/c =  0.8849   69
 Side 2  free  transition at x/c =  0.0713   25

   1   rms: 0.2063E+00   max: -.2565E+01   T at   25  2   RLX: 0.195
       a = -3.000      CL = -0.0250
      Cm = -0.0700     CD =  0.01615   =>   CDf =  0.00785    CDp =  0.00829

 MRCHDU: Convergence failed at  27  side 2    Res =  0.5394E+01
 MRCHDU: Convergence failed at  28  side 2    Res =  0.8157E+01
 MRCHDU: Convergence failed at  29  side 2    Res =  0.8634E+02
 MRCHDU: Convergence failed at  30  side 2    Res =  0.2621E+03
 MRCHDU: Convergence failed at  31  side 2    Res =  0.5655E+03
 MRCHDU: Convergence failed at  32  side 2    Res =  0.7877E+02
 MRCHDU: Convergence failed at  33  side 2    Res =  0.4164E+02
 MRCHDU: Convergence failed at  34  side 2    Res =  0.3049E+02
 MRCHDU: Convergence failed at  35  side 2    Res =  0.2412E+02
 MRCHDU: Convergence failed at  36  side 2    Res =  0.2016E+02
 MRCHDU: Convergence failed at  37  side 2    Res =  0.2189E+02
 MRCHDU: Convergence failed at  38  side 2    Res =  0.1817E+02
 MRCHDU: Convergence failed at  39  side 2    Res =  0.1668E+02
 MRCHDU: Convergence failed at  40  side 2    Res =  0.1588E+02
 MRCHDU: Convergence failed at  41  side 2    Res =  0.1466E+02
 MRCHDU: Convergence failed at  42  side 2    Res =  0.1403E+02
 MRCHDU: Convergence failed at  43  side 2    Res =  0.1324E+02
 MRCHDU: Convergence failed at  44  side 2    Res =  0.1293E+02
 MRCHDU: Convergence failed at  45  side 2    Res =  0.1256E+02
 MRCHDU: Convergence failed at  46  side 2    Res =  0.1230E+02
 MRCHDU: Convergence failed at  47  side 2    Res =  0.1205E+02
 MRCHDU: Convergence failed at  48  side 2    Res =  0.1195E+02
 MRCHDU: Convergence failed at  49  side 2    Res =  0.1173E+02
 MRCHDU: Convergence failed at  50  side 2    Res =  0.9236E+01
 MRCHDU: Convergence failed at  51  side 2    Res =  0.9577E+01
 MRCHDU: Convergence failed at  52  side 2    Res =  0.9821E+01
 MRCHDU: Convergence failed at  53  side 2    Res =  0.1009E+02
 MRCHDU: Convergence failed at  54  side 2    Res =  0.1043E+02
 MRCHDU: Convergence failed at  55  side 2    Res =  0.1074E+02
 MRCHDU: Convergence failed at  56  side 2    Res =  0.1098E+02
 MRCHDU: Convergence failed at  57  side 2    Res =  0.1121E+02
 MRCHDU: Convergence failed at  58  side 2    Res =  0.1144E+02
 MRCHDU: Convergence failed at  59  side 2    Res =  0.1167E+02
 MRCHDU: Convergence failed at  60  side 2    Res =  0.1192E+02
 MRCHDU: Convergence failed at  61  side 2    Res =  0.1217E+02
 MRCHDU: Convergence failed at  62  side 2    Res =  0.1249E+02
 MRCHDU: Convergence failed at  63  side 2    Res =  0.1276E+02
 MRCHDU: Convergence failed at  64  side 2    Res =  0.1304E+02
 MRCHDU: Convergence failed at  65  side 2    Res =  0.1335E+02
 MRCHDU: Convergence failed at  66  side 2    Res =  0.1369E+02
 MRCHDU: Convergence failed at  67  side 2    Res =  0.1405E+02
 MRCHDU: Convergence failed at  68  side 2    Res =  0.1444E+02
 MRCHDU: Convergence failed at  69  side 2    Res =  0.1485E+02
 MRCHDU: Convergence failed at  70  side 2    Res =  0.1531E+02
 MRCHDU: Convergence failed at  71  side 2    Res =  0.1582E+02
 MRCHDU: Convergence failed at  72  side 2    Res =  0.1640E+02
 MRCHDU: Convergence failed at  73  side 2    Res =  0.1707E+02
 MRCHDU: Convergence failed at  74  side 2    Res =  0.1785E+02
 MRCHDU: Convergence failed at  75  side 2    Res =  0.1874E+02
 MRCHDU: Convergence failed at  76  side 2    Res =  0.1985E+02
 MRCHDU: Convergence failed at  77  side 2    Res =  0.2118E+02
 MRCHDU: Convergence failed at  78  side 2    Res =  0.2284E+02
 MRCHDU: Convergence failed at  79  side 2    Res =  0.2497E+02
 MRCHDU: Convergence failed at  80  side 2    Res =  0.2769E+02
 MRCHDU: Convergence failed at  81  side 2    Res =  0.2963E+02
 MRCHDU: Convergence failed at  82  side 2    Res =  0.1546E+02
 MRCHDU: Convergence failed at  83  side 2    Res =  0.3295E+02
 MRCHDU: Convergence failed at  84  side 2    Res =  0.3550E+02
 MRCHDU: Convergence failed at  85  side 2    Res =  0.1051E+03
 Side 1  free  transition at x/c =  0.8820   69
 Side 2  free  transition at x/c =  0.0897   27

   2   rms: 0.6272E+00   max: -.3434E+01   T at   27  2   RLX: 0.146
       a = -3.000      CL = -0.5667
      Cm =  0.1269     CD =  0.00915   =>   CDf =  0.00308    CDp =  0.00606

 Side 1  free  transition at x/c =  0.8808   69
 Side 2  free  transition at x/c =  0.1259   29

   3   rms: 0.3180E+00   max: -.1516E+01   C at   29  2   RLX: 0.330
       a = -3.000      CL = -0.3635
      Cm =  0.0576     CD =  0.01273   =>   CDf =  0.01079    CDp =  0.00194

 Side 1  free  transition at x/c =  0.8773   68
 Side 2  free  transition at x/c =  0.1177   29

   4   rms: 0.1100E+01   max: 0.1340E+02   T at   29  2   RLX: 0.104
       a = -3.000      CL = -0.3586
      Cm =  0.0501     CD =  0.01395   =>   CDf =  0.00967    CDp =  0.00428

 Side 1  free  transition at x/c =  0.8711   68
 Side 2  free  transition at x/c =  0.0819   26

   5   rms: 0.3557E+00   max: 0.4300E+01   T at   26  2   RLX: 0.150
       a = -3.000      CL = -0.3325
      Cm =  0.0382     CD =  0.01437   =>   CDf =  0.00974    CDp =  0.00464

 Side 1  free  transition at x/c =  0.8680   68
 Side 2  free  transition at x/c =  0.0699   25

   6   rms: 0.1836E+00   max: 0.1273E+01   T at   25  2   RLX: 0.479
       a = -3.000      CL = -0.2438
      Cm =  0.0026     CD =  0.01587   =>   CDf =  0.00980    CDp =  0.00607

 MRCHDU: Convergence failed at  83  side 2    Res =  0.1331E+00
 Side 1  free  transition at x/c =  0.8632   67
 Side 2  free  transition at x/c =  0.0595   24

   7   rms: 0.2442E+00   max: -.2365E+01   T at   24  2   RLX: 0.211
       a = -3.000      CL = -0.2046
      Cm = -0.0055     CD =  0.01753   =>   CDf =  0.00945    CDp =  0.00808

 MRCHDU: Convergence failed at  25  side 2    Res =  0.5604E+03
 MRCHDU: Convergence failed at  26  side 2    Res =  0.1301E+02
 MRCHDU: Convergence failed at  27  side 2    Res =  0.2333E+02
 MRCHDU: Convergence failed at  28  side 2    Res =  0.7558E+01
 MRCHDU: Convergence failed at  29  side 2    Res =  0.1284E+02
 MRCHDU: Convergence failed at  30  side 2    Res =  0.1720E+02
 MRCHDU: Convergence failed at  31  side 2    Res =  0.1590E+02
 MRCHDU: Convergence failed at  32  side 2    Res =  0.2245E+02
 MRCHDU: Convergence failed at  33  side 2    Res =  0.2555E+02
 MRCHDU: Convergence failed at  34  side 2    Res =  0.3761E+02
 MRCHDU: Convergence failed at  35  side 2    Res =  0.6486E+02
 MRCHDU: Convergence failed at  36  side 2    Res =  0.1623E+03
 MRCHDU: Convergence failed at  37  side 2    Res =  0.5577E+03
 MRCHDU: Convergence failed at  38  side 2    Res =  0.1761E+03
 MRCHDU: Convergence failed at  39  side 2    Res =  0.8688E+02
 MRCHDU: Convergence failed at  40  side 2    Res =  0.6058E+02
 MRCHDU: Convergence failed at  41  side 2    Res =  0.4745E+02
 MRCHDU: Convergence failed at  42  side 2    Res =  0.3945E+02
 MRCHDU: Convergence failed at  43  side 2    Res =  0.3402E+02
 MRCHDU: Convergence failed at  44  side 2    Res =  0.3032E+02
 MRCHDU: Convergence failed at  45  side 2    Res =  0.2778E+02
 MRCHDU: Convergence failed at  46  side 2    Res =  0.2575E+02
 MRCHDU: Convergence failed at  47  side 2    Res =  0.2393E+02
 MRCHDU: Convergence failed at  48  side 2    Res =  0.2248E+02
 MRCHDU: Convergence failed at  49  side 2    Res =  0.2145E+02
 MRCHDU: Convergence failed at  50  side 2    Res =  0.2039E+02
 MRCHDU: Convergence failed at  51  side 2    Res =  0.1970E+02
 MRCHDU: Convergence failed at  52  side 2    Res =  0.1916E+02
 MRCHDU: Convergence failed at  53  side 2    Res =  0.1852E+02
 MRCHDU: Convergence failed at  54  side 2    Res =  0.1808E+02
 MRCHDU: Convergence failed at  55  side 2    Res =  0.1770E+02
 MRCHDU: Convergence failed at  56  side 2    Res =  0.1727E+02
 MRCHDU: Convergence failed at  57  side 2    Res =  0.1697E+02
 MRCHDU: Convergence failed at  58  side 2    Res =  0.1671E+02
 MRCHDU: Convergence failed at  59  side 2    Res =  0.1636E+02
 MRCHDU: Convergence failed at  60  side 2    Res =  0.1611E+02
 MRCHDU: Convergence failed at  61  side 2    Res =  0.1588E+02
 MRCHDU: Convergence failed at  62  side 2    Res =  0.1566E+02
 MRCHDU: Convergence failed at  63  side 2    Res =  0.1545E+02
 MRCHDU: Convergence failed at  64  side 2    Res =  0.1520E+02
 MRCHDU: Convergence failed at  65  side 2    Res =  0.1502E+02
 MRCHDU: Convergence failed at  66  side 2    Res =  0.1485E+02
 MRCHDU: Convergence failed at  67  side 2    Res =  0.1468E+02
 MRCHDU: Convergence failed at  68  side 2    Res =  0.1294E+02
 MRCHDU: Convergence failed at  69  side 2    Res =  0.1313E+02
 MRCHDU: Convergence failed at  70  side 2    Res =  0.1331E+02
 MRCHDU: Convergence failed at  71  side 2    Res =  0.1349E+02
 MRCHDU: Convergence failed at  72  side 2    Res =  0.1365E+02
 MRCHDU: Convergence failed at  73  side 2    Res =  0.1381E+02
 MRCHDU: Convergence failed at  74  side 2    Res =  0.1396E+02
 MRCHDU: Convergence failed at  75  side 2    Res =  0.1406E+02
 MRCHDU: Convergence failed at  76  side 2    Res =  0.1414E+02
 MRCHDU: Convergence failed at  77  side 2    Res =  0.1413E+02
 MRCHDU: Convergence failed at  78  side 2    Res =  0.1403E+02
 MRCHDU: Convergence failed at  79  side 2    Res =  0.1376E+02
 MRCHDU: Convergence failed at  80  side 2    Res =  0.1462E+02
 MRCHDU: Convergence failed at  81  side 2    Res =  0.1590E+02
 MRCHDU: Convergence failed at  82  side 2    Res =  0.2006E+02
 MRCHDU: Convergence failed at  83  side 2    Res =  0.2045E+02
 MRCHDU: Convergence failed at  84  side 2    Res =  0.3634E+02
 MRCHDU: Convergence failed at  85  side 2    Res =  0.2770E+02
 Side 1  free  transition at x/c =  0.8627   67
 Side 2  free  transition at x/c =  0.0681   25

   8   rms: 0.6951E+00   max: -.3225E+01   T at   25  2   RLX: 0.155
       a = -3.000      CL = -0.7907
      Cm =  0.1885     CD =  0.00870   =>   CDf =  0.00291    CDp =  0.00578

 Side 1  free  transition at x/c =  0.8667   68
 Side 2  free  transition at x/c =  0.0958   27

   9   rms: 0.3821E+00   max: 0.1436E+01   D at   29  2   RLX: 0.536
       a = -3.000      CL = -0.2931
      Cm =  0.0140     CD =  0.01875   =>   CDf =  0.00897    CDp =  0.00978

 Side 1  free  transition at x/c =  0.8702   68
 Side 2  free  transition at x/c =  0.1071   28

  10   rms: 0.3543E+00   max: -.1498E+01   T at   28  2   RLX: 0.334
       a = -3.000      CL = -0.1902
      Cm = -0.0200     CD =  0.01564   =>   CDf =  0.00730    CDp =  0.00834

 Side 1  free  transition at x/c =  0.8682   68
 Side 2  free  transition at x/c =  0.1390   30

  11   rms: 0.1957E+01   max: 0.3909E+02   C at   30  2   RLX: 0.038
       a = -3.000      CL = -0.1919
      Cm = -0.0208     CD =  0.01587   =>   CDf =  0.00702    CDp =  0.00884

 Side 1  free  transition at x/c =  0.8675   68
 Side 2  free  transition at x/c =  0.1315   30

  12   rms: 0.1923E+01   max: 0.3442E+02   C at   30  2   RLX: 0.044
       a = -3.000      CL = -0.1931
      Cm = -0.0220     CD =  0.01607   =>   CDf =  0.00731    CDp =  0.00876

 Side 1  free  transition at x/c =  0.8663   68
 Side 2  free  transition at x/c =  0.1115   28

  13   rms: 0.1033E+01   max: -.1268E+02   C at   28  2   RLX: 0.039
       a = -3.000      CL = -0.1952
      Cm = -0.0222     CD =  0.01593   =>   CDf =  0.00756    CDp =  0.00837

 Side 1  free  transition at x/c =  0.8655   68
 Side 2  free  transition at x/c =  0.0946   27

  14   rms: 0.6376E+00   max: 0.6811E+01   T at   27  2   RLX: 0.101
       a = -3.000      CL = -0.2014
      Cm = -0.0219     CD =  0.01598   =>   CDf =  0.00778    CDp =  0.00820

 Side 1  free  transition at x/c =  0.8638   67
 Side 2  free  transition at x/c =  0.0752   26

  15   rms: 0.5486E+00   max: 0.5450E+01   T at   26  2   RLX: 0.185
       a = -3.000      CL = -0.2248
      Cm = -0.0201     CD =  0.01669   =>   CDf =  0.00830    CDp =  0.00839

 MRCHDU: Convergence failed at  26  side 2    Res =  0.3200E+01
 MRCHDU: Convergence failed at  27  side 2    Res =  0.2249E+02
 MRCHDU: Convergence failed at  28  side 2    Res =  0.9581E+01
 MRCHDU: Convergence failed at  29  side 2    Res =  0.8727E+04
 Side 1  free  transition at x/c =  0.8529   67
 Side 2  free  transition at x/c =  0.0600   25

  16   rms: 0.2205E+00   max: -.1167E+01   D at   82  2   RLX: 0.429
       a = -3.000      CL = -0.2068
      Cm = -0.0315     CD =  0.01811   =>   CDf =  0.00775    CDp =  0.01036

 MRCHDU: Convergence failed at  70  side 2    Res =  0.1583E+00
 Side 1  free  transition at x/c =  0.8515   67
 Side 2  free  transition at x/c =  0.0587   24

  17   rms: 0.2102E+00   max: -.2176E+01   T at   24  2   RLX: 0.230
       a = -3.000      CL = -0.1706
      Cm = -0.0334     CD =  0.01774   =>   CDf =  0.00829    CDp =  0.00945

 MRCHDU: Convergence failed at  25  side 2    Res =  0.2173E+01
 MRCHDU: Convergence failed at  26  side 2    Res =  0.1516E+02
 MRCHDU: Convergence failed at  27  side 2    Res =  0.7736E+01
 MRCHDU: Convergence failed at  28  side 2    Res =  0.2187E+02
 MRCHDU: Convergence failed at  29  side 2    Res =  0.5946E+02
 MRCHDU: Convergence failed at  30  side 2    Res =  0.1343E+03
 MRCHDU: Convergence failed at  31  side 2    Res =  0.4439E+02
 MRCHDU: Convergence failed at  32  side 2    Res =  0.4020E+02
 MRCHDU: Convergence failed at  33  side 2    Res =  0.5396E+02
 MRCHDU: Convergence failed at  34  side 2    Res =  0.4674E+02
 MRCHDU: Convergence failed at  35  side 2    Res =  0.3916E+02
 MRCHDU: Convergence failed at  36  side 2    Res =  0.3297E+02
 MRCHDU: Convergence failed at  37  side 2    Res =  0.2973E+02
 MRCHDU: Convergence failed at  38  side 2    Res =  0.2885E+02
 MRCHDU: Convergence failed at  39  side 2    Res =  0.1709E+02
 MRCHDU: Convergence failed at  40  side 2    Res =  0.1608E+02
 MRCHDU: Convergence failed at  41  side 2    Res =  0.1511E+02
 MRCHDU: Convergence failed at  42  side 2    Res =  0.1181E+02
 MRCHDU: Convergence failed at  43  side 2    Res =  0.1317E+02
 MRCHDU: Convergence failed at  44  side 2    Res =  0.1305E+02
 MRCHDU: Convergence failed at  45  side 2    Res =  0.1889E+02
 MRCHDU: Convergence failed at  46  side 2    Res =  0.1749E+02
 MRCHDU: Convergence failed at  47  side 2    Res =  0.1655E+02
 MRCHDU: Convergence failed at  48  side 2    Res =  0.1588E+02
 MRCHDU: Convergence failed at  49  side 2    Res =  0.1538E+02
 MRCHDU: Convergence failed at  50  side 2    Res =  0.1510E+02
 MRCHDU: Convergence failed at  51  side 2    Res =  0.1493E+02
 MRCHDU: Convergence failed at  52  side 2    Res =  0.1488E+02
 MRCHDU: Convergence failed at  53  side 2    Res =  0.1494E+02
 MRCHDU: Convergence failed at  54  side 2    Res =  0.1520E+02
 MRCHDU: Convergence failed at  55  side 2    Res =  0.1593E+02
 MRCHDU: Convergence failed at  56  side 2    Res =  0.1826E+02
 MRCHDU: Convergence failed at  57  side 2    Res =  0.2354E+02
 MRCHDU: Convergence failed at  58  side 2    Res =  0.2052E+02
 MRCHDU: Convergence failed at  59  side 2    Res =  0.1980E+02
 MRCHDU: Convergence failed at  60  side 2    Res =  0.1999E+02
 MRCHDU: Convergence failed at  61  side 2    Res =  0.2047E+02
 MRCHDU: Convergence failed at  62  side 2    Res =  0.2117E+02
 MRCHDU: Convergence failed at  63  side 2    Res =  0.2293E+02
 MRCHDU: Convergence failed at  64  side 2    Res =  0.3249E+02
 MRCHDU: Convergence failed at  65  side 2    Res =  0.2759E+02
 MRCHDU: Convergence failed at  66  side 2    Res =  0.3102E+02
 MRCHDU: Convergence failed at  67  side 2    Res =  0.3936E+02
 MRCHDU: Convergence failed at  68  side 2    Res =  0.3938E+02
 MRCHDU: Convergence failed at  69  side 2    Res =  0.1353E+03
 MRCHDU: Convergence failed at  70  side 2    Res =  0.1473E+03
 MRCHDU: Convergence failed at  71  side 2    Res =  0.3585E+02
 MRCHDU: Convergence failed at  72  side 2    Res =  0.3339E+02
 MRCHDU: Convergence failed at  73  side 2    Res =  0.3354E+02
 MRCHDU: Convergence failed at  74  side 2    Res =  0.3543E+02
 MRCHDU: Convergence failed at  75  side 2    Res =  0.3923E+02
 MRCHDU: Convergence failed at  76  side 2    Res =  0.4072E+02
 MRCHDU: Convergence failed at  77  side 2    Res =  0.1878E+02
 MRCHDU: Convergence failed at  78  side 2    Res =  0.9666E+02
 MRCHDU: Convergence failed at  79  side 2    Res =  0.2765E+03
 MRCHDU: Convergence failed at  80  side 2    Res =  0.2404E+03
 MRCHDU: Convergence failed at  81  side 2    Res =  0.8120E+02
 MRCHDU: Convergence failed at  82  side 2    Res =  0.4868E+02
 MRCHDU: Convergence failed at  83  side 2    Res =  0.3712E+02
 MRCHDU: Convergence failed at  84  side 2    Res =  0.2834E+02
 MRCHDU: Convergence failed at  85  side 2    Res =  0.2486E+02
 Side 1  free  transition at x/c =  0.8534   67
 Side 2  free  transition at x/c =  0.0678   25

  18   rms: 0.6933E+00   max: -.2818E+01   T at   25  2   RLX: 0.177
       a = -3.000      CL = -0.7930
      Cm =  0.1877     CD =  0.00895   =>   CDf =  0.00287    CDp =  0.00608

 Side 1  free  transition at x/c =  0.8568   67
 Side 2  free  transition at x/c =  0.0972   27

  19   rms: 0.4674E+00   max: 0.2743E+01   C at   27  2   RLX: 0.188
       a = -3.000      CL = -0.5263
      Cm =  0.0956     CD =  0.01432   =>   CDf =  0.00954    CDp =  0.00478

 Side 1  free  transition at x/c =  0.8600   67
 Side 2  free  transition at x/c =  0.1146   29

  20   rms: 0.5117E+00   max: -.7132E+01   C at   29  2   RLX: 0.070
       a = -3.000      CL = -0.4824
      Cm =  0.0798     CD =  0.01395   =>   CDf =  0.00934    CDp =  0.00460

 Side 1  free  transition at x/c =  0.8609   67
 Side 2  free  transition at x/c =  0.1312   30

  21   rms: 0.6735E+00   max: -.1237E+02   C at   30  2   RLX: 0.040
       a = -3.000      CL = -0.4595
      Cm =  0.0734     CD =  0.01391   =>   CDf =  0.00908    CDp =  0.00483

 Side 1  free  transition at x/c =  0.8613   67
 Side 2  free  transition at x/c =  0.1397   30

  22   rms: 0.3363E+00   max: -.1562E+01   T at   30  2   RLX: 0.320
       a = -3.000      CL = -0.3098
      Cm =  0.0256     CD =  0.01414   =>   CDf =  0.00889    CDp =  0.00525

 MRCHDU: Convergence failed at  48  side 2    Res =  0.4135E+02
 MRCHDU: Convergence failed at  49  side 2    Res =  0.2271E+01
 MRCHDU: Convergence failed at  50  side 2    Res =  0.2297E+01
 MRCHDU: Convergence failed at  51  side 2    Res =  0.3054E+01
 MRCHDU: Convergence failed at  52  side 2    Res =  0.7453E+01
 MRCHDU: Convergence failed at  53  side 2    Res =  0.8665E+01
 Side 1  free  transition at x/c =  0.8639   67
 Side 2  free  transition at x/c =  0.6202   60

  23   rms: 0.1052E+01   max: 0.5977E+01   T at   60  2   RLX: 0.098
       a = -3.000      CL = -0.3636
      Cm =  0.0332     CD =  0.01258   =>   CDf =  0.00637    CDp =  0.00621

 Side 1  free  transition at x/c =  0.8592   67
 Side 2  free  transition at x/c =  0.1248   29

  24   rms: 0.4572E+00   max: 0.3627E+01   T at   29  2   RLX: 0.142
       a = -3.000      CL = -0.3222
      Cm =  0.0190     CD =  0.01434   =>   CDf =  0.00833    CDp =  0.00602

 Side 1  free  transition at x/c =  0.8586   67
 Side 2  free  transition at x/c =  0.0983   28

  25   rms: 0.3950E+00   max: 0.3746E+01   T at   28  2   RLX: 0.223
       a = -3.000      CL = -0.2827
      Cm =  0.0057     CD =  0.01521   =>   CDf =  0.00832    CDp =  0.00689

 MRCHDU: Convergence failed at  28  side 2    Res =  0.3745E+01
 Side 1  free  transition at x/c =  0.8565   67
 Side 2  free  transition at x/c =  0.0804   26

  26   rms: 0.1963E+00   max: -.9582E+00   D at   71  2   RLX: 0.522
       a = -3.000      CL = -0.1806
      Cm = -0.0255     CD =  0.01521   =>   CDf =  0.00854    CDp =  0.00668

 Side 1  free  transition at x/c =  0.8571   67
 Side 2  free  transition at x/c =  0.0803   26

  27   rms: 0.1361E+00   max: -.7338E+00   T at   26  2   RLX: 0.681
       a = -3.000      CL = -0.0954
      Cm = -0.0462     CD =  0.01547   =>   CDf =  0.00820    CDp =  0.00727

 Side 1  free  transition at x/c =  0.8594   67
 Side 2  free  transition at x/c =  0.1003   28

  28   rms: 0.2283E+00   max: -.1715E+01   C at   28  2   RLX: 0.292
       a = -3.000      CL = -0.0729
      Cm = -0.0514     CD =  0.01489   =>   CDf =  0.00790    CDp =  0.00699

 Side 1  free  transition at x/c =  0.8613   67
 Side 2  free  transition at x/c =  0.1255   29

  29   rms: 0.1877E+00   max: -.2178E+01   T at   29  2   RLX: 0.230
       a = -3.000      CL = -0.0546
      Cm = -0.0548     CD =  0.01501   =>   CDf =  0.00770    CDp =  0.00732

 MRCHDU: Convergence failed at  32  side 2    Res =  0.6831E+01
 MRCHDU: Convergence failed at  33  side 2    Res =  0.1904E+01
 MRCHDU: Convergence failed at  34  side 2    Res =  0.2526E+01
 MRCHDU: Convergence failed at  35  side 2    Res =  0.3002E+01
 MRCHDU: Convergence failed at  36  side 2    Res =  0.3336E+01
 MRCHDU: Convergence failed at  37  side 2    Res =  0.3623E+01
 MRCHDU: Convergence failed at  38  side 2    Res =  0.3902E+01
 MRCHDU: Convergence failed at  39  side 2    Res =  0.4209E+01
 MRCHDU: Convergence failed at  40  side 2    Res =  0.4554E+01
 MRCHDU: Convergence failed at  41  side 2    Res =  0.4936E+01
 MRCHDU: Convergence failed at  42  side 2    Res =  0.5364E+01
 MRCHDU: Convergence failed at  43  side 2    Res =  0.5826E+01
 MRCHDU: Convergence failed at  44  side 2    Res =  0.6342E+01
 MRCHDU: Convergence failed at  45  side 2    Res =  0.7636E+01
 MRCHDU: Convergence failed at  46  side 2    Res =  0.8131E+01
 MRCHDU: Convergence failed at  47  side 2    Res =  0.9098E+01
 MRCHDU: Convergence failed at  48  side 2    Res =  0.9889E+01
 MRCHDU: Convergence failed at  49  side 2    Res =  0.1088E+02
 MRCHDU: Convergence failed at  50  side 2    Res =  0.1133E+02
 MRCHDU: Convergence failed at  51  side 2    Res =  0.1138E+02
 MRCHDU: Convergence failed at  52  side 2    Res =  0.1193E+02
 MRCHDU: Convergence failed at  53  side 2    Res =  0.1234E+02
 MRCHDU: Convergence failed at  54  side 2    Res =  0.1227E+02
 MRCHDU: Convergence failed at  55  side 2    Res =  0.1255E+02
 MRCHDU: Convergence failed at  56  side 2    Res =  0.1275E+02
 MRCHDU: Convergence failed at  57  side 2    Res =  0.1269E+02
 MRCHDU: Convergence failed at  58  side 2    Res =  0.1292E+02
 MRCHDU: Convergence failed at  59  side 2    Res =  0.1328E+02
 MRCHDU: Convergence failed at  60  side 2    Res =  0.1003E+02
 MRCHDU: Convergence failed at  61  side 2    Res =  0.1356E+02
 MRCHDU: Convergence failed at  62  side 2    Res =  0.1386E+02
 MRCHDU: Convergence failed at  63  side 2    Res =  0.1443E+02
 MRCHDU: Convergence failed at  64  side 2    Res =  0.1544E+02
 MRCHDU: Convergence failed at  65  side 2    Res =  0.1838E+02
 MRCHDU: Convergence failed at  66  side 2    Res =  0.3182E+02
 MRCHDU: Convergence failed at  67  side 2    Res =  0.7443E+01
 MRCHDU: Convergence failed at  68  side 2    Res =  0.7174E+01
 MRCHDU: Convergence failed at  69  side 2    Res =  0.6766E+01
 MRCHDU: Convergence failed at  70  side 2    Res =  0.6777E+01
 MRCHDU: Convergence failed at  71  side 2    Res =  0.6998E+01
 MRCHDU: Convergence failed at  72  side 2    Res =  0.7557E+01
 MRCHDU: Convergence failed at  73  side 2    Res =  0.7734E+01
 MRCHDU: Convergence failed at  74  side 2    Res =  0.8681E+01
 MRCHDU: Convergence failed at  75  side 2    Res =  0.9023E+01
 MRCHDU: Convergence failed at  76  side 2    Res =  0.8795E+01
 MRCHDU: Convergence failed at  77  side 2    Res =  0.8611E+01
 MRCHDU: Convergence failed at  78  side 2    Res =  0.8433E+01
 MRCHDU: Convergence failed at  79  side 2    Res =  0.1482E+02
 MRCHDU: Convergence failed at  80  side 2    Res =  0.1925E+02
 MRCHDU: Convergence failed at  81  side 2    Res =  0.1435E+02
 MRCHDU: Convergence failed at  82  side 2    Res =  0.2390E+02
 MRCHDU: Convergence failed at  83  side 2    Res =  0.2305E+02
 MRCHDU: Convergence failed at  84  side 2    Res =  0.2752E+02
 MRCHDU: Convergence failed at  85  side 2    Res =  0.3704E+02
 Side 1  free  transition at x/c =  0.8629   67
 Side 2  free  transition at x/c =  0.1667   32

  30   rms: 0.4104E+00   max: -.1931E+01   T at   32  2   RLX: 0.259
       a = -3.000      CL = -0.2837
      Cm =  0.0447     CD =  0.00975   =>   CDf =  0.00332    CDp =  0.00643

 Side 1  free  transition at x/c =  0.8664   69
 Side 2  free  transition at x/c =  0.2341   36

  31   rms: 0.2032E+00   max: -.1749E+01   C at   36  2   RLX: 0.286
       a = -3.000      CL = -0.1863
      Cm =  0.0079     CD =  0.01160   =>   CDf =  0.00880    CDp =  0.00280

 Side 1  free  transition at x/c =  0.8664   69
 Side 2  free  transition at x/c =  0.2520   37

  32   rms: 0.1663E+00   max: -.1934E+01   C at   37  2   RLX: 0.259
       a = -3.000      CL = -0.1363
      Cm = -0.0123     CD =  0.01204   =>   CDf =  0.00818    CDp =  0.00386

 Side 1  free  transition at x/c =  0.8665   69
 Side 2  free  transition at x/c =  0.2647   37

  33   rms: 0.1126E+00   max: 0.1766E+00   D at   86  2
       a = -3.000      CL =  0.0027
      Cm = -0.0673     CD =  0.01353   =>   CDf =  0.00780    CDp =  0.00573

 MRCHDU: Convergence failed at  44  side 2    Res =  0.1916E+01
 MRCHDU: Convergence failed at  45  side 2    Res =  0.1755E+01
 MRCHDU: Convergence failed at  46  side 2    Res =  0.1984E+01
 MRCHDU: Convergence failed at  47  side 2    Res =  0.2149E+01
 MRCHDU: Convergence failed at  48  side 2    Res =  0.2317E+01
 MRCHDU: Convergence failed at  49  side 2    Res =  0.2491E+01
 MRCHDU: Convergence failed at  50  side 2    Res =  0.2661E+01
 MRCHDU: Convergence failed at  51  side 2    Res =  0.2831E+01
 MRCHDU: Convergence failed at  52  side 2    Res =  0.3004E+01
 MRCHDU: Convergence failed at  53  side 2    Res =  0.3184E+01
 MRCHDU: Convergence failed at  54  side 2    Res =  0.3374E+01
 MRCHDU: Convergence failed at  55  side 2    Res =  0.3579E+01
 MRCHDU: Convergence failed at  56  side 2    Res =  0.4107E+01
 MRCHDU: Convergence failed at  57  side 2    Res =  0.4318E+01
 MRCHDU: Convergence failed at  58  side 2    Res =  0.4440E+01
 MRCHDU: Convergence failed at  59  side 2    Res =  0.4549E+01
 MRCHDU: Convergence failed at  60  side 2    Res =  0.4617E+01
 MRCHDU: Convergence failed at  61  side 2    Res =  0.4670E+01
 MRCHDU: Convergence failed at  62  side 2    Res =  0.4718E+01
 MRCHDU: Convergence failed at  63  side 2    Res =  0.4897E+01
 MRCHDU: Convergence failed at  64  side 2    Res =  0.4976E+01
 MRCHDU: Convergence failed at  65  side 2    Res =  0.5027E+01
 MRCHDU: Convergence failed at  66  side 2    Res =  0.5072E+01
 MRCHDU: Convergence failed at  67  side 2    Res =  0.5107E+01
 MRCHDU: Convergence failed at  68  side 2    Res =  0.5138E+01
 MRCHDU: Convergence failed at  69  side 2    Res =  0.5159E+01
 MRCHDU: Convergence failed at  70  side 2    Res =  0.5177E+01
 MRCHDU: Convergence failed at  71  side 2    Res =  0.5192E+01
 MRCHDU: Convergence failed at  72  side 2    Res =  0.5193E+01
 MRCHDU: Convergence failed at  73  side 2    Res =  0.5187E+01
 MRCHDU: Convergence failed at  74  side 2    Res =  0.5183E+01
 MRCHDU: Convergence failed at  75  side 2    Res =  0.5155E+01
 MRCHDU: Convergence failed at  76  side 2    Res =  0.5152E+01
 MRCHDU: Convergence failed at  77  side 2    Res =  0.5110E+01
 MRCHDU: Convergence failed at  78  side 2    Res =  0.5055E+01
 MRCHDU: Convergence failed at  79  side 2    Res =  0.4978E+01
 MRCHDU: Convergence failed at  80  side 2    Res =  0.4888E+01
 MRCHDU: Convergence failed at  81  side 2    Res =  0.4779E+01
 MRCHDU: Convergence failed at  82  side 2    Res =  0.4602E+01
 MRCHDU: Convergence failed at  83  side 2    Res =  0.4466E+01
 MRCHDU: Convergence failed at  84  side 2    Res =  0.5190E+01
 Side 1  free  transition at x/c =  0.8669   69
 Side 2  free  transition at x/c =  0.3648   44

  34   rms: 0.2002E+00   max: 0.3304E+00   D at   91  2   RLX: 0.979
       a = -3.000      CL =  0.0372
      Cm = -0.0726     CD =  0.01189   =>   CDf =  0.00395    CDp =  0.00794

 Side 1  free  transition at x/c =  0.8705   69
 Side 2  free  transition at x/c =  0.4004   46

  35   rms: 0.8414E-01   max: 0.1010E+01   C at   46  2   RLX: 0.952
       a = -3.000      CL =  0.0057
      Cm = -0.0681     CD =  0.01384   =>   CDf =  0.00637    CDp =  0.00747

 Side 1  free  transition at x/c =  0.8668   69
 Side 2  free  transition at x/c =  0.3222   41

  36   rms: 0.2593E-01   max: -.2431E+00   D at   42  2
       a = -3.000      CL =  0.0059
      Cm = -0.0680     CD =  0.01386   =>   CDf =  0.00665    CDp =  0.00721

 Side 1  free  transition at x/c =  0.8671   69
 Side 2  free  transition at x/c =  0.3188   41

  37   rms: 0.3473E-02   max: 0.5280E-01   C at   41  2
       a = -3.000      CL =  0.0060
      Cm = -0.0680     CD =  0.01391   =>   CDf =  0.00661    CDp =  0.00730

 Side 1  free  transition at x/c =  0.8671   69
 Side 2  free  transition at x/c =  0.3170   41

  38   rms: 0.5366E-04   max: -.7417E-03   D at   45  2
       a = -3.000      CL =  0.0060
      Cm = -0.0680     CD =  0.01391   =>   CDf =  0.00663    CDp =  0.00729
 plradd ia,ip,cpol            3           0  1.59021222E-03

 Point added to stored polar  1
 Point written to save file  mh70_Re150k.base.pol                            
 Dump file unspecified or not available
 Calculating wake trajectory ...
 Calculating source influence matrix ...

 Solving BL system ...

 Side 1  free  transition at x/c =  0.8671   69
 Side 2  free  transition at x/c =  0.3171   41

   1   rms: 0.2414E+00   max: -.3339E+01   C at   41  2   RLX: 0.150
       a = -2.500      CL =  0.0128
      Cm = -0.0677     CD =  0.01372   =>   CDf =  0.00663    CDp =  0.00709

 Side 1  free  transition at x/c =  0.8651   69
 Side 2  free  transition at x/c =  0.3416   42

   2   rms: 0.1214E+00   max: -.8711E+00   T at   42  2   RLX: 0.574
       a = -2.500      CL =  0.0403
      Cm = -0.0670     CD =  0.01377   =>   CDf =  0.00663    CDp =  0.00714

 MRCHDU: Convergence failed at  46  side 2    Res =  0.9638E+01
 MRCHDU: Convergence failed at  47  side 2    Res =  0.2086E+01
 MRCHDU: Convergence failed at  48  side 2    Res =  0.1072E+01
 MRCHDU: Convergence failed at  49  side 2    Res =  0.1359E+01
 MRCHDU: Convergence failed at  50  side 2    Res =  0.1611E+01
 MRCHDU: Convergence failed at  51  side 2    Res =  0.1825E+01
 MRCHDU: Convergence failed at  52  side 2    Res =  0.2029E+01
 MRCHDU: Convergence failed at  53  side 2    Res =  0.2180E+01
 MRCHDU: Convergence failed at  54  side 2    Res =  0.2331E+01
 MRCHDU: Convergence failed at  55  side 2    Res =  0.5934E+01
 MRCHDU: Convergence failed at  56  side 2    Res =  0.5147E+01
 MRCHDU: Convergence failed at  57  side 2    Res =  0.5196E+01
 MRCHDU: Convergence failed at  58  side 2    Res =  0.5163E+01
 MRCHDU: Convergence failed at  59  side 2    Res =  0.5743E+01
 MRCHDU: Convergence failed at  60  side 2    Res =  0.5531E+01
 MRCHDU: Convergence failed at  61  side 2    Res =  0.5085E+01
 MRCHDU: Convergence failed at  62  side 2    Res =  0.4910E+01
 MRCHDU: Convergence failed at  63  side 2    Res =  0.4730E+01
 MRCHDU: Convergence failed at  64  side 2    Res =  0.4561E+01
 MRCHDU: Convergence failed at  65  side 2    Res =  0.4414E+01
 MRCHDU: Convergence failed at  66  side 2    Res =  0.4279E+01
 MRCHDU: Convergence failed at  67  side 2    Res =  0.4150E+01
 MRCHDU: Convergence failed at  68  side 2    Res =  0.4039E+01
 MRCHDU: Convergence failed at  69  side 2    Res =  0.3940E+01
 MRCHDU: Convergence failed at  70  side 2    Res =  0.3855E+01
 MRCHDU: Convergence failed at  71  side 2    Res =  0.3774E+01
 MRCHDU: Convergence failed at  72  side 2    Res =  0.3696E+01
 MRCHDU: Convergence failed at  73  side 2    Res =  0.3626E+01
 MRCHDU: Convergence failed at  74  side 2    Res =  0.3566E+01
 MRCHDU: Convergence failed at  75  side 2    Res =  0.3504E+01
 MRCHDU: Convergence failed at  76  side 2    Res =  0.3450E+01
 MRCHDU: Convergence failed at  77  side 2    Res =  0.3396E+01
 MRCHDU: Convergence failed at  78  side 2    Res =  0.3336E+01
 MRCHDU: Convergence failed at  79  side 2    Res =  0.3286E+01
 MRCHDU: Convergence failed at  80  side 2    Res =  0.3231E+01
 MRCHDU: Convergence failed at  81  side 2    Res =  0.3149E+01
 MRCHDU: Convergence failed at  82  side 2    Res =  0.3476E+01
 MRCHDU: Convergence failed at  83  side 2    Res =  0.3860E+01
 MRCHDU: Convergence failed at  84  side 2    Res =  0.4814E+01
 Side 1  free  transition at x/c =  0.8597   68
 Side 2  free  transition at x/c =  0.5416   55

   3   rms: 0.1858E+00   max: -.8591E+00   C at   55  2   RLX: 0.582
       a = -2.500      CL = -0.0013
      Cm = -0.0393     CD =  0.01091   =>   CDf =  0.00470    CDp =  0.00621

 Side 1  free  transition at x/c =  0.8528   68
 Side 2  free  transition at x/c =  0.6940   64

   4   rms: 0.1838E+00   max: 0.2638E+01   C at   64  2   RLX: 0.569
       a = -2.500      CL =  0.0250
      Cm = -0.0537     CD =  0.01214   =>   CDf =  0.00565    CDp =  0.00650

 Side 1  free  transition at x/c =  0.8506   68
 Side 2  free  transition at x/c =  0.5720   57

   5   rms: 0.1225E+00   max: 0.1842E+01   C at   57  2   RLX: 0.814
       a = -2.500      CL =  0.0468
      Cm = -0.0635     CD =  0.01291   =>   CDf =  0.00577    CDp =  0.00714

 Side 1  free  transition at x/c =  0.8499   68
 Side 2  free  transition at x/c =  0.5301   54

   6   rms: 0.1822E-01   max: 0.1822E+00   C at   54  2
       a = -2.500      CL =  0.0505
      Cm = -0.0652     CD =  0.01307   =>   CDf =  0.00596    CDp =  0.00711

 Side 1  free  transition at x/c =  0.8499   68
 Side 2  free  transition at x/c =  0.5088   53

   7   rms: 0.3252E-02   max: -.4210E-01   C at   53  2
       a = -2.500      CL =  0.0507
      Cm = -0.0652     CD =  0.01309   =>   CDf =  0.00603    CDp =  0.00706

 Side 1  free  transition at x/c =  0.8499   68
 Side 2  free  transition at x/c =  0.5098   53

   8   rms: 0.1489E-03   max: 0.2175E-02   C at   53  2
       a = -2.500      CL =  0.0507
      Cm = -0.0652     CD =  0.01309   =>   CDf =  0.00601    CDp =  0.00707

 Side 1  free  transition at x/c =  0.8499   68
 Side 2  free  transition at x/c =  0.5097   53

   9   rms: 0.7585E-06   max: -.5191E-05   D at   69  1
       a = -2.500      CL =  0.0507
      Cm = -0.0652     CD =  0.01309   =>   CDf =  0.00602    CDp =  0.00707
 plradd ia,ip,cpol            4           0  1.59021222E-03

 Point added to stored polar  1
 Point written to save file  mh70_Re150k.base.pol                            
 Dump file unspecified or not available
 Calculating wake trajectory ...
 Calculating source influence matrix ...

 Solving BL system ...

 Side 1  free  transition at x/c =  0.8499   68
 Side 2  free  transition at x/c =  0.5097   53

   1   rms: 0.2049E+00   max: -.2738E+01   C at   53  2   RLX: 0.183
       a = -2.000      CL =  0.0584
      Cm = -0.0644     CD =  0.01290   =>   CDf =  0.00602    CDp =  0.00688

 Side 1  free  transition at x/c =  0.8479   67
 Side 2  free  transition at x/c =  0.5374   54

   2   rms: 0.1041E+00   max: -.6142E+00   T at   54  2   RLX: 0.814
       a = -2.000      CL =  0.0882
      Cm = -0.0638     CD =  0.01319   =>   CDf =  0.00606    CDp =  0.00713

 MRCHDU: Convergence failed at  66  side 2    Res =  0.3519E+01
 MRCHDU: Convergence failed at  67  side 2    Res =  0.3543E+01
 MRCHDU: Convergence failed at  68  side 2    Res =  0.3769E+01
 MRCHDU: Convergence failed at  69  side 2    Res =  0.4692E+01
 MRCHDU: Convergence failed at  70  side 2    Res =  0.4407E+01
 MRCHDU: Convergence failed at  71  side 2    Res =  0.4395E+01
 MRCHDU: Convergence failed at  72  side 2    Res =  0.4405E+01
 MRCHDU: Convergence failed at  73  side 2    Res =  0.4354E+01
 MRCHDU: Convergence failed at  74  side 2    Res =  0.4298E+01
 MRCHDU: Convergence failed at  75  side 2    Res =  0.4240E+01
 MRCHDU: Convergence failed at  76  side 2    Res =  0.4185E+01
 MRCHDU: Convergence failed at  77  side 2    Res =  0.4133E+01
 MRCHDU: Convergence failed at  78  side 2    Res =  0.4091E+01
 MRCHDU: Convergence failed at  79  side 2    Res =  0.4054E+01
 MRCHDU: Convergence failed at  80  side 2    Res =  0.4036E+01
 MRCHDU: Convergence failed at  81  side 2    Res =  0.4020E+01
 MRCHDU: Convergence failed at  82  side 2    Res =  0.4012E+01
 MRCHDU: Convergence failed at  83  side 2    Res =  0.3788E+01
 Side 1  free  transition at x/c =  0.8267   67
 Side 2  free  transition at x/c =  0.7358   66

   3   rms: 0.1225E+00   max: 0.9726E+00   D at   53  2
       a = -2.000      CL =  0.1097
      Cm = -0.0642     CD =  0.01216   =>   CDf =  0.00481    CDp =  0.00735

 Side 1  free  transition at x/c =  0.8340   68
 Side 2  free  transition at x/c =  0.7688   68

   4   rms: 0.3623E-01   max: -.2085E+00   D at   67  2
       a = -2.000      CL =  0.0897
      Cm = -0.0600     CD =  0.01226   =>   CDf =  0.00524    CDp =  0.00702

 Side 1  free  transition at x/c =  0.8330   67
 Side 2  free  transition at x/c =  0.7540   67

   5   rms: 0.2836E-01   max: 0.3928E+00   C at   67  2
       a = -2.000      CL =  0.0907
      Cm = -0.0605     CD =  0.01236   =>   CDf =  0.00516    CDp =  0.00719

 Side 1  free  transition at x/c =  0.8318   67
 Side 2  free  transition at x/c =  0.7285   65

   6   rms: 0.1906E-02   max: -.1705E-01   D at   72  2
       a = -2.000      CL =  0.0909
      Cm = -0.0604     CD =  0.01234   =>   CDf =  0.00527    CDp =  0.00707

 Side 1  free  transition at x/c =  0.8320   67
 Side 2  free  transition at x/c =  0.7275   65

   7   rms: 0.2300E-04   max: -.2879E-03   C at   65  2
       a = -2.000      CL =  0.0909
      Cm = -0.0604     CD =  0.01234   =>   CDf =  0.00527    CDp =  0.00707
 plradd ia,ip,cpol            5           0  1.59021222E-03

 Point added to stored polar  1
 Point written to save file  mh70_Re150k.base.pol                            
 Dump file unspecified or not available
 Calculating wake trajectory ...
 Calculating source influence matrix ...

 Solving BL system ...

 Side 1  free  transition at x/c =  0.8320   67
 Side 2  free  transition at x/c =  0.7275   65

   1   rms: 0.1636E+00   max: -.2037E+01   C at   65  2   RLX: 0.245
       a = -1.500      CL =  0.0998
      Cm = -0.0592     CD =  0.01227   =>   CDf =  0.00528    CDp =  0.00699

 Side 1  free  transition at x/c =  0.8251   67
 Side 2  free  transition at x/c =  0.7712   68

   2   rms: 0.1230E+00   max: -.1468E+01   C at   68  2   RLX: 0.341
       a = -1.500      CL =  0.1112
      Cm = -0.0578     CD =  0.01222   =>   CDf =  0.00517    CDp =  0.00705

 Side 1  free  transition at x/c =  0.8211   67
 Side 2  free  transition at x/c =  0.8121   70

   3   rms: 0.5558E-01   max: -.3124E+00   T at   70  2
       a = -1.500      CL =  0.1321
      Cm = -0.0552     CD =  0.01206   =>   CDf =  0.00514    CDp =  0.00692

 MRCHDU: Convergence failed at  79  side 2    Res =  0.2106E+01
 MRCHDU: Convergence failed at  80  side 2    Res =  0.1591E+01
 MRCHDU: Convergence failed at  81  side 2    Res =  0.1615E+01
 MRCHDU: Convergence failed at  82  side 2    Res =  0.1715E+01
 MRCHDU: Convergence failed at  83  side 2    Res =  0.2156E+01
 Side 1  free  transition at x/c =  0.8154   66
 Side 2  free  transition at x/c =  0.9484   79

   4   rms: 0.5772E-01   max: 0.4125E+00   C at   83  2
       a = -1.500      CL =  0.1562
      Cm = -0.0591     CD =  0.01185   =>   CDf =  0.00517    CDp =  0.00669

 Side 1  free  transition at x/c =  0.8155   67
 Side 2  free  transition at x/c =  0.9162   76

   5   rms: 0.1190E-01   max: -.1443E+00   D at   77  2
       a = -1.500      CL =  0.1518
      Cm = -0.0584     CD =  0.01209   =>   CDf =  0.00511    CDp =  0.00699

 Side 1  free  transition at x/c =  0.8151   67
 Side 2  free  transition at x/c =  0.9155   76

   6   rms: 0.8765E-03   max: 0.8533E-02   D at    4  1
       a = -1.500      CL =  0.1515
      Cm = -0.0583     CD =  0.01210   =>   CDf =  0.00510    CDp =  0.00699

 Side 1  free  transition at x/c =  0.8151   67
 Side 2  free  transition at x/c =  0.9152   76

   7   rms: 0.2088E-05   max: 0.1023E-04   D at   79  2
       a = -1.500      CL =  0.1515
      Cm = -0.0583     CD =  0.01210   =>   CDf =  0.00510    CDp =  0.00699
 plradd ia,ip,cpol            6           0  1.59021222E-03

 Point added to stored polar  1
 Point written to save file  mh70_Re150k.base.pol                            
 Dump file unspecified or not available
 Calculating wake trajectory ...
 Calculating source influence matrix ...

 Solving BL system ...

 Side 1  free  transition at x/c =  0.8151   67
 Side 2  free  transition at x/c =  0.9152   76

   1   rms: 0.1601E+00   max: 0.7710E+00   D at   81  2   RLX: 0.995
       a = -1.000      CL =  0.2613
      Cm = -0.0671     CD =  0.01199   =>   CDf =  0.00519    CDp =  0.00680

 Side 1  free  transition at x/c =  0.7926   67
 Side 2  free  transition at x/c =  0.9783   79

   2   rms: 0.4238E-01   max: -.2482E+00   D at   70  1
       a = -1.000      CL =  0.2656
      Cm = -0.0684     CD =  0.01192   =>   CDf =  0.00551    CDp =  0.00642

 Side 1  free  transition at x/c =  0.7991   67
 Side 2 forced transition at x/c =  1.0000   81

   3   rms: 0.2185E-01   max: 0.1916E+00   C at   81  2
       a = -1.000      CL =  0.2826
      Cm = -0.0719     CD =  0.01179   =>   CDf =  0.00553    CDp =  0.00626

 Side 1  free  transition at x/c =  0.7986   67
 Side 2  free  transition at x/c =  0.9885   80

   4   rms: 0.1597E-01   max: -.1470E+00   D at   81  2
       a = -1.000      CL =  0.2729
      Cm = -0.0700     CD =  0.01185   =>   CDf =  0.00555    CDp =  0.00630

 Side 1  free  transition at x/c =  0.7982   67
 Side 2  free  transition at x/c =  0.9952   81

   5   rms: 0.1239E-02   max: 0.1760E-01   D at   80  2
       a = -1.000      CL =  0.2730
      Cm = -0.0700     CD =  0.01187   =>   CDf =  0.00553    CDp =  0.00633

 Side 1  free  transition at x/c =  0.7982   67
 Side 2  free  transition at x/c =  0.9950   81

   6   rms: 0.9843E-05   max: -.1322E-03   D at   81  2
       a = -1.000      CL =  0.2730
      Cm = -0.0700     CD =  0.01187   =>   CDf =  0.00553    CDp =  0.00633
 plradd ia,ip,cpol            7           0  0.18728854    

 Point added to stored polar  1
 Point written to save file  mh70_Re150k.base.pol                            
 Dump file unspecified or not available
 Calculating wake trajectory ...
 Calculating source influence matrix ...

 Solving BL system ...

 Side 1  free  transition at x/c =  0.7982   67
 Side 2  free  transition at x/c =  0.9950   81

   1   rms: 0.1536E+00   max: -.5677E+00   T at   81  2   RLX: 0.881
       a = -0.500      CL =  0.3977
      Cm = -0.0857     CD =  0.01138   =>   CDf =  0.00562    CDp =  0.00576

 Side 1  free  transition at x/c =  0.7768   67
 Side 2 forced transition at x/c =  1.0000   80
 idif Ue xi dudx           1  0.17076115      2.09915638E-03   81.347511    
 Uenew xinew           2  1.87644288E-02  2.30669975E-04

   2   rms: 0.9752E-01   max: -.6115E+00   D at   80  2   RLX: 0.818
       a = -0.500      CL =  0.3348
      Cm = -0.0719     CD =  0.01203   =>   CDf =  0.00586    CDp =  0.00617

 Side 1  free  transition at x/c =  0.7773   66
 Side 2 forced transition at x/c =  1.0000   81

   3   rms: 0.2117E-01   max: -.1768E+00   D at   81  2
       a = -0.500      CL =  0.3215
      Cm = -0.0689     CD =  0.01183   =>   CDf =  0.00587    CDp =  0.00596

 Side 1  free  transition at x/c =  0.7771   66
 Side 2 forced transition at x/c =  1.0000   81

   4   rms: 0.5894E-03   max: -.8313E-02   D at   85  2
       a = -0.500      CL =  0.3216
      Cm = -0.0689     CD =  0.01186   =>   CDf =  0.00583    CDp =  0.00603

 Side 1  free  transition at x/c =  0.7771   66
 Side 2 forced transition at x/c =  1.0000   81

   5   rms: 0.2900E-05   max: -.5409E-04   D at   85  2
       a = -0.500      CL =  0.3216
      Cm = -0.0689     CD =  0.01186   =>   CDf =  0.00583    CDp =  0.00603
 plradd ia,ip,cpol            8           0  0.15906215    

 Point added to stored polar  1
 Point written to save file  mh70_Re150k.base.pol                            
 Dump file unspecified or not available
 Calculating wake trajectory ...
 Calculating source influence matrix ...

 Solving BL system ...

 Side 1  free  transition at x/c =  0.7771   66
 Side 2 forced transition at x/c =  1.0000   81

   1   rms: 0.8297E-01   max: -.1743E+00   n at   80  2
       a =  0.000      CL =  0.3632
      Cm = -0.0661     CD =  0.01193   =>   CDf =  0.00590    CDp =  0.00602

 Side 1  free  transition at x/c =  0.7571   66
 Side 2 forced transition at x/c =  1.0000   80

   2   rms: 0.1803E-01   max: -.2186E+00   D at   66  1
       a =  0.000      CL =  0.3647
      Cm = -0.0662     CD =  0.01192   =>   CDf =  0.00612    CDp =  0.00580

 Side 1  free  transition at x/c =  0.7568   66
 Side 2 forced transition at x/c =  1.0000   80

   3   rms: 0.6794E-03   max: 0.3980E-02   D at    4  1
       a =  0.000      CL =  0.3648
      Cm = -0.0662     CD =  0.01193   =>   CDf =  0.00611    CDp =  0.00581

 Side 1  free  transition at x/c =  0.7569   66
 Side 2 forced transition at x/c =  1.0000   80

   4   rms: 0.1826E-05   max: -.1056E-04   D at   82  2
       a =  0.000      CL =  0.3648
      Cm = -0.0662     CD =  0.01193   =>   CDf =  0.00611    CDp =  0.00582
 plradd ia,ip,cpol            9           0  0.14530338    

 Point added to stored polar  1
 Point written to save file  mh70_Re150k.base.pol                            
 Dump file unspecified or not available
 Calculating wake trajectory ...
 Calculating source influence matrix ...

 Solving BL system ...

 Side 1  free  transition at x/c =  0.7569   66
 Side 2 forced transition at x/c =  1.0000   80

   1   rms: 0.8354E-01   max: -.1518E+00   C at   80  2
       a =  0.500      CL =  0.4104
      Cm = -0.0634     CD =  0.01192   =>   CDf =  0.00617    CDp =  0.00575

 Side 1  free  transition at x/c =  0.7408   66
 Side 2 forced transition at x/c =  1.0000   79

   2   rms: 0.1544E-01   max: -.1817E+00   D at   66  1
       a =  0.500      CL =  0.4101
      Cm = -0.0637     CD =  0.01205   =>   CDf =  0.00632    CDp =  0.00572

 Side 1  free  transition at x/c =  0.7360   65
 Side 2 forced transition at x/c =  1.0000   79

   3   rms: 0.3726E-02   max: -.4134E-01   D at   65  1
       a =  0.500      CL =  0.4104
      Cm = -0.0638     CD =  0.01202   =>   CDf =  0.00637    CDp =  0.00565

 Side 1  free  transition at x/c =  0.7363   65
 Side 2 forced transition at x/c =  1.0000   79

   4   rms: 0.1919E-03   max: 0.1769E-02   D at   67  1
       a =  0.500      CL =  0.4103
      Cm = -0.0638     CD =  0.01203   =>   CDf =  0.00636    CDp =  0.00567

 Side 1  free  transition at x/c =  0.7363   65
 Side 2 forced transition at x/c =  1.0000   79

   5   rms: 0.2055E-05   max: -.2178E-04   D at    4  1
       a =  0.500      CL =  0.4103
      Cm = -0.0638     CD =  0.01202   =>   CDf =  0.00636    CDp =  0.00567
 plradd ia,ip,cpol           10           0  0.13183595    

 Point added to stored polar  1
 Point written to save file  mh70_Re150k.base.pol                            
 Dump file unspecified or not available
 Calculating wake trajectory ...
 Calculating source influence matrix ...

 Solving BL system ...

 Side 1  free  transition at x/c =  0.7363   65
 Side 2 forced transition at x/c =  1.0000   79

   1   rms: 0.8586E-01   max: 0.5568E+00   T at   65  1
       a =  1.000      CL =  0.4534
      Cm = -0.0621     CD =  0.01242   =>   CDf =  0.00637    CDp =  0.00605

 Side 1  free  transition at x/c =  0.7048   63
 Side 2 forced transition at x/c =  1.0000   79

   2   rms: 0.5206E-01   max: -.3968E+00   D at   64  1
       a =  1.000      CL =  0.4577
      Cm = -0.0611     CD =  0.01218   =>   CDf =  0.00658    CDp =  0.00560

 Side 1  free  transition at x/c =  0.7224   65
 Side 2 forced transition at x/c =  1.0000   79

   3   rms: 0.2278E-01   max: 0.2899E+00   D at   65  1
       a =  1.000      CL =  0.4590
      Cm = -0.0616     CD =  0.01211   =>   CDf =  0.00662    CDp =  0.00549

 Side 1  free  transition at x/c =  0.7183   64
 Side 2 forced transition at x/c =  1.0000   79

   4   rms: 0.1602E-01   max: 0.1559E+00   D at   65  1
       a =  1.000      CL =  0.4562
      Cm = -0.0616     CD =  0.01222   =>   CDf =  0.00656    CDp =  0.00566

 Side 1  free  transition at x/c =  0.7117   64
 Side 2 forced transition at x/c =  1.0000   79

   5   rms: 0.4950E-02   max: -.4686E-01   D at   66  1
       a =  1.000      CL =  0.4570
      Cm = -0.0616     CD =  0.01214   =>   CDf =  0.00656    CDp =  0.00559

 Side 1  free  transition at x/c =  0.7132   64
 Side 2 forced transition at x/c =  1.0000   79

   6   rms: 0.2013E-03   max: -.1601E-02   D at   64  1
       a =  1.000      CL =  0.4570
      Cm = -0.0616     CD =  0.01215   =>   CDf =  0.00654    CDp =  0.00561

 Side 1  free  transition at x/c =  0.7133   64
 Side 2 forced transition at x/c =  1.0000   79

   7   rms: 0.1539E-05   max: 0.8873E-05   D at    4  2
       a =  1.000      CL =  0.4570
      Cm = -0.0616     CD =  0.01215   =>   CDf =  0.00654    CDp =  0.00561
 plradd ia,ip,cpol           11           0  0.11870952    

 Point added to stored polar  1
 Point written to save file  mh70_Re150k.base.pol                            
 Dump file unspecified or not available
 Calculating wake trajectory ...
 Calculating source influence matrix ...

 Solving BL system ...

 Side 1  free  transition at x/c =  0.7133   64
 Side 2 forced transition at x/c =  1.0000   79

   1   rms: 0.8135E-01   max: -.1535E+00   C at   79  2
       a =  1.500      CL =  0.5050
      Cm = -0.0595     CD =  0.01220   =>   CDf =  0.00656    CDp =  0.00565

 Side 1  free  transition at x/c =  0.6916   64
 Side 2 forced transition at x/c =  1.0000   78

   2   rms: 0.2057E-01   max: -.2460E+00   D at   64  1
       a =  1.500      CL =  0.5059
      Cm = -0.0596     CD =  0.01221   =>   CDf =  0.00673    CDp =  0.00548

 Side 1  free  transition at x/c =  0.6917   64
 Side 2 forced transition at x/c =  1.0000   78

   3   rms: 0.7657E-03   max: -.7575E-02   D at   68  1
       a =  1.500      CL =  0.5058
      Cm = -0.0596     CD =  0.01222   =>   CDf =  0.00676    CDp =  0.00546

 Side 1  free  transition at x/c =  0.6916   64
 Side 2 forced transition at x/c =  1.0000   78

   4   rms: 0.3629E-05   max: -.4768E-04   D at   68  1
       a =  1.500      CL =  0.5058
      Cm = -0.0596     CD =  0.01222   =>   CDf =  0.00676    CDp =  0.00546
 plradd ia,ip,cpol           12           0  0.10598743    

 Point added to stored polar  1
 Point written to save file  mh70_Re150k.base.pol                            
 Dump file unspecified or not available
 Calculating wake trajectory ...
 Calculating source influence matrix ...

 Solving BL system ...

 Side 1  free  transition at x/c =  0.6916   64
 Side 2 forced transition at x/c =  1.0000   78

   1   rms: 0.8734E-01   max: -.1148E+00   C at   78  2
       a =  2.000      CL =  0.5576
      Cm = -0.0577     CD =  0.01223   =>   CDf =  0.00676    CDp =  0.00547

 Side 1  free  transition at x/c =  0.6747   63
 Side 2 forced transition at x/c =  1.0000   77

   2   rms: 0.1895E-01   max: -.1713E+00   D at   64  1
       a =  2.000      CL =  0.5540
      Cm = -0.0579     CD =  0.01239   =>   CDf =  0.00682    CDp =  0.00557

 Side 1  free  transition at x/c =  0.6640   63
 Side 2 forced transition at x/c =  1.0000   77

   3   rms: 0.8745E-02   max: -.9402E-01   D at   64  1
       a =  2.000      CL =  0.5547
      Cm = -0.0579     CD =  0.01235   =>   CDf =  0.00690    CDp =  0.00545

 Side 1  free  transition at x/c =  0.6662   63
 Side 2 forced transition at x/c =  1.0000   77

   4   rms: 0.2537E-03   max: -.2975E-02   D at   63  1
       a =  2.000      CL =  0.5548
      Cm = -0.0579     CD =  0.01236   =>   CDf =  0.00688    CDp =  0.00547

 Side 1  free  transition at x/c =  0.6663   63
 Side 2 forced transition at x/c =  1.0000   77

   5   rms: 0.5491E-05   max: -.6706E-04   D at    4  1
       a =  2.000      CL =  0.5548
      Cm = -0.0579     CD =  0.01236   =>   CDf =  0.00688    CDp =  0.00548
 plradd ia,ip,cpol           13           0  9.37431678E-02

 Point added to stored polar  1
 Point written to save file  mh70_Re150k.base.pol                            
 Dump file unspecified or not available
 Calculating wake trajectory ...
 Calculating source influence matrix ...

 Solving BL system ...

 Side 1  free  transition at x/c =  0.6663   63
 Side 2 forced transition at x/c =  1.0000   77

   1   rms: 0.8287E-01   max: -.1325E+00   C at   77  2
       a =  2.500      CL =  0.6050
      Cm = -0.0562     CD =  0.01242   =>   CDf =  0.00689    CDp =  0.00553

 Side 1  free  transition at x/c =  0.6421   61
 Side 2 forced transition at x/c =  1.0000   77

   2   rms: 0.2240E-01   max: -.2650E+00   D at   62  1
       a =  2.500      CL =  0.6054
      Cm = -0.0562     CD =  0.01245   =>   CDf =  0.00703    CDp =  0.00542

 Side 1  free  transition at x/c =  0.6418   61
 Side 2 forced transition at x/c =  1.0000   77

   3   rms: 0.8904E-03   max: -.9712E-02   D at   66  1
       a =  2.500      CL =  0.6052
      Cm = -0.0562     CD =  0.01247   =>   CDf =  0.00706    CDp =  0.00541

 Side 1  free  transition at x/c =  0.6415   61
 Side 2 forced transition at x/c =  1.0000   77

   4   rms: 0.6548E-05   max: -.6475E-04   D at   66  1
       a =  2.500      CL =  0.6052
      Cm = -0.0562     CD =  0.01247   =>   CDf =  0.00706    CDp =  0.00541
 plradd ia,ip,cpol           14           0  9.37431678E-02

 Point added to stored polar  1
 Point written to save file  mh70_Re150k.base.pol                            
 Dump file unspecified or not available
 Calculating wake trajectory ...
 Calculating source influence matrix ...

 Solving BL system ...

 Side 1  free  transition at x/c =  0.6415   61
 Side 2 forced transition at x/c =  1.0000   77

   1   rms: 0.8454E-01   max: -.1686E+00   C at   77  2
       a =  3.000      CL =  0.6520
      Cm = -0.0548     CD =  0.01280   =>   CDf =  0.00699    CDp =  0.00581

 Side 1  free  transition at x/c =  0.6059   60
 Side 2 forced transition at x/c =  1.0000   76

   2   rms: 0.3853E-01   max: -.3861E+00   D at   61  1
       a =  3.000      CL =  0.6561
      Cm = -0.0547     CD =  0.01265   =>   CDf =  0.00725    CDp =  0.00539

 Side 1  free  transition at x/c =  0.6158   61
 Side 2 forced transition at x/c =  1.0000   76

   3   rms: 0.5344E-02   max: 0.6664E-01   D at   62  1
       a =  3.000      CL =  0.6559
      Cm = -0.0548     CD =  0.01262   =>   CDf =  0.00717    CDp =  0.00545

 Side 1  free  transition at x/c =  0.6142   61
 Side 2 forced transition at x/c =  1.0000   76

   4   rms: 0.3258E-03   max: 0.2601E-02   D at   62  1
       a =  3.000      CL =  0.6559
      Cm = -0.0548     CD =  0.01262   =>   CDf =  0.00718    CDp =  0.00544

 Side 1  free  transition at x/c =  0.6141   61
 Side 2 forced transition at x/c =  1.0000   76

   5   rms: 0.3025E-05   max: -.2195E-04   D at   65  1
       a =  3.000      CL =  0.6559
      Cm = -0.0548     CD =  0.01262   =>   CDf =  0.00719    CDp =  0.00543
 plradd ia,ip,cpol           15           0  8.20715651E-02

 Point added to stored polar  1
 Point written to save file  mh70_Re150k.base.pol                            
 Dump file unspecified or not available
 Calculating wake trajectory ...
 Calculating source influence matrix ...

 Solving BL system ...

 Side 1  free  transition at x/c =  0.6141   61
 Side 2 forced transition at x/c =  1.0000   76

   1   rms: 0.9010E-01   max: -.9584E-01   C at   76  2
       a =  3.500      CL =  0.7090
      Cm = -0.0534     CD =  0.01271   =>   CDf =  0.00719    CDp =  0.00552

 MRCHDU: Convergence failed at  61  side 1    Res =  0.4061E+01
 MRCHDU: Convergence failed at  62  side 1    Res =  0.2355E+01
 MRCHDU: Convergence failed at  63  side 1    Res =  0.2739E+03
 MRCHDU: Convergence failed at  64  side 1    Res =  0.6907E+01
 MRCHDU: Convergence failed at  65  side 1    Res =  0.5348E+01
 MRCHDU: Convergence failed at  66  side 1    Res =  0.5251E+01
 MRCHDU: Convergence failed at  67  side 1    Res =  0.5616E+01
 MRCHDU: Convergence failed at  68  side 1    Res =  0.6226E+01
 MRCHDU: Convergence failed at  69  side 1    Res =  0.6957E+01
 MRCHDU: Convergence failed at  70  side 1    Res =  0.7884E+01
 MRCHDU: Convergence failed at  71  side 1    Res =  0.9182E+01
 MRCHDU: Convergence failed at  72  side 1    Res =  0.1115E+02
 MRCHDU: Convergence failed at  73  side 1    Res =  0.1371E+02
 MRCHDU: Convergence failed at  74  side 1    Res =  0.1758E+02
 MRCHDU: Convergence failed at  75  side 1    Res =  0.2720E+02
 MRCHDU: Convergence failed at  76  side 1    Res =  0.4551E+02
 MRCHDU: Convergence failed at  77  side 1    Res =  0.1243E+03
 MRCHDU: Convergence failed at  78  side 1    Res =  0.1346E+03
 MRCHDU: Convergence failed at  79  side 1    Res =  0.4532E+02
 MRCHDU: Convergence failed at  80  side 1    Res =  0.2604E+02
 MRCHDU: Convergence failed at  81  side 1    Res =  0.1938E+02
 MRCHDU: Convergence failed at  82  side 1    Res =  0.1536E+02
 MRCHDU: Convergence failed at  83  side 1    Res =  0.1229E+02
 MRCHDU: Convergence failed at  84  side 1    Res =  0.1008E+02
 MRCHDU: Convergence failed at  85  side 1    Res =  0.8109E+01
 MRCHDU: Convergence failed at  86  side 1    Res =  0.8984E+01
 Side 1  free  transition at x/c =  0.5921   59
 Side 2 forced transition at x/c =  1.0000   76

   2   rms: 0.3829E+00   max: 0.1762E+01   D at   78  2   RLX: 0.436
       a =  3.500      CL =  0.7402
      Cm = -0.0985     CD =  0.00845   =>   CDf =  0.00592    CDp =  0.00254

 Side 1  free  transition at x/c =  0.5785   58
 Side 2 forced transition at x/c =  1.0000   76

   3   rms: 0.1476E+00   max: 0.5531E+00   C at   76  2   RLX: 0.902
       a =  3.500      CL =  0.7267
      Cm = -0.0604     CD =  0.01132   =>   CDf =  0.00843    CDp =  0.00289

 MRCHDU: Convergence failed at  61  side 1    Res =  0.4162E+02
 MRCHDU: Convergence failed at  62  side 1    Res =  0.1494E+01
 Side 1  free  transition at x/c =  0.5898   59
 Side 2 forced transition at x/c =  1.0000   76

   4   rms: 0.4268E-01   max: 0.3096E+00   T at   62  1
       a =  3.500      CL =  0.7050
      Cm = -0.0530     CD =  0.01249   =>   CDf =  0.00701    CDp =  0.00547

 Side 1  free  transition at x/c =  0.5858   59
 Side 2 forced transition at x/c =  1.0000   76

   5   rms: 0.5897E-02   max: -.6424E-01   D at   65  1
       a =  3.500      CL =  0.7063
      Cm = -0.0533     CD =  0.01282   =>   CDf =  0.00725    CDp =  0.00557

 Side 1  free  transition at x/c =  0.5841   59
 Side 2 forced transition at x/c =  1.0000   76

   6   rms: 0.3327E-03   max: -.3276E-02   D at   59  1
       a =  3.500      CL =  0.7064
      Cm = -0.0533     CD =  0.01283   =>   CDf =  0.00730    CDp =  0.00553

 Side 1  free  transition at x/c =  0.5841   59
 Side 2 forced transition at x/c =  1.0000   76

   7   rms: 0.2764E-05   max: -.1279E-04   D at   85  1
       a =  3.500      CL =  0.7064
      Cm = -0.0533     CD =  0.01283   =>   CDf =  0.00730    CDp =  0.00553
 plradd ia,ip,cpol           16           0  7.10738972E-02

 Point added to stored polar  1
 Point written to save file  mh70_Re150k.base.pol                            
 Dump file unspecified or not available
 Calculating wake trajectory ...
 Calculating source influence matrix ...

 Solving BL system ...

 Side 1  free  transition at x/c =  0.5841   59
 Side 2 forced transition at x/c =  1.0000   76

   1   rms: 0.8947E-01   max: -.9885E-01   C at   76  2
       a =  4.000      CL =  0.7587
      Cm = -0.0520     CD =  0.01299   =>   CDf =  0.00718    CDp =  0.00581

 Side 1  free  transition at x/c =  0.5590   58
 Side 2 forced transition at x/c =  1.0000   75

   2   rms: 0.2655E-01   max: -.2640E+00   D at   59  1
       a =  4.000      CL =  0.7566
      Cm = -0.0520     CD =  0.01301   =>   CDf =  0.00729    CDp =  0.00573

 Side 1  free  transition at x/c =  0.5514   58
 Side 2 forced transition at x/c =  1.0000   75

   3   rms: 0.5986E-02   max: -.5694E-01   D at   58  1
       a =  4.000      CL =  0.7568
      Cm = -0.0520     CD =  0.01310   =>   CDf =  0.00745    CDp =  0.00564

 Side 1  free  transition at x/c =  0.5524   58
 Side 2 forced transition at x/c =  1.0000   75

   4   rms: 0.2615E-03   max: -.2709E-02   D at   61  1
       a =  4.000      CL =  0.7568
      Cm = -0.0520     CD =  0.01310   =>   CDf =  0.00741    CDp =  0.00569

 Side 1  free  transition at x/c =  0.5524   58
 Side 2 forced transition at x/c =  1.0000   75

   5   rms: 0.1524E-05   max: -.1461E-04   D at   61  1
       a =  4.000      CL =  0.7568
      Cm = -0.0520     CD =  0.01310   =>   CDf =  0.00742    CDp =  0.00569
 plradd ia,ip,cpol           17           0  6.08636476E-02

 Point added to stored polar  1
 Point written to save file  mh70_Re150k.base.pol                            
 Dump file unspecified or not available
 Calculating wake trajectory ...
 Calculating source influence matrix ...

 Solving BL system ...

 Side 1  free  transition at x/c =  0.5524   58
 Side 2 forced transition at x/c =  1.0000   75

   1   rms: 0.9173E-01   max: -.9244E-01   C at   75  2
       a =  4.500      CL =  0.8091
      Cm = -0.0506     CD =  0.01341   =>   CDf =  0.00742    CDp =  0.00599

 MRCHDU: Convergence failed at  58  side 1    Res =  0.1301E+01
 MRCHDU: Convergence failed at  59  side 1    Res =  0.3083E+04
 MRCHDU: Convergence failed at  60  side 1    Res =  0.3010E+01
 MRCHDU: Convergence failed at  61  side 1    Res =  0.2172E+01
 MRCHDU: Convergence failed at  62  side 1    Res =  0.2505E+01
 MRCHDU: Convergence failed at  63  side 1    Res =  0.2762E+01
 MRCHDU: Convergence failed at  64  side 1    Res =  0.3182E+01
 MRCHDU: Convergence failed at  65  side 1    Res =  0.3710E+01
 MRCHDU: Convergence failed at  66  side 1    Res =  0.4322E+01
 MRCHDU: Convergence failed at  67  side 1    Res =  0.5064E+01
 MRCHDU: Convergence failed at  68  side 1    Res =  0.5955E+01
 MRCHDU: Convergence failed at  69  side 1    Res =  0.7066E+01
 MRCHDU: Convergence failed at  70  side 1    Res =  0.8568E+01
 MRCHDU: Convergence failed at  71  side 1    Res =  0.1082E+02
 MRCHDU: Convergence failed at  72  side 1    Res =  0.1443E+02
 MRCHDU: Convergence failed at  73  side 1    Res =  0.2124E+02
 MRCHDU: Convergence failed at  74  side 1    Res =  0.3532E+02
 MRCHDU: Convergence failed at  75  side 1    Res =  0.9311E+02
 MRCHDU: Convergence failed at  76  side 1    Res =  0.1155E+03
 MRCHDU: Convergence failed at  77  side 1    Res =  0.3644E+02
 MRCHDU: Convergence failed at  78  side 1    Res =  0.2055E+02
 MRCHDU: Convergence failed at  79  side 1    Res =  0.1524E+02
 MRCHDU: Convergence failed at  80  side 1    Res =  0.1227E+02
 MRCHDU: Convergence failed at  81  side 1    Res =  0.1003E+02
 MRCHDU: Convergence failed at  82  side 1    Res =  0.8781E+01
 MRCHDU: Convergence failed at  83  side 1    Res =  0.7801E+01
 MRCHDU: Convergence failed at  84  side 1    Res =  0.9162E+01
 MRCHDU: Convergence failed at  85  side 1    Res =  0.1034E+02
 MRCHDU: Convergence failed at  86  side 1    Res =  0.1185E+02
 MRCHDU: Convergence failed at  87  side 1    Res =  0.1358E+02
 Side 1  free  transition at x/c =  0.5258   56
 Side 2 forced transition at x/c =  1.0000   75

   2   rms: 0.3924E+00   max: 0.1681E+01   D at   77  2   RLX: 0.542
       a =  4.500      CL =  0.8380
      Cm = -0.0947     CD =  0.00904   =>   CDf =  0.00577    CDp =  0.00327

 Side 1  free  transition at x/c =  0.5176   55
 Side 2 forced transition at x/c =  1.0000   75

   3   rms: 0.1472E+00   max: 0.5245E+00   C at   75  2
       a =  4.500      CL =  0.8306
      Cm = -0.0551     CD =  0.01210   =>   CDf =  0.00866    CDp =  0.00344

 Side 1  free  transition at x/c =  0.5170   55
 Side 2 forced transition at x/c =  1.0000   75

   4   rms: 0.2069E-01   max: -.1127E+00   D at   87  1
       a =  4.500      CL =  0.8084
      Cm = -0.0510     CD =  0.01348   =>   CDf =  0.00747    CDp =  0.00600

 Side 1  free  transition at x/c =  0.5179   55
 Side 2 forced transition at x/c =  1.0000   75

   5   rms: 0.1595E-02   max: -.1329E-01   C at   75  2
       a =  4.500      CL =  0.8068
      Cm = -0.0506     CD =  0.01348   =>   CDf =  0.00754    CDp =  0.00594

 Side 1  free  transition at x/c =  0.5182   55
 Side 2 forced transition at x/c =  1.0000   75

   6   rms: 0.8218E-05   max: -.5202E-04   C at   75  2
       a =  4.500      CL =  0.8067
      Cm = -0.0506     CD =  0.01348   =>   CDf =  0.00754    CDp =  0.00594
 plradd ia,ip,cpol           18           0  6.08636476E-02

 Point added to stored polar  1
 Point written to save file  mh70_Re150k.base.pol                            
 Dump file unspecified or not available
 Calculating wake trajectory ...
 Calculating source influence matrix ...

 Solving BL system ...

 Side 1  free  transition at x/c =  0.5182   55
 Side 2 forced transition at x/c =  1.0000   75

   1   rms: 0.8533E-01   max: 0.4924E+00   T at   55  1
       a =  5.000      CL =  0.8543
      Cm = -0.0494     CD =  0.01393   =>   CDf =  0.00736    CDp =  0.00657

 Side 1  free  transition at x/c =  0.4754   54
 Side 2 forced transition at x/c =  1.0000   74

   2   rms: 0.4727E-01   max: -.4717E+00   D at   55  1
       a =  5.000      CL =  0.8560
      Cm = -0.0492     CD =  0.01390   =>   CDf =  0.00778    CDp =  0.00611

 Side 1  free  transition at x/c =  0.4845   54
 Side 2 forced transition at x/c =  1.0000   74

   3   rms: 0.6686E-02   max: 0.7197E-01   D at   55  1
       a =  5.000      CL =  0.8558
      Cm = -0.0493     CD =  0.01395   =>   CDf =  0.00757    CDp =  0.00638

 Side 1  free  transition at x/c =  0.4812   54
 Side 2 forced transition at x/c =  1.0000   74

   4   rms: 0.5690E-03   max: -.5306E-02   D at   54  1
       a =  5.000      CL =  0.8558
      Cm = -0.0493     CD =  0.01396   =>   CDf =  0.00762    CDp =  0.00634

 Side 1  free  transition at x/c =  0.4813   54
 Side 2 forced transition at x/c =  1.0000   74

   5   rms: 0.3614E-05   max: 0.2121E-04   T at   54  1
       a =  5.000      CL =  0.8558
      Cm = -0.0493     CD =  0.01396   =>   CDf =  0.00762    CDp =  0.00634
 plradd ia,ip,cpol           19           0  5.15413955E-02

 Point added to stored polar  1
 Point written to save file  mh70_Re150k.base.pol                            
 Dump file unspecified or not available
 Calculating wake trajectory ...
 Calculating source influence matrix ...

 Solving BL system ...

 Side 1  free  transition at x/c =  0.4813   54
 Side 2 forced transition at x/c =  1.0000   74

   1   rms: 0.8603E-01   max: 0.4698E+00   T at   54  1
       a =  5.500      CL =  0.9045
      Cm = -0.0479     CD =  0.01447   =>   CDf =  0.00740    CDp =  0.00707

 Side 1  free  transition at x/c =  0.4456   53
 Side 2 forced transition at x/c =  1.0000   73

   2   rms: 0.4037E-01   max: -.4285E+00   D at   54  1
       a =  5.500      CL =  0.9044
      Cm = -0.0478     CD =  0.01442   =>   CDf =  0.00776    CDp =  0.00666

 Side 1  free  transition at x/c =  0.4468   53
 Side 2 forced transition at x/c =  1.0000   73

   3   rms: 0.6379E-02   max: 0.5821E-01   C at   53  1
       a =  5.500      CL =  0.9042
      Cm = -0.0478     CD =  0.01456   =>   CDf =  0.00768    CDp =  0.00688

 Side 1  free  transition at x/c =  0.4448   53
 Side 2 forced transition at x/c =  1.0000   73

   4   rms: 0.2979E-03   max: -.3672E-02   D at   53  1
       a =  5.500      CL =  0.9042
      Cm = -0.0479     CD =  0.01457   =>   CDf =  0.00776    CDp =  0.00681

 Side 1  free  transition at x/c =  0.4448   53
 Side 2 forced transition at x/c =  1.0000   73

   5   rms: 0.5292E-05   max: -.2186E-04   D at   89  1
       a =  5.500      CL =  0.9042
      Cm = -0.0479     CD =  0.01457   =>   CDf =  0.00776    CDp =  0.00681
 plradd ia,ip,cpol           20           0  4.31896411E-02

 Point added to stored polar  1
 Point written to save file  mh70_Re150k.base.pol                            
 Dump file unspecified or not available
 Calculating wake trajectory ...
 Calculating source influence matrix ...

 Solving BL system ...

 Side 1  free  transition at x/c =  0.4448   53
 Side 2 forced transition at x/c =  1.0000   73

   1   rms: 0.9441E-01   max: 0.4748E+00   T at   53  1
       a =  6.000      CL =  0.9531
      Cm = -0.0465     CD =  0.01538   =>   CDf =  0.00776    CDp =  0.00762

 Side 1  free  transition at x/c =  0.4143   51
 Side 2 forced transition at x/c =  1.0000   73

   2   rms: 0.4113E-01   max: -.3648E+00   D at   54  1
       a =  6.000      CL =  0.9517
      Cm = -0.0463     CD =  0.01500   =>   CDf =  0.00776    CDp =  0.00724

 Side 1  free  transition at x/c =  0.4103   50
 Side 2 forced transition at x/c =  1.0000   73

   3   rms: 0.4951E-02   max: -.4818E-01   D at   54  1
       a =  6.000      CL =  0.9514
      Cm = -0.0464     CD =  0.01529   =>   CDf =  0.00784    CDp =  0.00745

 Side 1  free  transition at x/c =  0.4069   50
 Side 2 forced transition at x/c =  1.0000   73

   4   rms: 0.9293E-03   max: -.9443E-02   D at   51  1
       a =  6.000      CL =  0.9514
      Cm = -0.0464     CD =  0.01529   =>   CDf =  0.00785    CDp =  0.00744

 Side 1  free  transition at x/c =  0.4072   50
 Side 2 forced transition at x/c =  1.0000   73

   5   rms: 0.7619E-05   max: -.5901E-04   D at   53  1
       a =  6.000      CL =  0.9515
      Cm = -0.0464     CD =  0.01529   =>   CDf =  0.00784    CDp =  0.00745
 plradd ia,ip,cpol           21           0  3.58590260E-02

 Point added to stored polar  1
 Point written to save file  mh70_Re150k.base.pol                            
 Dump file unspecified or not available
 Calculating wake trajectory ...
 Calculating source influence matrix ...

 Solving BL system ...

 Side 1  free  transition at x/c =  0.4072   50
 Side 2 forced transition at x/c =  1.0000   73

   1   rms: 0.8555E-01   max: 0.5014E+00   T at   50  1
       a =  6.500      CL =  0.9981
      Cm = -0.0450     CD =  0.01600   =>   CDf =  0.00757    CDp =  0.00843

 Side 1  free  transition at x/c =  0.3698   49
 Side 2 forced transition at x/c =  1.0000   72

   2   rms: 0.4670E-01   max: -.4778E+00   D at   50  1
       a =  6.500      CL =  0.9976
      Cm = -0.0449     CD =  0.01600   =>   CDf =  0.00804    CDp =  0.00796

 Side 1  free  transition at x/c =  0.3736   49
 Side 2 forced transition at x/c =  1.0000   72

   3   rms: 0.7749E-02   max: 0.7083E-01   C at   49  1
       a =  6.500      CL =  0.9976
      Cm = -0.0449     CD =  0.01612   =>   CDf =  0.00785    CDp =  0.00827

 Side 1  free  transition at x/c =  0.3708   49
 Side 2 forced transition at x/c =  1.0000   72

   4   rms: 0.4825E-03   max: -.5746E-02   D at   49  1
       a =  6.500      CL =  0.9976
      Cm = -0.0449     CD =  0.01613   =>   CDf =  0.00793    CDp =  0.00820

 Side 1  free  transition at x/c =  0.3708   49
 Side 2 forced transition at x/c =  1.0000   72

   5   rms: 0.1002E-04   max: -.3585E-04   D at   87  1
       a =  6.500      CL =  0.9976
[...]
       a = 13.500      CL =  1.2200
      Cm = -0.1427     CD =  0.14531   =>   CDf =  0.00471    CDp =  0.14060

 Side 1  free  transition at x/c =  0.1080   34
 Side 2 forced transition at x/c =  1.0000   69

   9   rms: 0.6187E+00   max: -.4462E+01   T at   34  1   RLX: 0.112
       a = 13.500      CL =  1.2005
      Cm = -0.1512     CD =  0.15044   =>   CDf =  0.00447    CDp =  0.14597

 Side 1  free  transition at x/c =  0.1108   34
 Side 2 forced transition at x/c =  1.0000   69

  10   rms: 0.3737E+00   max: -.4918E+01   T at   34  1   RLX: 0.102
       a = 13.500      CL =  1.1752
      Cm = -0.1494     CD =  0.15440   =>   CDf =  0.00455    CDp =  0.14985

 Side 1  free  transition at x/c =  0.1112   34
 Side 2 forced transition at x/c =  1.0000   69
 idif Ue xi dudx           1  0.11187956      4.59074974E-03   24.370651    
 Uenew xinew           2  1.95520502E-02  8.02278519E-04

  11   rms: 0.2755E+00   max: -.2320E+01   T at   34  1   RLX: 0.216
       a = 13.500      CL =  1.1070
      Cm = -0.1349     CD =  0.15265   =>   CDf =  0.00495    CDp =  0.14770

 Side 1  free  transition at x/c =  0.1115   33
 Side 2 forced transition at x/c =  1.0000   70

  12   rms: 0.2145E+00   max: -.8253E+00   D at   33  1   RLX: 0.606
       a = 13.500      CL =  0.9300
      Cm = -0.0874     CD =  0.13767   =>   CDf =  0.00470    CDp =  0.13297

 Side 1  free  transition at x/c =  0.1152   33
 Side 2 forced transition at x/c =  1.0000   70

  13   rms: 0.1929E+00   max: -.8776E+00   D at   33  1   RLX: 0.570
       a = 13.500      CL =  0.8935
      Cm = -0.0581     CD =  0.13621   =>   CDf =  0.00486    CDp =  0.13135

 Side 1  free  transition at x/c =  0.1247   34
 Side 2 forced transition at x/c =  1.0000   70

  14   rms: 0.5447E+00   max: -.7617E+00   D at   90  2   RLX: 0.384
       a = 13.500      CL =  0.9306
      Cm = -0.0146     CD =  0.09039   =>   CDf =  0.00525    CDp =  0.08513

 Side 1  free  transition at x/c =  0.1258   35
 Side 2 forced transition at x/c =  1.0000   69

  15   rms: 0.5044E+00   max: -.1499E+01   D at   39  1   RLX: 0.334
       a = 13.500      CL =  1.0412
      Cm = -0.0025     CD =  0.07180   =>   CDf =  0.00556    CDp =  0.06624

 Side 1  free  transition at x/c =  0.1222   36
 Side 2 forced transition at x/c =  1.0000   68

  16   rms: 0.6065E+00   max: -.1888E+01   D at   57  1   RLX: 0.265
       a = 13.500      CL =  1.1511
      Cm =  0.0033     CD =  0.05687   =>   CDf =  0.00565    CDp =  0.05122

 MRCHDU: Convergence failed at  55  side 1    Res =  0.2005E+00
 Side 1  free  transition at x/c =  0.1157   36
 Side 2 forced transition at x/c =  1.0000   67

  17   rms: 0.4404E+00   max: 0.2087E+01   T at   36  1   RLX: 0.366
       a = 13.500      CL =  1.2846
      Cm =  0.0057     CD =  0.04826   =>   CDf =  0.00606    CDp =  0.04219

 Side 1  free  transition at x/c =  0.1014   36
 Side 2 forced transition at x/c =  1.0000   66

  18   rms: 0.1865E+00   max: -.6543E+00   D at   83  2   RLX: 0.764
       a = 13.500      CL =  1.3861
      Cm = -0.0056     CD =  0.04247   =>   CDf =  0.00680    CDp =  0.03567

 Side 1  free  transition at x/c =  0.0919   35
 Side 2 forced transition at x/c =  1.0000   66

  19   rms: 0.6301E-01   max: -.3491E+00   D at   83  2
       a = 13.500      CL =  1.3941
      Cm = -0.0095     CD =  0.04268   =>   CDf =  0.00701    CDp =  0.03567

 Side 1  free  transition at x/c =  0.0917   35
 Side 2 forced transition at x/c =  1.0000   66

  20   rms: 0.7964E-02   max: -.5351E-01   D at   83  2
       a = 13.500      CL =  1.3982
      Cm = -0.0098     CD =  0.04339   =>   CDf =  0.00687    CDp =  0.03652

 Side 1  free  transition at x/c =  0.0907   35
 Side 2 forced transition at x/c =  1.0000   66

  21   rms: 0.5338E-03   max: -.2987E-02   T at   35  1
       a = 13.500      CL =  1.3978
      Cm = -0.0098     CD =  0.04343   =>   CDf =  0.00684    CDp =  0.03659

 Side 1  free  transition at x/c =  0.0908   35
 Side 2 forced transition at x/c =  1.0000   66

  22   rms: 0.3998E-04   max: -.1726E-03   D at   80  1
       a = 13.500      CL =  1.3978
      Cm = -0.0098     CD =  0.04342   =>   CDf =  0.00684    CDp =  0.03658
 plradd ia,ip,cpol           43           0  8.56176266E-05

 Point added to stored polar  1
 Point written to save file  mh70_Re150k.base.pol                            
 Dump file unspecified or not available
 Calculating wake trajectory ...
 Calculating source influence matrix ...

 Solving BL system ...

 Side 1  free  transition at x/c =  0.0908   35
 Side 2 forced transition at x/c =  1.0000   66

   1   rms: 0.3653E-01   max: 0.2075E+00   T at   35  1   RLX: 0.928
       a = 13.750      CL =  1.3969
      Cm = -0.0090     CD =  0.04577   =>   CDf =  0.00684    CDp =  0.03893

 Side 1  free  transition at x/c =  0.0865   35
 Side 2 forced transition at x/c =  1.0000   66

   2   rms: 0.7224E-02   max: -.5427E-01   D at   36  1
       a = 13.750      CL =  1.3968
      Cm = -0.0090     CD =  0.04560   =>   CDf =  0.00671    CDp =  0.03888

 Side 1  free  transition at x/c =  0.0865   35
 Side 2 forced transition at x/c =  1.0000   66

   3   rms: 0.1250E-02   max: 0.5823E-02   T at   35  1
       a = 13.750      CL =  1.3977
      Cm = -0.0090     CD =  0.04557   =>   CDf =  0.00670    CDp =  0.03887

 Side 1  free  transition at x/c =  0.0864   35
 Side 2 forced transition at x/c =  1.0000   66

   4   rms: 0.3238E-04   max: -.2000E-03   D at   78  2
       a = 13.750      CL =  1.3977
      Cm = -0.0090     CD =  0.04558   =>   CDf =  0.00670    CDp =  0.03888
 plradd ia,ip,cpol           44           0  8.56176266E-05

 Point added to stored polar  1
 Point written to save file  mh70_Re150k.base.pol                            
 Dump file unspecified or not available
 Calculating wake trajectory ...
 Calculating source influence matrix ...

 Solving BL system ...

 Side 1  free  transition at x/c =  0.0864   35
 Side 2 forced transition at x/c =  1.0000   66

   1   rms: 0.3439E-01   max: 0.2247E+00   T at   35  1   RLX: 0.888
       a = 14.000      CL =  1.4009
      Cm = -0.0085     CD =  0.04753   =>   CDf =  0.00670    CDp =  0.04083

 Side 1  free  transition at x/c =  0.0827   35
 Side 2 forced transition at x/c =  1.0000   66

   2   rms: 0.1599E-01   max: -.1205E+00   D at   35  1
       a = 14.000      CL =  1.4071
      Cm = -0.0083     CD =  0.04733   =>   CDf =  0.00677    CDp =  0.04055

 Side 1  free  transition at x/c =  0.0819   34
 Side 2 forced transition at x/c =  1.0000   66

   3   rms: 0.3995E-02   max: 0.4656E-01   D at   35  1
       a = 14.000      CL =  1.4065
      Cm = -0.0083     CD =  0.04757   =>   CDf =  0.00683    CDp =  0.04074

 Side 1  free  transition at x/c =  0.0817   34
 Side 2 forced transition at x/c =  1.0000   66

   4   rms: 0.5332E-03   max: 0.2420E-02   D at   77  1
       a = 14.000      CL =  1.4063
      Cm = -0.0083     CD =  0.04755   =>   CDf =  0.00680    CDp =  0.04075

 Side 1  free  transition at x/c =  0.0817   34
 Side 2 forced transition at x/c =  1.0000   66

   5   rms: 0.1640E-04   max: -.1022E-03   T at   34  1
       a = 14.000      CL =  1.4062
      Cm = -0.0083     CD =  0.04755   =>   CDf =  0.00681    CDp =  0.04074
 plradd ia,ip,cpol           45           0  8.56176266E-05

 Point added to stored polar  1
 Point written to save file  mh70_Re150k.base.pol                            
 Dump file unspecified or not available
 Calculating wake trajectory ...
 Calculating source influence matrix ...

 Solving BL system ...

 Side 1  free  transition at x/c =  0.0817   34
 Side 2 forced transition at x/c =  1.0000   66

   1   rms: 0.4062E-01   max: 0.1936E+00   T at   34  1   RLX: 0.841
       a = 14.250      CL =  1.3994
      Cm = -0.0078     CD =  0.05027   =>   CDf =  0.00681    CDp =  0.04346

 Side 1  free  transition at x/c =  0.0793   34
 Side 2 forced transition at x/c =  1.0000   66

   2   rms: 0.4798E-02   max: -.3134E-01   D at   35  1
       a = 14.250      CL =  1.3991
      Cm = -0.0078     CD =  0.05047   =>   CDf =  0.00653    CDp =  0.04394

 Side 1  free  transition at x/c =  0.0787   34
 Side 2 forced transition at x/c =  1.0000   66

   3   rms: 0.1942E-03   max: -.1217E-02   D at   35  1
       a = 14.250      CL =  1.3991
      Cm = -0.0078     CD =  0.05043   =>   CDf =  0.00649    CDp =  0.04394

 Side 1  free  transition at x/c =  0.0787   34
 Side 2 forced transition at x/c =  1.0000   66

   4   rms: 0.2286E-04   max: 0.1233E-03   C at   66  2
       a = 14.250      CL =  1.3991
      Cm = -0.0078     CD =  0.05043   =>   CDf =  0.00649    CDp =  0.04394
 plradd ia,ip,cpol           46           0  8.56176266E-05

 Point added to stored polar  1
 Point written to save file  mh70_Re150k.base.pol                            
 Dump file unspecified or not available
 Calculating wake trajectory ...
 Calculating source influence matrix ...

 Solving BL system ...

 Side 1  free  transition at x/c =  0.0787   34
 Side 2 forced transition at x/c =  1.0000   66

   1   rms: 0.3567E-01   max: 0.1834E+00   T at   34  1   RLX: 0.801
       a = 14.500      CL =  1.3975
      Cm = -0.0076     CD =  0.05295   =>   CDf =  0.00588    CDp =  0.04706

 Side 1  free  transition at x/c =  0.0757   35
 Side 2 forced transition at x/c =  1.0000   65

   2   rms: 0.6678E-02   max: -.4537E-01   D at   36  1
       a = 14.500      CL =  1.3968
      Cm = -0.0075     CD =  0.05313   =>   CDf =  0.00635    CDp =  0.04677

 Side 1  free  transition at x/c =  0.0753   35
 Side 2 forced transition at x/c =  1.0000   65

   3   rms: 0.1090E-02   max: -.1073E-01   D at    4  1
       a = 14.500      CL =  1.3972
      Cm = -0.0075     CD =  0.05305   =>   CDf =  0.00633    CDp =  0.04671

 Side 1  free  transition at x/c =  0.0752   35
 Side 2 forced transition at x/c =  1.0000   65

   4   rms: 0.5732E-04   max: -.2864E-03   D at   78  2
       a = 14.500      CL =  1.3973
      Cm = -0.0075     CD =  0.05306   =>   CDf =  0.00634    CDp =  0.04672
 plradd ia,ip,cpol           47           0  8.56176266E-05

 Point added to stored polar  1
 Point written to save file  mh70_Re150k.base.pol                            
 Dump file unspecified or not available
 Calculating wake trajectory ...
 Calculating source influence matrix ...

 Solving BL system ...

 Side 1  free  transition at x/c =  0.0752   35
 Side 2 forced transition at x/c =  1.0000   65

   1   rms: 0.3368E-01   max: 0.2176E+00   T at   35  1   RLX: 0.768
       a = 14.750      CL =  1.3986
      Cm = -0.0074     CD =  0.05520   =>   CDf =  0.00634    CDp =  0.04886

 Side 1  free  transition at x/c =  0.0725   35
 Side 2 forced transition at x/c =  1.0000   65

   2   rms: 0.1246E-01   max: -.9175E-01   D at   35  1
       a = 14.750      CL =  1.4031
      Cm = -0.0071     CD =  0.05505   =>   CDf =  0.00637    CDp =  0.04868

 Side 1  free  transition at x/c =  0.0715   35
 Side 2 forced transition at x/c =  1.0000   65

   3   rms: 0.1968E-01   max: 0.1193E+00   T at   35  1
       a = 14.750      CL =  1.4135
      Cm = -0.0066     CD =  0.05462   =>   CDf =  0.00643    CDp =  0.04818

 Side 1  free  transition at x/c =  0.0703   34
 Side 2 forced transition at x/c =  1.0000   65

   4   rms: 0.1413E-01   max: -.6801E-01   D at   34  1
       a = 14.750      CL =  1.4062
      Cm = -0.0070     CD =  0.05540   =>   CDf =  0.00645    CDp =  0.04895

 Side 1  free  transition at x/c =  0.0709   34
 Side 2 forced transition at x/c =  1.0000   65

   5   rms: 0.5003E-03   max: 0.8133E-02   D at   75  1
       a = 14.750      CL =  1.4061
      Cm = -0.0070     CD =  0.05518   =>   CDf =  0.00648    CDp =  0.04870

 Side 1  free  transition at x/c =  0.0709   34
 Side 2 forced transition at x/c =  1.0000   65

   6   rms: 0.1319E-04   max: 0.6324E-04   T at   34  1
       a = 14.750      CL =  1.4061
      Cm = -0.0070     CD =  0.05518   =>   CDf =  0.00647    CDp =  0.04870
 plradd ia,ip,cpol           48           0  8.56176266E-05

 Point added to stored polar  1
 Point written to save file  mh70_Re150k.base.pol                            
 Dump file unspecified or not available
 Calculating wake trajectory ...
 Calculating source influence matrix ...

 Solving BL system ...

 Side 1  free  transition at x/c =  0.0709   34
 Side 2 forced transition at x/c =  1.0000   65

   1   rms: 0.4000E-01   max: 0.1738E+00   T at   34  1   RLX: 0.734
       a = 15.000      CL =  1.3992
      Cm = -0.0072     CD =  0.05817   =>   CDf =  0.00648    CDp =  0.05169

 Side 1  free  transition at x/c =  0.0694   34
 Side 2 forced transition at x/c =  1.0000   65

   2   rms: 0.1003E-01   max: 0.4574E-01   D at   74  1
       a = 15.000      CL =  1.3959
      Cm = -0.0073     CD =  0.05898   =>   CDf =  0.00622    CDp =  0.05276

 Side 1  free  transition at x/c =  0.0688   34
 Side 2 forced transition at x/c =  1.0000   65

   3   rms: 0.6298E-03   max: 0.5115E-02   D at   79  2
       a = 15.000      CL =  1.3955
      Cm = -0.0072     CD =  0.05882   =>   CDf =  0.00615    CDp =  0.05268

 Side 1  free  transition at x/c =  0.0689   34
 Side 2 forced transition at x/c =  1.0000   65

   4   rms: 0.4358E-04   max: 0.2146E-03   T at   34  1
       a = 15.000      CL =  1.3955
      Cm = -0.0072     CD =  0.05882   =>   CDf =  0.00615    CDp =  0.05267
 plradd ia,ip,cpol           49           0  8.56176266E-05

 Point added to stored polar  1
 Point written to save file  mh70_Re150k.base.pol                            
 Dump file unspecified or not available
 Calculating wake trajectory ...
 Calculating source influence matrix ...

 Solving BL system ...

 Side 1  free  transition at x/c =  0.0689   34
 Side 2 forced transition at x/c =  1.0000   65

   1   rms: 0.3835E-01   max: 0.1691E+00   T at   34  1   RLX: 0.696
       a = 15.250      CL =  1.3903
      Cm = -0.0077     CD =  0.06184   =>   CDf =  0.00615    CDp =  0.05569

 Side 1  free  transition at x/c =  0.0669   34
 Side 2 forced transition at x/c =  1.0000   65

   2   rms: 0.9968E-02   max: 0.4335E-01   D at   79  2
       a = 15.250      CL =  1.3878
      Cm = -0.0078     CD =  0.06261   =>   CDf =  0.00598    CDp =  0.05664

 Side 1  free  transition at x/c =  0.0662   34
 Side 2 forced transition at x/c =  1.0000   65

   3   rms: 0.5773E-03   max: 0.5143E-02   D at   79  2
       a = 15.250      CL =  1.3875
      Cm = -0.0077     CD =  0.06243   =>   CDf =  0.00593    CDp =  0.05651

 Side 1  free  transition at x/c =  0.0663   34
 Side 2 forced transition at x/c =  1.0000   65

   4   rms: 0.6826E-04   max: 0.2838E-03   T at   34  1
       a = 15.250      CL =  1.3875
      Cm = -0.0077     CD =  0.06243   =>   CDf =  0.00593    CDp =  0.05650
 plradd ia,ip,cpol           50           0  8.56176266E-05

 Point added to stored polar  1
 Point written to save file  mh70_Re150k.base.pol                            
 Dump file unspecified or not available
 Calculating wake trajectory ...
 Calculating source influence matrix ...

 Solving BL system ...

 Side 1  free  transition at x/c =  0.0662   34
 Side 2 forced transition at x/c =  1.0000   65

   1   rms: 0.3365E-01   max: 0.1735E+00   T at   34  1   RLX: 0.666
       a = 15.500      CL =  1.3854
      Cm = -0.0082     CD =  0.06503   =>   CDf =  0.00593    CDp =  0.05910

 Side 1  free  transition at x/c =  0.0643   34
 Side 2 forced transition at x/c =  1.0000   65

   2   rms: 0.9796E-02   max: 0.5315E-01   T at   34  1
       a = 15.500      CL =  1.3849
      Cm = -0.0083     CD =  0.06564   =>   CDf =  0.00586    CDp =  0.05978

 Side 1  free  transition at x/c =  0.0635   34
 Side 2 forced transition at x/c =  1.0000   65

   3   rms: 0.1549E-02   max: -.8438E-02   D at   34  1
       a = 15.500      CL =  1.3853
      Cm = -0.0082     CD =  0.06542   =>   CDf =  0.00586    CDp =  0.05956

 Side 1  free  transition at x/c =  0.0635   34
 Side 2 forced transition at x/c =  1.0000   65

   4   rms: 0.3399E-03   max: 0.1524E-02   T at   34  1
       a = 15.500      CL =  1.3855
      Cm = -0.0082     CD =  0.06543   =>   CDf =  0.00587    CDp =  0.05956

 Side 1  free  transition at x/c =  0.0634   34
 Side 2 forced transition at x/c =  1.0000   65

   5   rms: 0.2920E-04   max: -.1419E-03   D at   80  2
       a = 15.500      CL =  1.3855
      Cm = -0.0082     CD =  0.06544   =>   CDf =  0.00587    CDp =  0.05957
 plradd ia,ip,cpol           51           0  8.56176266E-05

 Point added to stored polar  1
 Point written to save file  mh70_Re150k.base.pol                            
 Dump file unspecified or not available
 Calculating wake trajectory ...
 Calculating source influence matrix ...

 Solving BL system ...

 Side 1  free  transition at x/c =  0.0634   34
 Side 2 forced transition at x/c =  1.0000   65

   1   rms: 0.3236E-01   max: 0.2443E+00   T at   34  1   RLX: 0.647
       a = 15.750      CL =  1.3886
      Cm = -0.0084     CD =  0.06724   =>   CDf =  0.00587    CDp =  0.06137

 Side 1  free  transition at x/c =  0.0616   34
 Side 2 forced transition at x/c =  1.0000   65

   2   rms: 0.2741E-01   max: 0.2294E+00   T at   34  1
       a = 15.750      CL =  1.4015
      Cm = -0.0072     CD =  0.06679   =>   CDf =  0.00592    CDp =  0.06088

 Side 1  free  transition at x/c =  0.0598   33
 Side 2 forced transition at x/c =  1.0000   65

   3   rms: 0.2304E-01   max: 0.1177E+00   D at   34  1
       a = 15.750      CL =  1.3897
      Cm = -0.0082     CD =  0.06880   =>   CDf =  0.00587    CDp =  0.06293

 Side 1  free  transition at x/c =  0.0604   33
 Side 2 forced transition at x/c =  1.0000   65

   4   rms: 0.1777E-02   max: 0.1787E-01   D at   70  1
       a = 15.750      CL =  1.3892
      Cm = -0.0081     CD =  0.06833   =>   CDf =  0.00590    CDp =  0.06243

 Side 1  free  transition at x/c =  0.0604   33
 Side 2 forced transition at x/c =  1.0000   65

   5   rms: 0.1086E-03   max: 0.1243E-02   D at   80  2
       a = 15.750      CL =  1.3891
      Cm = -0.0081     CD =  0.06830   =>   CDf =  0.00590    CDp =  0.06240

 Side 1  free  transition at x/c =  0.0604   33
 Side 2 forced transition at x/c =  1.0000   65

   6   rms: 0.2429E-05   max: -.3129E-04   C at   65  2
       a = 15.750      CL =  1.3891
      Cm = -0.0081     CD =  0.06830   =>   CDf =  0.00590    CDp =  0.06240
 plradd ia,ip,cpol           52           0  8.56176266E-05

 Point added to stored polar  1
 Point written to save file  mh70_Re150k.base.pol                            
 Dump file unspecified or not available
 Calculating wake trajectory ...
 Calculating source influence matrix ...

 Solving BL system ...

 Side 1  free  transition at x/c =  0.0604   33
 Side 2 forced transition at x/c =  1.0000   65

   1   rms: 0.4107E-01   max: 0.1528E+00   D at   65  1   RLX: 0.614
       a = 16.000      CL =  1.3815
      Cm = -0.0091     CD =  0.07173   =>   CDf =  0.00590    CDp =  0.06582

 Side 1  free  transition at x/c =  0.0595   33
 Side 2 forced transition at x/c =  1.0000   65

   2   rms: 0.1582E-01   max: 0.6166E-01   D at   68  1
       a = 16.000      CL =  1.3759
      Cm = -0.0097     CD =  0.07347   =>   CDf =  0.00570    CDp =  0.06777

 Side 1  free  transition at x/c =  0.0589   33
 Side 2 forced transition at x/c =  1.0000   65

   3   rms: 0.1630E-02   max: 0.9736E-02   D at   80  2
       a = 16.000      CL =  1.3748
      Cm = -0.0096     CD =  0.07312   =>   CDf =  0.00559    CDp =  0.06753

 Side 1  free  transition at x/c =  0.0590   33
 Side 2 forced transition at x/c =  1.0000   65

   4   rms: 0.9220E-04   max: -.4148E-03   D at   68  1
       a = 16.000      CL =  1.3748
      Cm = -0.0096     CD =  0.07310   =>   CDf =  0.00560    CDp =  0.06750
 plradd ia,ip,cpol           53           0  8.56176266E-05

 Point added to stored polar  1
 Point written to save file  mh70_Re150k.base.pol                            
 Dump file unspecified or not available

.OPERva   c>  
 Polar accumulation disabled

.OPERv   c>  
 XFOIL   c>  
 XFOIL   c>  