  
       XFOIL         Version 6.99
  
 Calculated polar for: MH 70  11.08%                                   
  
 1 1 Reynolds number fixed          Mach number fixed         
  
 xtrf =   1.000 (top)        1.000 (bottom)  
 Mach =   0.000     Re =     0.300 e 6     Ncrit =   9.000
  
   alpha    CL        CD       CDp       CM     Top_Xtr  Bot_Xtr
  ------ -------- --------- --------- -------- -------- --------
  -4.000  -0.1151   0.01389   0.00675  -0.0598   0.8266   0.0237
  -3.500  -0.0643   0.01259   0.00538  -0.0585   0.8110   0.0307
  -3.000  -0.0142   0.01094   0.00415  -0.0573   0.7956   0.1322
  -2.500   0.0365   0.00995   0.00380  -0.0565   0.7799   0.3221
  -2.000   0.0877   0.00929   0.00356  -0.0555   0.7641   0.4780
  -1.500   0.1356   0.00855   0.00345  -0.0534   0.7479   0.6767
  -1.000   0.1814   0.00808   0.00344  -0.0498   0.7313   0.8593
  -0.500   0.2543   0.00802   0.00329  -0.0520   0.7135   0.9602
   0.000   0.3516   0.00799   0.00300  -0.0602   0.6938   0.9972
   0.500   0.4044   0.00804   0.00284  -0.0596   0.6738   1.0000
   1.000   0.4529   0.00813   0.00278  -0.0581   0.6515   1.0000
   1.500   0.5023   0.00827   0.00273  -0.0566   0.6289   1.0000
   2.000   0.5524   0.00842   0.00277  -0.0553   0.6032   1.0000
   2.500   0.6031   0.00863   0.00284  -0.0541   0.5763   1.0000
   3.000   0.6540   0.00889   0.00296  -0.0530   0.5471   1.0000
   3.500   0.7051   0.00920   0.00314  -0.0520   0.5157   1.0000
   4.000   0.7560   0.00958   0.00340  -0.0510   0.4824   1.0000
   4.500   0.8066   0.01003   0.00371  -0.0501   0.4479   1.0000
   5.000   0.8565   0.01056   0.00410  -0.0491   0.4130   1.0000
   5.500   0.9061   0.01113   0.00458  -0.0481   0.3773   1.0000
   6.000   0.9548   0.01178   0.00512  -0.0471   0.3424   1.0000
   6.500   1.0026   0.01251   0.00576  -0.0460   0.3093   1.0000
   7.000   1.0494   0.01331   0.00648  -0.0448   0.2787   1.0000
   7.500   1.0953   0.01416   0.00728  -0.0436   0.2508   1.0000
   8.000   1.1399   0.01508   0.00817  -0.0421   0.2259   1.0000
   8.500   1.1823   0.01610   0.00915  -0.0405   0.2034   1.0000
   9.000   1.2238   0.01712   0.01022  -0.0388   0.1829   1.0000
   9.500   1.2627   0.01823   0.01136  -0.0367   0.1641   1.0000
  10.000   1.2972   0.01951   0.01266  -0.0342   0.1474   1.0000
  10.000   1.2972   0.01951   0.01266  -0.0342   0.1474   1.0000
  10.250   1.3141   0.02012   0.01334  -0.0329   0.1395   1.0000
  10.500   1.3252   0.02092   0.01410  -0.0307   0.1325   1.0000
  10.750   1.3396   0.02150   0.01480  -0.0291   0.1253   1.0000
  11.000   1.3470   0.02250   0.01575  -0.0267   0.1187   1.0000
  11.250   1.3611   0.02317   0.01655  -0.0253   0.1121   1.0000
  11.500   1.3670   0.02438   0.01772  -0.0232   0.1062   1.0000
  11.750   1.3798   0.02521   0.01869  -0.0220   0.1002   1.0000
  12.000   1.3852   0.02658   0.02004  -0.0203   0.0948   1.0000
  12.250   1.3953   0.02772   0.02131  -0.0190   0.0893   1.0000
  12.500   1.4011   0.02919   0.02280  -0.0178   0.0842   1.0000
  12.750   1.4069   0.03077   0.02447  -0.0166   0.0794   1.0000
  13.000   1.4134   0.03235   0.02611  -0.0157   0.0746   1.0000
  13.250   1.4131   0.03457   0.02833  -0.0146   0.0707   1.0000
  13.500   1.4208   0.03619   0.03011  -0.0140   0.0665   1.0000
  13.750   1.4217   0.03849   0.03244  -0.0135   0.0627   1.0000
  14.000   1.4212   0.04101   0.03505  -0.0130   0.0596   1.0000
  14.250   1.4245   0.04326   0.03743  -0.0127   0.0563   1.0000
  14.500   1.4231   0.04606   0.04027  -0.0127   0.0535   1.0000
  14.750   1.4170   0.04945   0.04371  -0.0127   0.0510   1.0000
  15.000   1.4182   0.05220   0.04663  -0.0130   0.0485   1.0000
  15.250   1.4160   0.05544   0.04997  -0.0136   0.0461   1.0000
  15.500   1.4094   0.05933   0.05390  -0.0144   0.0443   1.0000
  15.750   1.4034   0.06323   0.05789  -0.0152   0.0425   1.0000
  16.000   1.4006   0.06699   0.06181  -0.0163   0.0408   1.0000
