
 ===================================================
  XFOIL Version 6.99
  Copyright (C) 2000   Mark Drela, Harold Youngren

  This software comes with ABSOLUTELY NO WARRANTY,
    subject to the GNU General Public License.

  Caveat computor
 ===================================================

 File  xfoil.def  not found

   QUIT    Exit program

  .OPER    Direct operating point(s)
  .MDES    Complex mapping design routine
  .QDES    Surface speed design routine
  .GDES    Geometry design routine

   SAVE f  Write airfoil to labeled coordinate file
   PSAV f  Write airfoil to plain coordinate file
   ISAV f  Write airfoil to ISES coordinate file
   MSAV f  Write airfoil to MSES coordinate file
   REVE    Reverse written-airfoil node ordering

   LOAD f  Read buffer airfoil from coordinate file
   NACA i  Set NACA 4,5-digit airfoil and buffer airfoil
   INTE    Set buffer airfoil by interpolating two airfoils
   NORM    Buffer airfoil normalization toggle
   XYCM rr Change CM reference location, currently  0.25000 0.00000

   BEND    Display structural properties of current airfoil

   PCOP    Set current-airfoil panel nodes directly from buffer airfoil points
   PANE    Set current-airfoil panel nodes ( 160 ) based on curvature
  .PPAR    Show/change paneling

  .PLOP    Plotting options

   WDEF f  Write  current-settings file
   RDEF f  Reread current-settings file
   NAME s  Specify new airfoil name
   NINC    Increment name version number

   Z       Zoom    | (available in all menus)
   U       Unzoom  | 

 XFOIL   c>  
 Labeled airfoil file.  Name:  MH 82  13.31%                                   

 Number of input coordinate points:  68
 Counterclockwise ordering
 Max thickness =     0.133082  at x =   0.229
 Max camber    =     0.040199  at x =   0.246

  LE  x,y  =   0.00000  -0.00001  |   Chord =   1.00000
  TE  x,y  =   1.00000   0.00000  |

 Current airfoil nodes set from buffer airfoil nodes (  68 )

 XFOIL   c>  
 XFOIL   c>  
 Sharp trailing edge

 Paneling parameters used...
   Number of panel nodes       160
   Panel bunching parameter    1.000
   TE/LE panel density ratio   0.150
   Refined-area/LE panel density ratio    0.200
   Top    side refined area x/c limits  1.000 1.000
   Bottom side refined area x/c limits  1.000 1.000

 XFOIL   c>  
.OPERi   c>  
 Xtr/c     =  1.0000    top    side
 Xtr/c     =  1.0000    bottom side
 Ncrit     =    9.00   ( 0.070 % turb. level )
 Vacc      =  0.0100

 Klag  =  5.6000     Uxwt  =    1.00
 A     =  6.7000     B     =  0.7500       KCt = 0.01485
 CtiniK=  1.8000     CtiniX=  3.3000

..VPAR   c>  
..VPAR   c>  
.OPERi   c>  
 M  =    0.0000
 Re =    150000

.OPERv   c>  
.OPERv   c>  
.OPERv   c>  
 Polar  1 newly created for accumulation
 Airfoil archived with polar: MH 82  13.31%                                   

Enter  polar save filename  OR  <return> for no file   s>  
 New polar save file available

Enter  polar dump filename  OR  <return> for no file   s>  
 Polar dump file will NOT be written

 Polar accumulation enabled

.OPERva   c>   Calculating unit vorticity distributions ...
 Calculating wake trajectory ...
 Calculating source influence matrix ...

 Solving BL system ...

 Initializing BL ...
    side            1  ...
 MRCHUE: Inverse mode at  38     Hk =   4.080
 MRCHUE: Inverse mode at  39     Hk =   4.557
 MRCHUE: Inverse mode at  40     Hk =   5.022
 MRCHUE: Inverse mode at  41     Hk =   5.476
 MRCHUE: Inverse mode at  42     Hk =   5.921
 MRCHUE: Inverse mode at  43     Hk =   6.359
 MRCHUE: Inverse mode at  44     Hk =   6.791
 MRCHUE: Inverse mode at  45     Hk =   7.217
 MRCHUE: Inverse mode at  46     Hk =   7.638
 MRCHUE: Inverse mode at  47     Hk =   8.055
 MRCHUE: Inverse mode at  48     Hk =   8.468
 MRCHUE: Inverse mode at  49     Hk =   8.877
 MRCHUE: Inverse mode at  50     Hk =   9.284
 MRCHUE: Inverse mode at  51     Hk =   7.877
 MRCHUE: Inverse mode at  52     Hk =   6.428
 MRCHUE: Inverse mode at  53     Hk =   5.382
 MRCHUE: Inverse mode at  54     Hk =   4.560
 MRCHUE: Inverse mode at  55     Hk =   3.885
 MRCHUE: Inverse mode at  56     Hk =   3.316
    side            2  ...
 MRCHUE: Inverse mode at  16     Hk =   3.800
 MRCHUE: Convergence failed at  17  side 2    Res =  0.8762E+00
 MRCHUE: Inverse mode at  18     Hk =   4.516
 MRCHUE: Inverse mode at  19     Hk =   5.117
 MRCHUE: Inverse mode at  20     Hk =   5.668
 MRCHUE: Convergence failed at  21  side 2    Res =  0.6120E+01
 MRCHUE: Inverse mode at  22     Hk =   6.236
 MRCHUE: Inverse mode at  23     Hk =   6.800
 MRCHUE: Inverse mode at  24     Hk =   7.374
 MRCHUE: Inverse mode at  25     Hk =   7.971
 MRCHUE: Inverse mode at  26     Hk =   8.601
 MRCHUE: Inverse mode at  27     Hk =   9.276
 MRCHUE: Inverse mode at  28     Hk =  10.005
 MRCHUE: Inverse mode at  29     Hk =   7.759
 MRCHUE: Inverse mode at  30     Hk =   4.963
 MRCHUE: Inverse mode at  31     Hk =   3.143
 MRCHUE: Inverse mode at  32     Hk =   2.500

 MRCHDU: Convergence failed at  21  side 2    Res =  0.2595E+01
 MRCHDU: Convergence failed at  22  side 2    Res =  0.2904E+01
 MRCHDU: Convergence failed at  23  side 2    Res =  0.4906E+01
 MRCHDU: Convergence failed at  24  side 2    Res =  0.1558E+02
 MRCHDU: Convergence failed at  25  side 2    Res =  0.1650E+02
 MRCHDU: Convergence failed at  26  side 2    Res =  0.6192E+01
 MRCHDU: Convergence failed at  27  side 2    Res =  0.3757E+01
 MRCHDU: Convergence failed at  28  side 2    Res =  0.3554E+01
 MRCHDU: Convergence failed at  29  side 2    Res =  0.2918E+02
 MRCHDU: Convergence failed at  30  side 2    Res =  0.1662E+05
 MRCHDU: Convergence failed at  31  side 2    Res =  0.1127E+03
 MRCHDU: Convergence failed at  32  side 2    Res =  0.1594E+02
 MRCHDU: Convergence failed at  33  side 2    Res =  0.1517E+02
 MRCHDU: Convergence failed at  34  side 2    Res =  0.1108E+02
 MRCHDU: Convergence failed at  35  side 2    Res =  0.2465E+02
 MRCHDU: Convergence failed at  36  side 2    Res =  0.4123E+02
 MRCHDU: Convergence failed at  37  side 2    Res =  0.6408E+02
 MRCHDU: Convergence failed at  38  side 2    Res =  0.8942E+02
 MRCHDU: Convergence failed at  39  side 2    Res =  0.1401E+03
 MRCHDU: Convergence failed at  40  side 2    Res =  0.4422E+03
 MRCHDU: Convergence failed at  41  side 2    Res =  0.9584E+03
 MRCHDU: Convergence failed at  42  side 2    Res =  0.1792E+04
 MRCHDU: Convergence failed at  43  side 2    Res =  0.1662E+04
 MRCHDU: Convergence failed at  44  side 2    Res =  0.5428E+03
 MRCHDU: Convergence failed at  45  side 2    Res =  0.3658E+04
 MRCHDU: Convergence failed at  46  side 2    Res =  0.8733E+03
 MRCHDU: Convergence failed at  47  side 2    Res =  0.4985E+02
 MRCHDU: Convergence failed at  48  side 2    Res =  0.4345E+02
 MRCHDU: Convergence failed at  49  side 2    Res =  0.4330E+02
 MRCHDU: Convergence failed at  50  side 2    Res =  0.8938E+04
 MRCHDU: Convergence failed at  51  side 2    Res =  0.5869E+03
 MRCHDU: Convergence failed at  52  side 2    Res =  0.3132E+03
 MRCHDU: Convergence failed at  53  side 2    Res =  0.2193E+03
 MRCHDU: Convergence failed at  54  side 2    Res =  0.1698E+03
 MRCHDU: Convergence failed at  55  side 2    Res =  0.1389E+03
 MRCHDU: Convergence failed at  56  side 2    Res =  0.1189E+03
 MRCHDU: Convergence failed at  57  side 2    Res =  0.1044E+03
 MRCHDU: Convergence failed at  58  side 2    Res =  0.9394E+02
 MRCHDU: Convergence failed at  59  side 2    Res =  0.8589E+02
 MRCHDU: Convergence failed at  60  side 2    Res =  0.7884E+02
 MRCHDU: Convergence failed at  61  side 2    Res =  0.7368E+02
 MRCHDU: Convergence failed at  62  side 2    Res =  0.6862E+02
 MRCHDU: Convergence failed at  63  side 2    Res =  0.6484E+02
 MRCHDU: Convergence failed at  64  side 2    Res =  0.6135E+02
 MRCHDU: Convergence failed at  65  side 2    Res =  0.5816E+02
 MRCHDU: Convergence failed at  66  side 2    Res =  0.5574E+02
 MRCHDU: Convergence failed at  67  side 2    Res =  0.5321E+02
 MRCHDU: Convergence failed at  68  side 2    Res =  0.5103E+02
 MRCHDU: Convergence failed at  69  side 2    Res =  0.8817E+02
 MRCHDU: Convergence failed at  70  side 2    Res =  0.9482E+02
 MRCHDU: Convergence failed at  71  side 2    Res =  0.1057E+03
 MRCHDU: Convergence failed at  72  side 2    Res =  0.1186E+03
 MRCHDU: Convergence failed at  73  side 2    Res =  0.1375E+03
 MRCHDU: Convergence failed at  74  side 2    Res =  0.1660E+03
 MRCHDU: Convergence failed at  75  side 2    Res =  0.2192E+03
 MRCHDU: Convergence failed at  76  side 2    Res =  0.3183E+03
 MRCHDU: Convergence failed at  77  side 2    Res =  0.7114E+03
 MRCHDU: Convergence failed at  78  side 2    Res =  0.9955E+02
 MRCHDU: Convergence failed at  79  side 2    Res =  0.7240E+02
 MRCHDU: Convergence failed at  80  side 2    Res =  0.5408E+02
 MRCHDU: Convergence failed at  81  side 2    Res =  0.4368E+02
 MRCHDU: Convergence failed at  82  side 2    Res =  0.3629E+02
 MRCHDU: Convergence failed at  83  side 2    Res =  0.3148E+02
 MRCHDU: Convergence failed at  84  side 2    Res =  0.2756E+02
 MRCHDU: Convergence failed at  85  side 2    Res =  0.2353E+02
 MRCHDU: Convergence failed at  86  side 2    Res =  0.2413E+02
 Side 1  free  transition at x/c =  0.5962   51
 Side 2  free  transition at x/c =  0.0525   29

   1   rms: 0.1297E+01   max: -.1165E+01   U at   86  2   RLX: 0.322
       a = -4.000      CL = -2.0838
      Cm =  0.5089     CD =  0.01000   =>   CDf =  0.00313    CDp =  0.00688

 Side 1  free  transition at x/c =  0.6034   51
 Side 2  free  transition at x/c =  0.0500   29

   2   rms: 0.1017E+01   max: 0.4634E+01   T at   29  2   RLX: 0.268
       a = -4.000      CL = -1.4569
      Cm =  0.3320     CD =  0.01371   =>   CDf =  0.01833    CDp = -0.00462

 MRCHDU: Convergence failed at  29  side 2    Res =  0.4369E+02
 Side 1  free  transition at x/c =  0.6117   52
 Side 2  free  transition at x/c =  0.0390   27

   3   rms: 0.6168E+00   max: -.5827E+00   U at   86  2   RLX: 0.394
       a = -4.000      CL = -0.9021
      Cm =  0.1728     CD =  0.01496   =>   CDf =  0.01526    CDp = -0.00030

 Side 1  free  transition at x/c =  0.6159   52
 Side 2  free  transition at x/c =  0.0364   27

   4   rms: 0.3926E+00   max: -.3482E+00   U at   86  2   RLX: 0.690
       a = -4.000      CL = -0.3828
      Cm =  0.0304     CD =  0.01930   =>   CDf =  0.01280    CDp =  0.00650

 Side 1  free  transition at x/c =  0.6209   52
 Side 2  free  transition at x/c =  0.0369   27

   5   rms: 0.1634E+00   max: 0.5035E+00   D at   30  2
       a = -4.000      CL = -0.1698
      Cm = -0.0265     CD =  0.02338   =>   CDf =  0.00984    CDp =  0.01353

 Side 1  free  transition at x/c =  0.6212   53
 Side 2  free  transition at x/c =  0.0383   26

   6   rms: 0.2287E-01   max: 0.1647E+00   D at   29  2
       a = -4.000      CL = -0.1674
      Cm = -0.0268     CD =  0.02479   =>   CDf =  0.00814    CDp =  0.01665

 Side 1  free  transition at x/c =  0.6200   53
 Side 2  free  transition at x/c =  0.0388   26

   7   rms: 0.7867E-03   max: -.8150E-02   D at   27  2
       a = -4.000      CL = -0.1673
      Cm = -0.0268     CD =  0.02475   =>   CDf =  0.00808    CDp =  0.01667

 Side 1  free  transition at x/c =  0.6201   53
 Side 2  free  transition at x/c =  0.0387   26

   8   rms: 0.5936E-05   max: -.4123E-04   D at   28  2
       a = -4.000      CL = -0.1673
      Cm = -0.0268     CD =  0.02475   =>   CDf =  0.00808    CDp =  0.01667
 plradd ia,ip,cpol            1           0  1.90312846E-03

 Point added to stored polar  1
 Point written to save file  mh82_Re150k.base.pol                            
 Dump file unspecified or not available
 Calculating wake trajectory ...
 Calculating source influence matrix ...

 Solving BL system ...

 Side 1  free  transition at x/c =  0.6201   53
 Side 2  free  transition at x/c =  0.0387   26

   1   rms: 0.1300E+00   max: -.4156E+00   D at   32  2
       a = -3.500      CL = -0.1134
      Cm = -0.0253     CD =  0.02094   =>   CDf =  0.00808    CDp =  0.01286

 Side 1  free  transition at x/c =  0.5970   52
 Side 2  free  transition at x/c =  0.0406   26

   2   rms: 0.7043E-01   max: 0.5326E+00   D at   26  2
       a = -3.500      CL = -0.1124
      Cm = -0.0253     CD =  0.02209   =>   CDf =  0.00880    CDp =  0.01329

 Side 1  free  transition at x/c =  0.5981   52
 Side 2  free  transition at x/c =  0.0407   26

   3   rms: 0.8365E-02   max: 0.5357E-01   D at   28  2
       a = -3.500      CL = -0.1131
      Cm = -0.0253     CD =  0.02204   =>   CDf =  0.00876    CDp =  0.01328

 Side 1  free  transition at x/c =  0.5977   52
 Side 2  free  transition at x/c =  0.0406   26

   4   rms: 0.1373E-03   max: 0.1440E-02   D at   28  2
       a = -3.500      CL = -0.1130
      Cm = -0.0253     CD =  0.02204   =>   CDf =  0.00875    CDp =  0.01329

 Side 1  free  transition at x/c =  0.5977   52
 Side 2  free  transition at x/c =  0.0406   26

   5   rms: 0.1673E-05   max: 0.6045E-05   D at   41  2
       a = -3.500      CL = -0.1130
      Cm = -0.0253     CD =  0.02204   =>   CDf =  0.00875    CDp =  0.01329
 plradd ia,ip,cpol            2           0  1.90312846E-03

 Point added to stored polar  1
 Point written to save file  mh82_Re150k.base.pol                            
 Dump file unspecified or not available
 Calculating wake trajectory ...
 Calculating source influence matrix ...

 Solving BL system ...

 Side 1  free  transition at x/c =  0.5977   52
 Side 2  free  transition at x/c =  0.0406   26

   1   rms: 0.1060E+00   max: -.6753E+00   T at   26  2   RLX: 0.740
       a = -3.000      CL = -0.0722
      Cm = -0.0241     CD =  0.02069   =>   CDf =  0.00882    CDp =  0.01187

 Side 1  free  transition at x/c =  0.5836   52
 Side 2  free  transition at x/c =  0.0444   26

   2   rms: 0.5177E-01   max: 0.5578E+00   D at   26  2
       a = -3.000      CL = -0.0581
      Cm = -0.0242     CD =  0.01993   =>   CDf =  0.00900    CDp =  0.01094

 Side 1  free  transition at x/c =  0.5743   52
 Side 2  free  transition at x/c =  0.0454   26

   3   rms: 0.1122E-01   max: -.9705E-01   D at   52  1
       a = -3.000      CL = -0.0590
      Cm = -0.0240     CD =  0.01992   =>   CDf =  0.00908    CDp =  0.01084

 Side 1  free  transition at x/c =  0.5767   52
 Side 2  free  transition at x/c =  0.0454   26

   4   rms: 0.5948E-03   max: -.6771E-02   D at   55  1
       a = -3.000      CL = -0.0590
      Cm = -0.0240     CD =  0.01994   =>   CDf =  0.00903    CDp =  0.01091

 Side 1  free  transition at x/c =  0.5766   52
 Side 2  free  transition at x/c =  0.0454   26

   5   rms: 0.3818E-05   max: -.3518E-04   D at   55  1
       a = -3.000      CL = -0.0590
      Cm = -0.0240     CD =  0.01994   =>   CDf =  0.00903    CDp =  0.01091
 plradd ia,ip,cpol            3           0  1.90312846E-03

 Point added to stored polar  1
 Point written to save file  mh82_Re150k.base.pol                            
 Dump file unspecified or not available
 Calculating wake trajectory ...
 Calculating source influence matrix ...

 Solving BL system ...

 Side 1  free  transition at x/c =  0.5766   52
 Side 2  free  transition at x/c =  0.0454   26

   1   rms: 0.1105E+00   max: -.4503E+00   T at   26  2
       a = -2.500      CL = -0.0053
      Cm = -0.0223     CD =  0.01809   =>   CDf =  0.00904    CDp =  0.00905

 Side 1  free  transition at x/c =  0.5610   51
 Side 2  free  transition at x/c =  0.0528   27

   2   rms: 0.2623E-01   max: 0.3084E+00   D at   27  2
       a = -2.500      CL = -0.0053
      Cm = -0.0226     CD =  0.01815   =>   CDf =  0.00908    CDp =  0.00908

 Side 1  free  transition at x/c =  0.5559   50
 Side 2  free  transition at x/c =  0.0531   27

   3   rms: 0.5474E-02   max: -.6083E-01   D at   51  1
       a = -2.500      CL = -0.0056
      Cm = -0.0226     CD =  0.01818   =>   CDf =  0.00918    CDp =  0.00900

 Side 1  free  transition at x/c =  0.5569   51
 Side 2  free  transition at x/c =  0.0531   27

   4   rms: 0.4176E-02   max: -.5050E-01   D at   50  1
       a = -2.500      CL = -0.0056
      Cm = -0.0226     CD =  0.01817   =>   CDf =  0.00921    CDp =  0.00896

 Side 1  free  transition at x/c =  0.5569   51
 Side 2  free  transition at x/c =  0.0531   27

   5   rms: 0.2508E-03   max: 0.2142E-02   D at   51  1
       a = -2.500      CL = -0.0056
      Cm = -0.0226     CD =  0.01817   =>   CDf =  0.00917    CDp =  0.00900

 Side 1  free  transition at x/c =  0.5569   51
 Side 2  free  transition at x/c =  0.0531   27

   6   rms: 0.1011E-05   max: 0.7676E-05   D at   76  1
       a = -2.500      CL = -0.0056
      Cm = -0.0226     CD =  0.01817   =>   CDf =  0.00917    CDp =  0.00900
 plradd ia,ip,cpol            4           0  1.90312846E-03

 Point added to stored polar  1
 Point written to save file  mh82_Re150k.base.pol                            
 Dump file unspecified or not available
 Calculating wake trajectory ...
 Calculating source influence matrix ...

 Solving BL system ...

 Side 1  free  transition at x/c =  0.5569   51
 Side 2  free  transition at x/c =  0.0531   27

   1   rms: 0.1154E+00   max: -.1067E+01   T at   27  2   RLX: 0.469
       a = -2.000      CL =  0.0188
      Cm = -0.0218     CD =  0.01773   =>   CDf =  0.00923    CDp =  0.00850

 Side 1  free  transition at x/c =  0.5504   51
 Side 2  free  transition at x/c =  0.0621   27

   2   rms: 0.7701E-01   max: -.8062E+00   T at   27  2   RLX: 0.620
       a = -2.000      CL =  0.0376
      Cm = -0.0221     CD =  0.01708   =>   CDf =  0.00914    CDp =  0.00794

 Side 1  free  transition at x/c =  0.5390   50
 Side 2  free  transition at x/c =  0.0697   28

   3   rms: 0.9813E-01   max: -.8299E+00   T at   28  2   RLX: 0.602
       a = -2.000      CL =  0.0420
      Cm = -0.0213     CD =  0.01676   =>   CDf =  0.00931    CDp =  0.00745

 Side 1  free  transition at x/c =  0.5382   50
 Side 2  free  transition at x/c =  0.0773   28

   4   rms: 0.5233E-01   max: -.6239E+00   T at   28  2   RLX: 0.801
       a = -2.000      CL =  0.0476
      Cm = -0.0213     CD =  0.01711   =>   CDf =  0.00925    CDp =  0.00787

 MRCHDU: Convergence failed at  30  side 2    Res =  0.1407E+01
 MRCHDU: Convergence failed at  31  side 2    Res =  0.7071E+01
 MRCHDU: Convergence failed at  32  side 2    Res =  0.9758E+02
 MRCHDU: Convergence failed at  33  side 2    Res =  0.7091E+02
 MRCHDU: Convergence failed at  34  side 2    Res =  0.8554E+02
 MRCHDU: Convergence failed at  35  side 2    Res =  0.3455E+03
 MRCHDU: Convergence failed at  36  side 2    Res =  0.1274E+03
 MRCHDU: Convergence failed at  37  side 2    Res =  0.6128E+02
 MRCHDU: Convergence failed at  38  side 2    Res =  0.4000E+02
 MRCHDU: Convergence failed at  39  side 2    Res =  0.3182E+02
 MRCHDU: Convergence failed at  40  side 2    Res =  0.3718E+02
 MRCHDU: Convergence failed at  41  side 2    Res =  0.3137E+02
 MRCHDU: Convergence failed at  42  side 2    Res =  0.2728E+02
 MRCHDU: Convergence failed at  43  side 2    Res =  0.2467E+02
 MRCHDU: Convergence failed at  44  side 2    Res =  0.2297E+02
 MRCHDU: Convergence failed at  45  side 2    Res =  0.1935E+02
 MRCHDU: Convergence failed at  46  side 2    Res =  0.1844E+02
 MRCHDU: Convergence failed at  47  side 2    Res =  0.1761E+02
 MRCHDU: Convergence failed at  48  side 2    Res =  0.1695E+02
 MRCHDU: Convergence failed at  49  side 2    Res =  0.1622E+02
 MRCHDU: Convergence failed at  50  side 2    Res =  0.1561E+02
 MRCHDU: Convergence failed at  51  side 2    Res =  0.1516E+02
 MRCHDU: Convergence failed at  52  side 2    Res =  0.1499E+02
 MRCHDU: Convergence failed at  53  side 2    Res =  0.1466E+02
 MRCHDU: Convergence failed at  54  side 2    Res =  0.1429E+02
 MRCHDU: Convergence failed at  55  side 2    Res =  0.1401E+02
 MRCHDU: Convergence failed at  56  side 2    Res =  0.1375E+02
 MRCHDU: Convergence failed at  57  side 2    Res =  0.1350E+02
 MRCHDU: Convergence failed at  58  side 2    Res =  0.1329E+02
 MRCHDU: Convergence failed at  59  side 2    Res =  0.1307E+02
 MRCHDU: Convergence failed at  60  side 2    Res =  0.1287E+02
 MRCHDU: Convergence failed at  61  side 2    Res =  0.1269E+02
 MRCHDU: Convergence failed at  62  side 2    Res =  0.1250E+02
 MRCHDU: Convergence failed at  63  side 2    Res =  0.1234E+02
 MRCHDU: Convergence failed at  64  side 2    Res =  0.1219E+02
 MRCHDU: Convergence failed at  65  side 2    Res =  0.1200E+02
 MRCHDU: Convergence failed at  66  side 2    Res =  0.1181E+02
 MRCHDU: Convergence failed at  67  side 2    Res =  0.1162E+02
 MRCHDU: Convergence failed at  68  side 2    Res =  0.1137E+02
 MRCHDU: Convergence failed at  69  side 2    Res =  0.9125E+01
 MRCHDU: Convergence failed at  70  side 2    Res =  0.9432E+01
 MRCHDU: Convergence failed at  71  side 2    Res =  0.9864E+01
 MRCHDU: Convergence failed at  72  side 2    Res =  0.1037E+02
 MRCHDU: Convergence failed at  73  side 2    Res =  0.1094E+02
 MRCHDU: Convergence failed at  74  side 2    Res =  0.1170E+02
 MRCHDU: Convergence failed at  75  side 2    Res =  0.1258E+02
 MRCHDU: Convergence failed at  76  side 2    Res =  0.1371E+02
 MRCHDU: Convergence failed at  77  side 2    Res =  0.1510E+02
 MRCHDU: Convergence failed at  78  side 2    Res =  0.1674E+02
 MRCHDU: Convergence failed at  79  side 2    Res =  0.1870E+02
 MRCHDU: Convergence failed at  80  side 2    Res =  0.2100E+02
 MRCHDU: Convergence failed at  81  side 2    Res =  0.2346E+02
 MRCHDU: Convergence failed at  82  side 2    Res =  0.1913E+02
 MRCHDU: Convergence failed at  83  side 2    Res =  0.2949E+02
 Side 1  free  transition at x/c =  0.5372   50
 Side 2  free  transition at x/c =  0.0915   30

   5   rms: 0.4273E+00   max: -.1481E+01   T at   30  2   RLX: 0.338
       a = -2.000      CL = -0.2820
      Cm =  0.0965     CD =  0.01116   =>   CDf =  0.00426    CDp =  0.00690

 Side 1  free  transition at x/c =  0.5362   50
 Side 2  free  transition at x/c =  0.1256   32

   6   rms: 0.2598E+00   max: 0.1396E+01   T at   32  2   RLX: 0.430
       a = -2.000      CL = -0.1247
      Cm =  0.0418     CD =  0.01433   =>   CDf =  0.01107    CDp =  0.00327

 Side 1  free  transition at x/c =  0.5370   50
 Side 2  free  transition at x/c =  0.1012   30

   7   rms: 0.1207E+00   max: -.6782E+00   D at   31  2   RLX: 0.737
       a = -2.000      CL =  0.0007
      Cm = -0.0048     CD =  0.01574   =>   CDf =  0.01009    CDp =  0.00565

 Side 1  free  transition at x/c =  0.5375   50
 Side 2  free  transition at x/c =  0.0946   30

   8   rms: 0.3679E-01   max: -.3059E+00   D at   31  2
       a = -2.000      CL =  0.0466
      Cm = -0.0212     CD =  0.01654   =>   CDf =  0.00925    CDp =  0.00729

 Side 1  free  transition at x/c =  0.5372   50
 Side 2  free  transition at x/c =  0.0953   30

   9   rms: 0.3167E-02   max: -.4130E-01   D at   32  2
       a = -2.000      CL =  0.0469
      Cm = -0.0213     CD =  0.01661   =>   CDf =  0.00900    CDp =  0.00761

 Side 1  free  transition at x/c =  0.5371   50
 Side 2  free  transition at x/c =  0.0945   30

  10   rms: 0.1000E-03   max: -.1424E-02   D at   32  2
       a = -2.000      CL =  0.0469
      Cm = -0.0213     CD =  0.01661   =>   CDf =  0.00901    CDp =  0.00760

 Side 1  free  transition at x/c =  0.5371   50
 Side 2  free  transition at x/c =  0.0945   30

  11   rms: 0.1540E-05   max: -.1354E-04   T at   30  2
       a = -2.000      CL =  0.0469
      Cm = -0.0213     CD =  0.01661   =>   CDf =  0.00901    CDp =  0.00760
 plradd ia,ip,cpol            5           0  1.90312846E-03

 Point added to stored polar  1
 Point written to save file  mh82_Re150k.base.pol                            
 Dump file unspecified or not available
 Calculating wake trajectory ...
 Calculating source influence matrix ...

 Solving BL system ...

 Side 1  free  transition at x/c =  0.5371   50
 Side 2  free  transition at x/c =  0.0945   30

   1   rms: 0.3582E+00   max: -.3756E+01   T at   30  2   RLX: 0.133
       a = -1.500      CL =  0.0533
      Cm = -0.0212     CD =  0.01624   =>   CDf =  0.00902    CDp =  0.00723

 Side 1  free  transition at x/c =  0.5340   50
 Side 2  free  transition at x/c =  0.1151   31

   2   rms: 0.3952E+00   max: -.4589E+01   T at   31  2   RLX: 0.109
       a = -1.500      CL =  0.0595
      Cm = -0.0208     CD =  0.01612   =>   CDf =  0.00890    CDp =  0.00722

 Side 1  free  transition at x/c =  0.5320   50
 Side 2  free  transition at x/c =  0.1506   34

   3   rms: 0.3166E+00   max: -.2634E+01   C at   34  2   RLX: 0.190
       a = -1.500      CL =  0.0632
      Cm = -0.0206     CD =  0.01543   =>   CDf =  0.00881    CDp =  0.00662

 Side 1  free  transition at x/c =  0.5294   50
 Side 2  free  transition at x/c =  0.1824   35

   4   rms: 0.2160E+00   max: -.3882E+01   C at   35  2   RLX: 0.129
       a = -1.500      CL =  0.0659
      Cm = -0.0208     CD =  0.01567   =>   CDf =  0.00857    CDp =  0.00711

 Side 1  free  transition at x/c =  0.5279   50
 Side 2  free  transition at x/c =  0.1908   36

   5   rms: 0.1539E+00   max: -.1502E+01   C at   36  2   RLX: 0.333
       a = -1.500      CL =  0.0763
      Cm = -0.0205     CD =  0.01542   =>   CDf =  0.00863    CDp =  0.00679

 Side 1  free  transition at x/c =  0.5249   50
 Side 2  free  transition at x/c =  0.2170   37

   6   rms: 0.9657E-01   max: -.1198E+01   T at   37  2   RLX: 0.417
       a = -1.500      CL =  0.0874
      Cm = -0.0204     CD =  0.01584   =>   CDf =  0.00870    CDp =  0.00713

 MRCHDU: Convergence failed at  39  side 2    Res =  0.1591E+02
 Side 1  free  transition at x/c =  0.5226   51
 Side 2  free  transition at x/c =  0.2618   39

   7   rms: 0.6114E-01   max: -.5249E+00   T at   39  2   RLX: 0.953
       a = -1.500      CL =  0.0959
      Cm = -0.0201     CD =  0.01499   =>   CDf =  0.00833    CDp =  0.00666

 Side 1  free  transition at x/c =  0.5204   50
 Side 2  free  transition at x/c =  0.4529   50

   8   rms: 0.1244E+00   max: -.1993E+01   C at   50  2   RLX: 0.251
       a = -1.500      CL =  0.0808
      Cm = -0.0184     CD =  0.01430   =>   CDf =  0.00774    CDp =  0.00657

 Side 1  free  transition at x/c =  0.5202   50
 Side 2  free  transition at x/c =  0.4652   50

   9   rms: 0.5224E-01   max: -.6977E+00   C at   50  2   RLX: 0.717
       a = -1.500      CL =  0.0881
      Cm = -0.0193     CD =  0.01421   =>   CDf =  0.00763    CDp =  0.00658

 Side 1  free  transition at x/c =  0.5194   50
 Side 2  free  transition at x/c =  0.5239   54

  10   rms: 0.4833E-01   max: 0.7838E+00   C at   54  2
       a = -1.500      CL =  0.0918
      Cm = -0.0197     CD =  0.01430   =>   CDf =  0.00715    CDp =  0.00715

 Side 1  free  transition at x/c =  0.5190   50
 Side 2  free  transition at x/c =  0.4561   50

  11   rms: 0.8377E-02   max: 0.9926E-01   C at   50  2
       a = -1.500      CL =  0.0919
      Cm = -0.0197     CD =  0.01436   =>   CDf =  0.00740    CDp =  0.00695

 Side 1  free  transition at x/c =  0.5189   50
 Side 2  free  transition at x/c =  0.4434   49

  12   rms: 0.7627E-03   max: -.1200E-01   C at   49  2
       a = -1.500      CL =  0.0920
      Cm = -0.0197     CD =  0.01437   =>   CDf =  0.00745    CDp =  0.00692

 Side 1  free  transition at x/c =  0.5189   50
 Side 2  free  transition at x/c =  0.4439   49

  13   rms: 0.2073E-05   max: -.1485E-04   D at   53  2
       a = -1.500      CL =  0.0920
      Cm = -0.0197     CD =  0.01437   =>   CDf =  0.00745    CDp =  0.00692
 plradd ia,ip,cpol            6           0  1.90312846E-03

 Point added to stored polar  1
 Point written to save file  mh82_Re150k.base.pol                            
 Dump file unspecified or not available
 Calculating wake trajectory ...
 Calculating source influence matrix ...

 Solving BL system ...

 Side 1  free  transition at x/c =  0.5189   50
 Side 2  free  transition at x/c =  0.4439   49

   1   rms: 0.4911E+00   max: -.8311E+01   C at   49  2   RLX: 0.060
       a = -1.000      CL =  0.0943
      Cm = -0.0195     CD =  0.01424   =>   CDf =  0.00745    CDp =  0.00679

 Side 1  free  transition at x/c =  0.5177   50
 Side 2  free  transition at x/c =  0.4801   51

   2   rms: 0.4366E+00   max: -.7268E+01   C at   51  2   RLX: 0.069
       a = -1.000      CL =  0.0967
      Cm = -0.0192     CD =  0.01408   =>   CDf =  0.00729    CDp =  0.00680

 Side 1  free  transition at x/c =  0.5163   50
 Side 2  free  transition at x/c =  0.5306   54

   3   rms: 0.4251E+00   max: -.6979E+01   C at   54  2   RLX: 0.072
       a = -1.000      CL =  0.0979
      Cm = -0.0186     CD =  0.01387   =>   CDf =  0.00706    CDp =  0.00681

 Side 1  free  transition at x/c =  0.5152   50
 Side 2  free  transition at x/c =  0.5837   57

   4   rms: 0.3392E+00   max: -.5460E+01   C at   57  2   RLX: 0.092
       a = -1.000      CL =  0.0995
      Cm = -0.0178     CD =  0.01366   =>   CDf =  0.00684    CDp =  0.00682

 Side 1  free  transition at x/c =  0.5138   50
 Side 2  free  transition at x/c =  0.6543   61

   5   rms: 0.3698E+00   max: -.5869E+01   C at   61  2   RLX: 0.085
       a = -1.000      CL =  0.0994
      Cm = -0.0165     CD =  0.01342   =>   CDf =  0.00655    CDp =  0.00686

 Side 1  free  transition at x/c =  0.5128   50
 Side 2  free  transition at x/c =  0.6987   64

   6   rms: 0.3487E+00   max: -.5489E+01   C at   64  2   RLX: 0.091
       a = -1.000      CL =  0.1009
      Cm = -0.0158     CD =  0.01328   =>   CDf =  0.00640    CDp =  0.00689

 Side 1  free  transition at x/c =  0.5119   50
 Side 2  free  transition at x/c =  0.7296   65

   7   rms: 0.1923E+00   max: -.2872E+01   C at   65  2   RLX: 0.174
       a = -1.000      CL =  0.1056
      Cm = -0.0155     CD =  0.01322   =>   CDf =  0.00629    CDp =  0.00693

 Side 1  free  transition at x/c =  0.5103   50
 Side 2  free  transition at x/c =  0.8171   70

   8   rms: 0.3543E+00   max: -.4722E+01   C at   70  2   RLX: 0.106
       a = -1.000      CL =  0.1090
      Cm = -0.0133     CD =  0.01307   =>   CDf =  0.00604    CDp =  0.00703

 Side 1  free  transition at x/c =  0.5091   50
 Side 2  free  transition at x/c =  0.8568   72

   9   rms: 0.7283E-01   max: 0.7680E+00   C at   72  2
       a = -1.000      CL =  0.1153
      Cm = -0.0104     CD =  0.01337   =>   CDf =  0.00599    CDp =  0.00738

 MRCHDU: Convergence failed at  78  side 2    Res =  0.7776E+01
 MRCHDU: Convergence failed at  79  side 2    Res =  0.1540E+01
 MRCHDU: Convergence failed at  80  side 2    Res =  0.1460E+01
 MRCHDU: Convergence failed at  81  side 2    Res =  0.1451E+01
 MRCHDU: Convergence failed at  82  side 2    Res =  0.2859E+01
 Side 1  free  transition at x/c =  0.5044   49
 Side 2 forced transition at x/c =  1.0000   82

  10   rms: 0.1227E+00   max: 0.9308E+00   C at   82  2
       a = -1.000      CL =  0.2018
      Cm = -0.0270     CD =  0.01259   =>   CDf =  0.00625    CDp =  0.00634

 Side 1  free  transition at x/c =  0.4935   50
 Side 2 forced transition at x/c =  1.0000   81

  11   rms: 0.6386E-01   max: 0.4862E+00   C at   81  2
       a = -1.000      CL =  0.2269
      Cm = -0.0306     CD =  0.01305   =>   CDf =  0.00636    CDp =  0.00669

 Side 1  free  transition at x/c =  0.4939   50
 Side 2  free  transition at x/c =  0.9700   78

  12   rms: 0.6091E-01   max: -.4046E+00   D at   81  2
       a = -1.000      CL =  0.1780
      Cm = -0.0212     CD =  0.01310   =>   CDf =  0.00637    CDp =  0.00673

 Side 1  free  transition at x/c =  0.4975   50
 Side 2  free  transition at x/c =  0.9614   78

  13   rms: 0.1328E-01   max: -.1022E+00   D at   81  2
       a = -1.000      CL =  0.1694
      Cm = -0.0196     CD =  0.01334   =>   CDf =  0.00618    CDp =  0.00716

 Side 1  free  transition at x/c =  0.4987   50
 Side 2  free  transition at x/c =  0.9628   78

  14   rms: 0.1367E-02   max: 0.9569E-02   D at   81  2
       a = -1.000      CL =  0.1702
      Cm = -0.0198     CD =  0.01334   =>   CDf =  0.00616    CDp =  0.00718

 Side 1  free  transition at x/c =  0.4987   50
 Side 2  free  transition at x/c =  0.9628   78

  15   rms: 0.7401E-05   max: 0.5277E-04   D at   81  2
       a = -1.000      CL =  0.1702
      Cm = -0.0198     CD =  0.01334   =>   CDf =  0.00616    CDp =  0.00718
 plradd ia,ip,cpol            7           0  1.90312846E-03

 Point added to stored polar  1
 Point written to save file  mh82_Re150k.base.pol                            
 Dump file unspecified or not available
 Calculating wake trajectory ...
 Calculating source influence matrix ...

 Solving BL system ...

 Side 1  free  transition at x/c =  0.4987   50
 Side 2  free  transition at x/c =  0.9628   78

   1   rms: 0.2813E+00   max: 0.1277E+01   D at   81  2   RLX: 0.512
       a = -0.500      CL =  0.2824
      Cm = -0.0344     CD =  0.01339   =>   CDf =  0.00625    CDp =  0.00714

 Side 1  free  transition at x/c =  0.4816   50
 Side 2  free  transition at x/c =  0.9870   79

   2   rms: 0.2144E+00   max: -.3205E+01   T at    2  1   RLX: 0.156
       a = -0.500      CL =  0.2915
      Cm = -0.0365     CD =  0.01509   =>   CDf =  0.00672    CDp =  0.00837

 Side 1  free  transition at x/c =  0.4795   50
 Side 2  free  transition at x/c =  0.9918   79

   3   rms: 0.7816E-01   max: -.7375E+00   T at   79  2   RLX: 0.678
       a = -0.500      CL =  0.3207
      Cm = -0.0390     CD =  0.01352   =>   CDf =  0.00675    CDp =  0.00677

 Side 1  free  transition at x/c =  0.4740   50
 Side 2 forced transition at x/c =  1.0000   80

   4   rms: 0.6365E-01   max: -.5078E+00   D at   80  2   RLX: 0.985
       a = -0.500      CL =  0.2784
      Cm = -0.0297     CD =  0.01340   =>   CDf =  0.00692    CDp =  0.00648

 Side 1  free  transition at x/c =  0.4768   50
 Side 2 forced transition at x/c =  1.0000   80

   5   rms: 0.5618E-02   max: -.3855E-01   D at   84  2
       a = -0.500      CL =  0.2779
      Cm = -0.0294     CD =  0.01346   =>   CDf =  0.00681    CDp =  0.00665

 Side 1  free  transition at x/c =  0.4769   50
 Side 2 forced transition at x/c =  1.0000   80

   6   rms: 0.1995E-03   max: 0.1235E-02   D at   68  2
       a = -0.500      CL =  0.2780
      Cm = -0.0294     CD =  0.01347   =>   CDf =  0.00679    CDp =  0.00668

 Side 1  free  transition at x/c =  0.4769   50
 Side 2 forced transition at x/c =  1.0000   80

   7   rms: 0.1180E-05   max: -.1386E-04   D at   82  2
       a = -0.500      CL =  0.2780
      Cm = -0.0294     CD =  0.01347   =>   CDf =  0.00679    CDp =  0.00668
 plradd ia,ip,cpol            8           0  0.16701907    

 Point added to stored polar  1
 Point written to save file  mh82_Re150k.base.pol                            
 Dump file unspecified or not available
 Calculating wake trajectory ...
 Calculating source influence matrix ...

 Solving BL system ...

 Side 1  free  transition at x/c =  0.4769   50
 Side 2 forced transition at x/c =  1.0000   80

   1   rms: 0.8215E-01   max: -.1737E+00   n at   79  2
       a =  0.000      CL =  0.3249
      Cm = -0.0278     CD =  0.01369   =>   CDf =  0.00680    CDp =  0.00689

 Side 1  free  transition at x/c =  0.4646   49
 Side 2 forced transition at x/c =  1.0000   80

   2   rms: 0.1022E-01   max: -.1272E+00   D at   49  1
       a =  0.000      CL =  0.3257
      Cm = -0.0281     CD =  0.01376   =>   CDf =  0.00717    CDp =  0.00659

 Side 1  free  transition at x/c =  0.4614   49
 Side 2 forced transition at x/c =  1.0000   80

   3   rms: 0.1955E-02   max: -.1772E-01   D at   50  1
       a =  0.000      CL =  0.3257
      Cm = -0.0280     CD =  0.01375   =>   CDf =  0.00715    CDp =  0.00660

 Side 1  free  transition at x/c =  0.4618   49
 Side 2 forced transition at x/c =  1.0000   80

   4   rms: 0.1414E-04   max: -.1309E-03   D at   49  1
       a =  0.000      CL =  0.3257
      Cm = -0.0280     CD =  0.01375   =>   CDf =  0.00714    CDp =  0.00661
 plradd ia,ip,cpol            9           0  0.15482616    

 Point added to stored polar  1
 Point written to save file  mh82_Re150k.base.pol                            
 Dump file unspecified or not available
 Calculating wake trajectory ...
 Calculating source influence matrix ...

 Solving BL system ...

 Side 1  free  transition at x/c =  0.4618   49
 Side 2 forced transition at x/c =  1.0000   80

   1   rms: 0.7867E-01   max: -.1327E+00   n at   79  2
       a =  0.500      CL =  0.3738
      Cm = -0.0266     CD =  0.01406   =>   CDf =  0.00722    CDp =  0.00684

 Side 1  free  transition at x/c =  0.4484   49
 Side 2 forced transition at x/c =  1.0000   79

   2   rms: 0.1536E-01   max: -.1504E+00   D at   49  1
       a =  0.500      CL =  0.3741
      Cm = -0.0266     CD =  0.01409   =>   CDf =  0.00750    CDp =  0.00659

 Side 1  free  transition at x/c =  0.4477   49
 Side 2 forced transition at x/c =  1.0000   79

   3   rms: 0.4713E-03   max: -.3238E-02   D at    4  2
       a =  0.500      CL =  0.3741
      Cm = -0.0266     CD =  0.01410   =>   CDf =  0.00745    CDp =  0.00665

 Side 1  free  transition at x/c =  0.4476   49
 Side 2 forced transition at x/c =  1.0000   79

   4   rms: 0.1397E-05   max: 0.9901E-05   T at   49  1
       a =  0.500      CL =  0.3741
      Cm = -0.0266     CD =  0.01410   =>   CDf =  0.00745    CDp =  0.00665
 plradd ia,ip,cpol           10           0  0.15482616    

 Point added to stored polar  1
 Point written to save file  mh82_Re150k.base.pol                            
 Dump file unspecified or not available
 Calculating wake trajectory ...
 Calculating source influence matrix ...

 Solving BL system ...

 Side 1  free  transition at x/c =  0.4476   49
 Side 2 forced transition at x/c =  1.0000   79

   1   rms: 0.7835E-01   max: -.1229E+00   n at   78  2
       a =  1.000      CL =  0.4230
      Cm = -0.0254     CD =  0.01447   =>   CDf =  0.00753    CDp =  0.00694

 Side 1  free  transition at x/c =  0.4337   49
 Side 2 forced transition at x/c =  1.0000   78

   2   rms: 0.1840E-01   max: -.1316E+00   D at   49  1
       a =  1.000      CL =  0.4229
      Cm = -0.0252     CD =  0.01449   =>   CDf =  0.00781    CDp =  0.00669

 Side 1  free  transition at x/c =  0.4348   49
 Side 2 forced transition at x/c =  1.0000   78

   3   rms: 0.1134E-02   max: 0.1077E-01   D at   50  1
       a =  1.000      CL =  0.4230
      Cm = -0.0253     CD =  0.01451   =>   CDf =  0.00777    CDp =  0.00674

 Side 1  free  transition at x/c =  0.4346   49
 Side 2 forced transition at x/c =  1.0000   78

   4   rms: 0.3025E-05   max: 0.2529E-04   D at   52  1
       a =  1.000      CL =  0.4230
      Cm = -0.0253     CD =  0.01451   =>   CDf =  0.00777    CDp =  0.00674
 plradd ia,ip,cpol           11           0  0.15482616    

 Point added to stored polar  1
 Point written to save file  mh82_Re150k.base.pol                            
 Dump file unspecified or not available
 Calculating wake trajectory ...
 Calculating source influence matrix ...

 Solving BL system ...

 Side 1  free  transition at x/c =  0.4346   49
 Side 2 forced transition at x/c =  1.0000   78

   1   rms: 0.8098E-01   max: -.1353E+00   n at   77  2
       a =  1.500      CL =  0.4725
      Cm = -0.0243     CD =  0.01497   =>   CDf =  0.00783    CDp =  0.00715

 Side 1  free  transition at x/c =  0.4198   49
 Side 2 forced transition at x/c =  1.0000   77

   2   rms: 0.2947E-01   max: -.2817E+00   D at   51  1
       a =  1.500      CL =  0.4723
      Cm = -0.0239     CD =  0.01505   =>   CDf =  0.00807    CDp =  0.00697

 Side 1  free  transition at x/c =  0.4244   50
 Side 2 forced transition at x/c =  1.0000   77

   3   rms: 0.1684E-01   max: 0.1868E+00   D at   50  1
       a =  1.500      CL =  0.4725
      Cm = -0.0239     CD =  0.01496   =>   CDf =  0.00801    CDp =  0.00695

 Side 1  free  transition at x/c =  0.4226   50
 Side 2 forced transition at x/c =  1.0000   77

   4   rms: 0.7380E-03   max: 0.6323E-02   T at   50  1
       a =  1.500      CL =  0.4725
      Cm = -0.0240     CD =  0.01496   =>   CDf =  0.00803    CDp =  0.00693

 Side 1  free  transition at x/c =  0.4225   50
 Side 2 forced transition at x/c =  1.0000   77

   5   rms: 0.9851E-05   max: -.8520E-04   D at   52  1
       a =  1.500      CL =  0.4725
      Cm = -0.0240     CD =  0.01496   =>   CDf =  0.00804    CDp =  0.00692
 plradd ia,ip,cpol           12           0  0.14293469    

 Point added to stored polar  1
 Point written to save file  mh82_Re150k.base.pol                            
 Dump file unspecified or not available
 Calculating wake trajectory ...
 Calculating source influence matrix ...

 Solving BL system ...

 Side 1  free  transition at x/c =  0.4224   50
 Side 2 forced transition at x/c =  1.0000   77

   1   rms: 0.7822E-01   max: -.1229E+00   C at   77  2
       a =  2.000      CL =  0.5221
      Cm = -0.0226     CD =  0.01559   =>   CDf =  0.00804    CDp =  0.00755

 Side 1  free  transition at x/c =  0.4138   49
 Side 2 forced transition at x/c =  1.0000   77

   2   rms: 0.1357E-01   max: 0.1864E+00   D at   50  1
       a =  2.000      CL =  0.5222
      Cm = -0.0229     CD =  0.01558   =>   CDf =  0.00816    CDp =  0.00742

 Side 1  free  transition at x/c =  0.4092   49
 Side 2 forced transition at x/c =  1.0000   77

   3   rms: 0.4514E-02   max: -.3479E-01   D at   49  1
       a =  2.000      CL =  0.5224
      Cm = -0.0229     CD =  0.01548   =>   CDf =  0.00818    CDp =  0.00730

 Side 1  free  transition at x/c =  0.4100   49
 Side 2 forced transition at x/c =  1.0000   77

   4   rms: 0.8047E-04   max: -.6799E-03   D at   52  1
       a =  2.000      CL =  0.5224
      Cm = -0.0229     CD =  0.01549   =>   CDf =  0.00816    CDp =  0.00733
 plradd ia,ip,cpol           13           0  0.14293469    

 Point added to stored polar  1
 Point written to save file  mh82_Re150k.base.pol                            
 Dump file unspecified or not available
 Calculating wake trajectory ...
 Calculating source influence matrix ...

 Solving BL system ...

 Side 1  free  transition at x/c =  0.4100   49
 Side 2 forced transition at x/c =  1.0000   77

   1   rms: 0.7548E-01   max: -.1367E+00   C at   77  2
       a =  2.500      CL =  0.5726
      Cm = -0.0216     CD =  0.01595   =>   CDf =  0.00819    CDp =  0.00776

 Side 1  free  transition at x/c =  0.4010   49
 Side 2 forced transition at x/c =  1.0000   76

   2   rms: 0.8774E-02   max: -.8696E-01   D at   49  1
       a =  2.500      CL =  0.5726
      Cm = -0.0218     CD =  0.01610   =>   CDf =  0.00839    CDp =  0.00770

 Side 1  free  transition at x/c =  0.3993   49
 Side 2 forced transition at x/c =  1.0000   76

   3   rms: 0.6000E-03   max: 0.5345E-02   D at    4  1
       a =  2.500      CL =  0.5726
      Cm = -0.0218     CD =  0.01610   =>   CDf =  0.00834    CDp =  0.00776

 Side 1  free  transition at x/c =  0.3993   49
 Side 2 forced transition at x/c =  1.0000   76

   4   rms: 0.2823E-05   max: -.1289E-04   D at   61  1
       a =  2.500      CL =  0.5726
      Cm = -0.0218     CD =  0.01610   =>   CDf =  0.00834    CDp =  0.00776
 plradd ia,ip,cpol           14           0  0.14293469    

 Point added to stored polar  1
 Point written to save file  mh82_Re150k.base.pol                            
 Dump file unspecified or not available
 Calculating wake trajectory ...
 Calculating source influence matrix ...

 Solving BL system ...

 Side 1  free  transition at x/c =  0.3993   49
 Side 2 forced transition at x/c =  1.0000   76

   1   rms: 0.7578E-01   max: -.1456E+00   C at   76  2
       a =  3.000      CL =  0.6230
      Cm = -0.0210     CD =  0.01675   =>   CDf =  0.00834    CDp =  0.00841

 Side 1  free  transition at x/c =  0.3878   49
 Side 2 forced transition at x/c =  1.0000   75

   2   rms: 0.3227E-01   max: -.2626E+00   D at   51  1
       a =  3.000      CL =  0.6240
      Cm = -0.0207     CD =  0.01677   =>   CDf =  0.00857    CDp =  0.00819

 Side 1  free  transition at x/c =  0.3921   50
 Side 2 forced transition at x/c =  1.0000   75

   3   rms: 0.2655E-01   max: 0.2788E+00   D at   50  1
       a =  3.000      CL =  0.6238
      Cm = -0.0208     CD =  0.01667   =>   CDf =  0.00851    CDp =  0.00816

 Side 1  free  transition at x/c =  0.3900   50
 Side 2 forced transition at x/c =  1.0000   75

   4   rms: 0.1218E-02   max: 0.1148E-01   T at   50  1
       a =  3.000      CL =  0.6237
      Cm = -0.0208     CD =  0.01668   =>   CDf =  0.00853    CDp =  0.00815

 Side 1  free  transition at x/c =  0.3897   50
 Side 2 forced transition at x/c =  1.0000   75

   5   rms: 0.2480E-04   max: -.2138E-03   D at   53  1
       a =  3.000      CL =  0.6237
      Cm = -0.0208     CD =  0.01668   =>   CDf =  0.00854    CDp =  0.00814
 plradd ia,ip,cpol           15           0  0.13135828    

 Point added to stored polar  1
 Point written to save file  mh82_Re150k.base.pol                            
 Dump file unspecified or not available
 Calculating wake trajectory ...
 Calculating source influence matrix ...

 Solving BL system ...

 Side 1  free  transition at x/c =  0.3897   50
 Side 2 forced transition at x/c =  1.0000   75

   1   rms: 0.7677E-01   max: -.1272E+00   C at   75  2
       a =  3.500      CL =  0.6753
      Cm = -0.0198     CD =  0.01741   =>   CDf =  0.00855    CDp =  0.00886

 Side 1  free  transition at x/c =  0.3827   49
 Side 2 forced transition at x/c =  1.0000   75

   2   rms: 0.1559E-01   max: 0.2147E+00   D at   50  1
       a =  3.500      CL =  0.6741
      Cm = -0.0201     CD =  0.01753   =>   CDf =  0.00859    CDp =  0.00894

 Side 1  free  transition at x/c =  0.3787   49
 Side 2 forced transition at x/c =  1.0000   75

   3   rms: 0.2068E-02   max: -.1685E-01   D at   49  1
       a =  3.500      CL =  0.6746
      Cm = -0.0201     CD =  0.01741   =>   CDf =  0.00856    CDp =  0.00885

 Side 1  free  transition at x/c =  0.3792   49
 Side 2 forced transition at x/c =  1.0000   75

   4   rms: 0.3255E-04   max: -.3624E-03   D at   52  1
       a =  3.500      CL =  0.6746
      Cm = -0.0201     CD =  0.01741   =>   CDf =  0.00855    CDp =  0.00887
 plradd ia,ip,cpol           16           0  0.13135828    

 Point added to stored polar  1
 Point written to save file  mh82_Re150k.base.pol                            
 Dump file unspecified or not available
 Calculating wake trajectory ...
 Calculating source influence matrix ...

 Solving BL system ...

 Side 1  free  transition at x/c =  0.3792   49
 Side 2 forced transition at x/c =  1.0000   75

   1   rms: 0.7486E-01   max: -.1298E+00   C at   75  2
       a =  4.000      CL =  0.7262
      Cm = -0.0194     CD =  0.01803   =>   CDf =  0.00851    CDp =  0.00952

 Side 1  free  transition at x/c =  0.3710   49
 Side 2 forced transition at x/c =  1.0000   74

   2   rms: 0.1545E-01   max: 0.9172E-01   D at    3  1
       a =  4.000      CL =  0.7268
      Cm = -0.0194     CD =  0.01814   =>   CDf =  0.00876    CDp =  0.00938

 Side 1  free  transition at x/c =  0.3714   49
 Side 2 forced transition at x/c =  1.0000   74

   3   rms: 0.9005E-03   max: 0.7339E-02   D at    4  1
       a =  4.000      CL =  0.7268
      Cm = -0.0194     CD =  0.01816   =>   CDf =  0.00880    CDp =  0.00936

 Side 1  free  transition at x/c =  0.3713   49
 Side 2 forced transition at x/c =  1.0000   74

   4   rms: 0.4885E-05   max: 0.2172E-04   D at    6  2
       a =  4.000      CL =  0.7268
      Cm = -0.0194     CD =  0.01816   =>   CDf =  0.00880    CDp =  0.00936
 plradd ia,ip,cpol           17           0  0.12012573    

 Point added to stored polar  1
 Point written to save file  mh82_Re150k.base.pol                            
 Dump file unspecified or not available
 Calculating wake trajectory ...
 Calculating source influence matrix ...

 Solving BL system ...

 Side 1  free  transition at x/c =  0.3713   49
 Side 2 forced transition at x/c =  1.0000   74

   1   rms: 0.8075E-01   max: -.1469E+00   C at   74  2
       a =  4.500      CL =  0.7767
      Cm = -0.0190     CD =  0.01906   =>   CDf =  0.00873    CDp =  0.01032

 Side 1  free  transition at x/c =  0.3596   50
 Side 2 forced transition at x/c =  1.0000   73

   2   rms: 0.3457E-01   max: -.2338E+00   D at   51  1
       a =  4.500      CL =  0.7777
      Cm = -0.0189     CD =  0.01896   =>   CDf =  0.00859    CDp =  0.01037

 Side 1  free  transition at x/c =  0.3617   50
 Side 2 forced transition at x/c =  1.0000   73

   3   rms: 0.6307E-03   max: -.6415E-02   D at   50  1
       a =  4.500      CL =  0.7778
      Cm = -0.0189     CD =  0.01897   =>   CDf =  0.00866    CDp =  0.01031

 Side 1  free  transition at x/c =  0.3617   50
 Side 2 forced transition at x/c =  1.0000   73

   4   rms: 0.3358E-05   max: 0.2736E-04   D at    4  1
       a =  4.500      CL =  0.7778
      Cm = -0.0189     CD =  0.01897   =>   CDf =  0.00866    CDp =  0.01031
 plradd ia,ip,cpol           18           0  0.12012573    

 Point added to stored polar  1
 Point written to save file  mh82_Re150k.base.pol                            
 Dump file unspecified or not available
 Calculating wake trajectory ...
 Calculating source influence matrix ...

 Solving BL system ...

 Side 1  free  transition at x/c =  0.3617   50
 Side 2 forced transition at x/c =  1.0000   73

   1   rms: 0.7496E-01   max: -.1152E+00   C at   73  2
       a =  5.000      CL =  0.8301
      Cm = -0.0183     CD =  0.01962   =>   CDf =  0.00867    CDp =  0.01095

 Side 1  free  transition at x/c =  0.3543   49
 Side 2 forced transition at x/c =  1.0000   73

   2   rms: 0.1133E-01   max: -.5554E-01   D at   49  1
       a =  5.000      CL =  0.8302
      Cm = -0.0184     CD =  0.01979   =>   CDf =  0.00882    CDp =  0.01097

 Side 1  free  transition at x/c =  0.3542   49
 Side 2 forced transition at x/c =  1.0000   73

   3   rms: 0.1777E-03   max: 0.1277E-02   D at   51  1
       a =  5.000      CL =  0.8302
      Cm = -0.0184     CD =  0.01980   =>   CDf =  0.00882    CDp =  0.01098

 Side 1  free  transition at x/c =  0.3541   49
 Side 2 forced transition at x/c =  1.0000   73

   4   rms: 0.2354E-05   max: 0.1057E-04   D at   77  1
       a =  5.000      CL =  0.8302
      Cm = -0.0184     CD =  0.01980   =>   CDf =  0.00882    CDp =  0.01098
 plradd ia,ip,cpol           19           0  0.12012573    

 Point added to stored polar  1
 Point written to save file  mh82_Re150k.base.pol                            
 Dump file unspecified or not available
 Calculating wake trajectory ...
 Calculating source influence matrix ...

 Solving BL system ...

 Side 1  free  transition at x/c =  0.3541   49
 Side 2 forced transition at x/c =  1.0000   73

   1   rms: 0.7965E-01   max: -.1365E+00   C at   73  2
       a =  5.500      CL =  0.8791
      Cm = -0.0180     CD =  0.02093   =>   CDf =  0.00871    CDp =  0.01222

 Side 1  free  transition at x/c =  0.3442   50
 Side 2 forced transition at x/c =  1.0000   72

   2   rms: 0.2652E-01   max: -.1803E+00   D at   52  1
       a =  5.500      CL =  0.8806
      Cm = -0.0180     CD =  0.02077   =>   CDf =  0.00859    CDp =  0.01218

 Side 1  free  transition at x/c =  0.3456   50
 Side 2 forced transition at x/c =  1.0000   72

   3   rms: 0.1722E-02   max: -.2037E-01   D at    4  1
       a =  5.500      CL =  0.8807
      Cm = -0.0180     CD =  0.02079   =>   CDf =  0.00866    CDp =  0.01213

 Side 1  free  transition at x/c =  0.3456   50
 Side 2 forced transition at x/c =  1.0000   72

   4   rms: 0.1044E-04   max: -.1328E-03   D at    7  1
       a =  5.500      CL =  0.8807
      Cm = -0.0180     CD =  0.02079   =>   CDf =  0.00866    CDp =  0.01213
 plradd ia,ip,cpol           20           0  0.10927151    

 Point added to stored polar  1
 Point written to save file  mh82_Re150k.base.pol                            
 Dump file unspecified or not available
 Calculating wake trajectory ...
 Calculating source influence matrix ...

 Solving BL system ...

 Side 1  free  transition at x/c =  0.3456   50
 Side 2 forced transition at x/c =  1.0000   72

   1   rms: 0.7481E-01   max: -.1073E+00   C at   72  2
       a =  6.000      CL =  0.9327
      Cm = -0.0175     CD =  0.02157   =>   CDf =  0.00867    CDp =  0.01290

 Side 1  free  transition at x/c =  0.3386   49
 Side 2 forced transition at x/c =  1.0000   72

   2   rms: 0.1640E-01   max: -.8619E-01   D at   50  1
       a =  6.000      CL =  0.9334
      Cm = -0.0176     CD =  0.02167   =>   CDf =  0.00877    CDp =  0.01290

 Side 1  free  transition at x/c =  0.3388   49
 Side 2 forced transition at x/c =  1.0000   72

   3   rms: 0.4861E-03   max: 0.3915E-02   D at   51  1
       a =  6.000      CL =  0.9333
      Cm = -0.0176     CD =  0.02170   =>   CDf =  0.00882    CDp =  0.01288

 Side 1  free  transition at x/c =  0.3388   49
 Side 2 forced transition at x/c =  1.0000   72

   4   rms: 0.4505E-05   max: 0.1784E-04   D at   63  1
       a =  6.000      CL =  0.9333
      Cm = -0.0176     CD =  0.02170   =>   CDf =  0.00881    CDp =  0.01289
 plradd ia,ip,cpol           21           0  0.10927151    

 Point added to stored polar  1
 Point written to save file  mh82_Re150k.base.pol                            
 Dump file unspecified or not available
 Calculating wake trajectory ...
 Calculating source influence matrix ...

 Solving BL system ...

 Side 1  free  transition at x/c =  0.3388   49
 Side 2 forced transition at x/c =  1.0000   72

   1   rms: 0.8173E-01   max: 0.4148E+00   T at   49  1
       a =  6.500      CL =  0.9790
      Cm = -0.0172     CD =  0.02306   =>   CDf =  0.00866    CDp =  0.01441

 Side 1  free  transition at x/c =  0.3293   50
 Side 2 forced transition at x/c =  1.0000   71

   2   rms: 0.3019E-01   max: -.1977E+00   D at   52  1
       a =  6.500      CL =  0.9818
      Cm = -0.0172     CD =  0.02288   =>   CDf =  0.00843    CDp =  0.01445

 Side 1  free  transition at x/c =  0.3306   50
 Side 2 forced transition at x/c =  1.0000   71

   3   rms: 0.2393E-02   max: -.1934E-01   D at    4  1
       a =  6.500      CL =  0.9819
      Cm = -0.0172     CD =  0.02291   =>   CDf =  0.00855    CDp =  0.01436

 Side 1  free  transition at x/c =  0.3305   50
 Side 2 forced transition at x/c =  1.0000   71

   4   rms: 0.6587E-05   max: 0.6878E-04   D at    8  1
       a =  6.500      CL =  0.9819
      Cm = -0.0172     CD =  0.02291   =>   CDf =  0.00855    CDp =  0.01437
 plradd ia,ip,cpol           22           0  9.88189876E-02

 Point added to stored polar  1
 Point written to save file  mh82_Re150k.base.pol                            
 Dump file unspecified or not available
 Calculating wake trajectory ...
 Calculating source influence matrix ...

 Solving BL system ...

 Side 1  free  transition at x/c =  0.3305   50
 Side 2 forced transition at x/c =  1.0000   71

   1   rms: 0.7414E-01   max: -.1020E+00   C at   71  2
       a =  7.000      CL =  1.0327
      Cm = -0.0168     CD =  0.02391   =>   CDf =  0.00836    CDp =  0.01555

 Side 1  free  transition at x/c =  0.3234   50
 Side 2 forced transition at x/c =  1.0000   70

   2   rms: 0.3631E-01   max: -.1813E+00   D at   52  1
       a =  7.000      CL =  1.0368
      Cm = -0.0170     CD =  0.02371   =>   CDf =  0.00859    CDp =  0.01512

 Side 1  free  transition at x/c =  0.3252   51
 Side 2 forced transition at x/c =  1.0000   70

   3   rms: 0.2114E-01   max: 0.1497E+00   D at   51  1
       a =  7.000      CL =  1.0350
      Cm = -0.0169     CD =  0.02382   =>   CDf =  0.00872    CDp =  0.01510

 Side 1  free  transition at x/c =  0.3243   51
 Side 2 forced transition at x/c =  1.0000   70

   4   rms: 0.2356E-03   max: -.2017E-02   D at   51  1
       a =  7.000      CL =  1.0349
      Cm = -0.0169     CD =  0.02381   =>   CDf =  0.00868    CDp =  0.01512

 Side 1  free  transition at x/c =  0.3243   51
 Side 2 forced transition at x/c =  1.0000   70

   5   rms: 0.2435E-05   max: -.2647E-04   D at    4  1
       a =  7.000      CL =  1.0349
      Cm = -0.0169     CD =  0.02381   =>   CDf =  0.00868    CDp =  0.01512
 plradd ia,ip,cpol           23           0  9.88189876E-02

 Point added to stored polar  1
 Point written to save file  mh82_Re150k.base.pol                            
 Dump file unspecified or not available
 Calculating wake trajectory ...
 Calculating source influence matrix ...

 Solving BL system ...

 Side 1  free  transition at x/c =  0.3243   51
 Side 2 forced transition at x/c =  1.0000   70

   1   rms: 0.7928E-01   max: 0.3690E+00   T at   51  1
       a =  7.500      CL =  1.0891
      Cm = -0.0168     CD =  0.02526   =>   CDf =  0.00869    CDp =  0.01656

 Side 1  free  transition at x/c =  0.3196   50
 Side 2 forced transition at x/c =  1.0000   70

   2   rms: 0.3802E-01   max: 0.3566E+00   D at   51  1
       a =  7.500      CL =  1.0779
      Cm = -0.0164     CD =  0.02575   =>   CDf =  0.00847    CDp =  0.01728

 Side 1  free  transition at x/c =  0.3161   50
 Side 2 forced transition at x/c =  1.0000   70

   3   rms: 0.8129E-02   max: 0.5074E-01   D at   51  1
       a =  7.500      CL =  1.0802
      Cm = -0.0164     CD =  0.02537   =>   CDf =  0.00840    CDp =  0.01698

 Side 1  free  transition at x/c =  0.3162   50
 Side 2 forced transition at x/c =  1.0000   70

   4   rms: 0.2414E-03   max: 0.1870E-02   D at   52  1
       a =  7.500      CL =  1.0800
      Cm = -0.0164     CD =  0.02538   =>   CDf =  0.00834    CDp =  0.01703

 Side 1  free  transition at x/c =  0.3161   50
 Side 2 forced transition at x/c =  1.0000   70

   5   rms: 0.3893E-05   max: 0.1532E-04   D at   86  1
       a =  7.500      CL =  1.0800
      Cm = -0.0164     CD =  0.02538   =>   CDf =  0.00834    CDp =  0.01703
 plradd ia,ip,cpol           24           0  8.87846947E-02

 Point added to stored polar  1
 Point written to save file  mh82_Re150k.base.pol                            
 Dump file unspecified or not available
 Calculating wake trajectory ...
 Calculating source influence matrix ...

 Solving BL system ...

 Side 1  free  transition at x/c =  0.3161   50
 Side 2 forced transition at x/c =  1.0000   70

   1   rms: 0.7361E-01   max: -.1036E+00   C at   70  2
       a =  8.000      CL =  1.1278
      Cm = -0.0160     CD =  0.02673   =>   CDf =  0.00811    CDp =  0.01863

 Side 1  free  transition at x/c =  0.3089   51
 Side 2 forced transition at x/c =  1.0000   69

   2   rms: 0.3372E-01   max: -.1617E+00   D at   52  1
       a =  8.000      CL =  1.1311
      Cm = -0.0161     CD =  0.02630   =>   CDf =  0.00828    CDp =  0.01802

 Side 1  free  transition at x/c =  0.3100   51
 Side 2 forced transition at x/c =  1.0000   69

   3   rms: 0.1775E-02   max: -.1509E-01   D at    4  1
       a =  8.000      CL =  1.1312
      Cm = -0.0161     CD =  0.02635   =>   CDf =  0.00836    CDp =  0.01800

 Side 1  free  transition at x/c =  0.3100   51
 Side 2 forced transition at x/c =  1.0000   69

   4   rms: 0.5062E-05   max: -.4979E-04   D at    7  1
       a =  8.000      CL =  1.1312
      Cm = -0.0161     CD =  0.02635   =>   CDf =  0.00836    CDp =  0.01800
 plradd ia,ip,cpol           25           0  8.87846947E-02

 Point added to stored polar  1
 Point written to save file  mh82_Re150k.base.pol                            
 Dump file unspecified or not available
 Calculating wake trajectory ...
 Calculating source influence matrix ...

 Solving BL system ...

 Side 1  free  transition at x/c =  0.3100   51
 Side 2 forced transition at x/c =  1.0000   69

   1   rms: 0.7732E-01   max: 0.3077E+00   T at   51  1
       a =  8.500      CL =  1.1859
      Cm = -0.0159     CD =  0.02723   =>   CDf =  0.00809    CDp =  0.01914

 Side 1  free  transition at x/c =  0.3055   51
 Side 2 forced transition at x/c =  1.0000   68

   2   rms: 0.3008E-01   max: 0.2441E+00   D at   52  1
       a =  8.500      CL =  1.1737
      Cm = -0.0155     CD =  0.02830   =>   CDf =  0.00822    CDp =  0.02008

 Side 1  free  transition at x/c =  0.3028   51
 Side 2 forced transition at x/c =  1.0000   68

   3   rms: 0.6926E-02   max: 0.2903E-01   D at   52  1
       a =  8.500      CL =  1.1740
      Cm = -0.0155     CD =  0.02823   =>   CDf =  0.00810    CDp =  0.02013

 Side 1  free  transition at x/c =  0.3025   51
 Side 2 forced transition at x/c =  1.0000   68

   4   rms: 0.1005E-03   max: 0.5849E-03   D at   53  1
       a =  8.500      CL =  1.1740
      Cm = -0.0155     CD =  0.02822   =>   CDf =  0.00806    CDp =  0.02016

 Side 1  free  transition at x/c =  0.3025   51
 Side 2 forced transition at x/c =  1.0000   68

   5   rms: 0.1637E-05   max: 0.7682E-05   T at   51  1
       a =  8.500      CL =  1.1740
      Cm = -0.0155     CD =  0.02822   =>   CDf =  0.00806    CDp =  0.02016
 plradd ia,ip,cpol           26           0  7.92054087E-02

 Point added to stored polar  1
 Point written to save file  mh82_Re150k.base.pol                            
 Dump file unspecified or not available
 Calculating wake trajectory ...
 Calculating source influence matrix ...

 Solving BL system ...

 Side 1  free  transition at x/c =  0.3025   51
 Side 2 forced transition at x/c =  1.0000   68

   1   rms: 0.7345E-01   max: 0.2917E+00   T at   51  1
       a =  9.000      CL =  1.2160
      Cm = -0.0149     CD =  0.03008   =>   CDf =  0.00807    CDp =  0.02201

 Side 1  free  transition at x/c =  0.2953   51
 Side 2 forced transition at x/c =  1.0000   68

   2   rms: 0.2642E-01   max: -.1220E+00   D at   52  1
       a =  9.000      CL =  1.2210
      Cm = -0.0151     CD =  0.02945   =>   CDf =  0.00786    CDp =  0.02159

 Side 1  free  transition at x/c =  0.2961   51
 Side 2 forced transition at x/c =  1.0000   68

   3   rms: 0.1793E-03   max: 0.2593E-02   D at   53  1
       a =  9.000      CL =  1.2210
      Cm = -0.0151     CD =  0.02952   =>   CDf =  0.00794    CDp =  0.02158

 Side 1  free  transition at x/c =  0.2961   51
 Side 2 forced transition at x/c =  1.0000   68

   4   rms: 0.1868E-05   max: -.6760E-05   D at   84  1
       a =  9.000      CL =  1.2210
      Cm = -0.0151     CD =  0.02952   =>   CDf =  0.00794    CDp =  0.02158
 plradd ia,ip,cpol           27           0  7.92054087E-02

 Point added to stored polar  1
 Point written to save file  mh82_Re150k.base.pol                            
 Dump file unspecified or not available
 Calculating wake trajectory ...
 Calculating source influence matrix ...

 Solving BL system ...

 Side 1  free  transition at x/c =  0.2961   51
 Side 2 forced transition at x/c =  1.0000   68

   1   rms: 0.7462E-01   max: 0.2736E+00   T at   51  1
       a =  9.500      CL =  1.2733
      Cm = -0.0148     CD =  0.03034   =>   CDf =  0.00763    CDp =  0.02272

 Side 1  free  transition at x/c =  0.2911   51
 Side 2 forced transition at x/c =  1.0000   67

   2   rms: 0.1537E-01   max: 0.8869E-01   D at   53  1
       a =  9.500      CL =  1.2633
      Cm = -0.0144     CD =  0.03138   =>   CDf =  0.00787    CDp =  0.02351

 Side 1  free  transition at x/c =  0.2897   51
 Side 2 forced transition at x/c =  1.0000   67

   3   rms: 0.1708E-02   max: -.8740E-02   D at    4  1
       a =  9.500      CL =  1.2636
      Cm = -0.0145     CD =  0.03138   =>   CDf =  0.00776    CDp =  0.02362

 Side 1  free  transition at x/c =  0.2896   51
 Side 2 forced transition at x/c =  1.0000   67

   4   rms: 0.1955E-04   max: -.9328E-04   D at   95  1
       a =  9.500      CL =  1.2635
      Cm = -0.0145     CD =  0.03138   =>   CDf =  0.00776    CDp =  0.02362
 plradd ia,ip,cpol           28           0  7.01381490E-02

 Point added to stored polar  1
 Point written to save file  mh82_Re150k.base.pol                            
 Dump file unspecified or not available
 Calculating wake trajectory ...
 Calculating source influence matrix ...

 Solving BL system ...

 Side 1  free  transition at x/c =  0.2896   51
 Side 2 forced transition at x/c =  1.0000   67

   1   rms: 0.8345E-01   max: 0.3838E+00   T at   51  1
       a = 10.000      CL =  1.2874
      Cm = -0.0131     CD =  0.03472   =>   CDf =  0.00777    CDp =  0.02695

 Side 1  free  transition at x/c =  0.2811   51
 Side 2 forced transition at x/c =  1.0000   67

   2   rms: 0.4507E-01   max: -.1899E+00   D at   53  1
       a = 10.000      CL =  1.3002
      Cm = -0.0135     CD =  0.03326   =>   CDf =  0.00690    CDp =  0.02635

 Side 1  free  transition at x/c =  0.2825   52
 Side 2 forced transition at x/c =  1.0000   66

   3   rms: 0.2485E-02   max: 0.1815E-01   D at   54  1
       a = 10.000      CL =  1.3007
      Cm = -0.0136     CD =  0.03342   =>   CDf =  0.00747    CDp =  0.02594

 Side 1  free  transition at x/c =  0.2824   52
 Side 2 forced transition at x/c =  1.0000   66

   4   rms: 0.1272E-02   max: -.1667E-01   D at    4  1
       a = 10.000      CL =  1.3007
      Cm = -0.0136     CD =  0.03341   =>   CDf =  0.00746    CDp =  0.02595

 Side 1  free  transition at x/c =  0.2824   52
 Side 2 forced transition at x/c =  1.0000   66

   5   rms: 0.1572E-05   max: 0.1825E-04   D at    6  1
       a = 10.000      CL =  1.3007
      Cm = -0.0136     CD =  0.03341   =>   CDf =  0.00746    CDp =  0.02595
 plradd ia,ip,cpol           29           0  6.16493821E-02

 Point added to stored polar  1
 Point written to save file  mh82_Re150k.base.pol                            
 Dump file unspecified or not available

.OPERva   c>  
 Solving BL system ...

 Side 1  free  transition at x/c =  0.2824   52
 Side 2 forced transition at x/c =  1.0000   66

   1   rms: 0.7420E-06   max: -.6790E-05   D at    4  1
       a = 10.000      CL =  1.3007
      Cm = -0.0136     CD =  0.03341   =>   CDf =  0.00746    CDp =  0.02595
 plradd ia,ip,cpol           30         182  6.16493821E-02

 Point added to stored polar  1
 Point written to save file  mh82_Re150k.base.pol                            
 Dump file unspecified or not available
 Calculating wake trajectory ...
 Calculating source influence matrix ...

 Solving BL system ...

 Side 1  free  transition at x/c =  0.2824   52
 Side 2 forced transition at x/c =  1.0000   66

   1   rms: 0.3590E-01   max: 0.1334E+00   T at   52  1
       a = 10.250      CL =  1.3247
      Cm = -0.0133     CD =  0.03394   =>   CDf =  0.00746    CDp =  0.02647

 Side 1  free  transition at x/c =  0.2794   52
 Side 2 forced transition at x/c =  1.0000   66

   2   rms: 0.1251E-01   max: -.5005E-01   D at   53  1
       a = 10.250      CL =  1.3272
      Cm = -0.0135     CD =  0.03369   =>   CDf =  0.00745    CDp =  0.02624

 Side 1  free  transition at x/c =  0.2797   52
 Side 2 forced transition at x/c =  1.0000   66

   3   rms: 0.1288E-03   max: -.4474E-03   D at   79  2
       a = 10.250      CL =  1.3273
      Cm = -0.0135     CD =  0.03373   =>   CDf =  0.00749    CDp =  0.02624

 Side 1  free  transition at x/c =  0.2797   52
 Side 2 forced transition at x/c =  1.0000   66

   4   rms: 0.1209E-05   max: 0.5900E-05   T at   52  1
       a = 10.250      CL =  1.3273
      Cm = -0.0135     CD =  0.03373   =>   CDf =  0.00749    CDp =  0.02624
 plradd ia,ip,cpol           31           0  6.16493821E-02

 Point added to stored polar  1
 Point written to save file  mh82_Re150k.base.pol                            
 Dump file unspecified or not available
 Calculating wake trajectory ...
 Calculating source influence matrix ...

 Solving BL system ...

 Side 1  free  transition at x/c =  0.2797   52
 Side 2 forced transition at x/c =  1.0000   66

   1   rms: 0.3944E-01   max: 0.1484E+00   T at   52  1
       a = 10.500      CL =  1.3557
      Cm = -0.0134     CD =  0.03397   =>   CDf =  0.00749    CDp =  0.02647

 Side 1  free  transition at x/c =  0.2773   51
 Side 2 forced transition at x/c =  1.0000   66

   2   rms: 0.3549E-02   max: 0.1912E-01   T at   51  1
       a = 10.500      CL =  1.3541
      Cm = -0.0135     CD =  0.03437   =>   CDf =  0.00755    CDp =  0.02682

 Side 1  free  transition at x/c =  0.2770   51
 Side 2 forced transition at x/c =  1.0000   66

   3   rms: 0.2292E-03   max: -.9227E-03   D at   52  1
       a = 10.500      CL =  1.3541
      Cm = -0.0135     CD =  0.03438   =>   CDf =  0.00755    CDp =  0.02683

 Side 1  free  transition at x/c =  0.2770   51
 Side 2 forced transition at x/c =  1.0000   66

   4   rms: 0.2696E-05   max: 0.2332E-04   C at   66  2
       a = 10.500      CL =  1.3541
      Cm = -0.0135     CD =  0.03438   =>   CDf =  0.00755    CDp =  0.02683
 plradd ia,ip,cpol           32           0  5.37959784E-02

 Point added to stored polar  1
 Point written to save file  mh82_Re150k.base.pol                            
 Dump file unspecified or not available
 Calculating wake trajectory ...
 Calculating source influence matrix ...

 Solving BL system ...

 Side 1  free  transition at x/c =  0.2770   51
 Side 2 forced transition at x/c =  1.0000   66

   1   rms: 0.6162E-01   max: 0.2767E+00   T at   51  1
       a = 10.750      CL =  1.3464
      Cm = -0.0117     CD =  0.03724   =>   CDf =  0.00755    CDp =  0.02969

 Side 1  free  transition at x/c =  0.2722   51
 Side 2 forced transition at x/c =  1.0000   66

   2   rms: 0.2715E-01   max: -.9074E-01   D at   86  1
       a = 10.750      CL =  1.3529
      Cm = -0.0121     CD =  0.03662   =>   CDf =  0.00696    CDp =  0.02967

 Side 1  free  transition at x/c =  0.2727   51
 Side 2 forced transition at x/c =  1.0000   66

   3   rms: 0.1624E-02   max: 0.5138E-02   D at   54  1
       a = 10.750      CL =  1.3516
      Cm = -0.0121     CD =  0.03685   =>   CDf =  0.00711    CDp =  0.02974

 Side 1  free  transition at x/c =  0.2727   51
 Side 2 forced transition at x/c =  1.0000   66

   4   rms: 0.2901E-04   max: -.1009E-03   D at    4  2
       a = 10.750      CL =  1.3516
      Cm = -0.0121     CD =  0.03685   =>   CDf =  0.00710    CDp =  0.02975
 plradd ia,ip,cpol           33           0  5.37959784E-02

 Point added to stored polar  1
 Point written to save file  mh82_Re150k.base.pol                            
 Dump file unspecified or not available
 Calculating wake trajectory ...
 Calculating source influence matrix ...

 Solving BL system ...

 Side 1  free  transition at x/c =  0.2727   51
 Side 2 forced transition at x/c =  1.0000   66

   1   rms: 0.4024E-01   max: 0.1656E+00   T at   51  1
       a = 11.000      CL =  1.3563
      Cm = -0.0111     CD =  0.03901   =>   CDf =  0.00669    CDp =  0.03232

 Side 1  free  transition at x/c =  0.2687   52
 Side 2 forced transition at x/c =  1.0000   65

   2   rms: 0.1654E-01   max: -.5553E-01   D at   54  1
       a = 11.000      CL =  1.3627
      Cm = -0.0113     CD =  0.03821   =>   CDf =  0.00687    CDp =  0.03134

 Side 1  free  transition at x/c =  0.2691   52
 Side 2 forced transition at x/c =  1.0000   65

   3   rms: 0.1142E-02   max: -.1096E-01   D at    4  1
       a = 11.000      CL =  1.3632
      Cm = -0.0113     CD =  0.03827   =>   CDf =  0.00693    CDp =  0.03133

 Side 1  free  transition at x/c =  0.2691   52
 Side 2 forced transition at x/c =  1.0000   65

   4   rms: 0.1492E-04   max: 0.6492E-04   D at   72  2
       a = 11.000      CL =  1.3632
      Cm = -0.0113     CD =  0.03827   =>   CDf =  0.00693    CDp =  0.03134
 plradd ia,ip,cpol           34           0  4.66139875E-02

 Point added to stored polar  1
 Point written to save file  mh82_Re150k.base.pol                            
 Dump file unspecified or not available
 Calculating wake trajectory ...
 Calculating source influence matrix ...

 Solving BL system ...

 Side 1  free  transition at x/c =  0.2691   52
 Side 2 forced transition at x/c =  1.0000   65

   1   rms: 0.3390E-01   max: 0.1361E+00   T at   52  1
       a = 11.250      CL =  1.3833
      Cm = -0.0109     CD =  0.03902   =>   CDf =  0.00694    CDp =  0.03208

 Side 1  free  transition at x/c =  0.2658   52
 Side 2 forced transition at x/c =  1.0000   65

   2   rms: 0.1369E-01   max: -.4338E-01   D at   52  1
       a = 11.250      CL =  1.3865
      Cm = -0.0110     CD =  0.03860   =>   CDf =  0.00685    CDp =  0.03175

 Side 1  free  transition at x/c =  0.2661   52
 Side 2 forced transition at x/c =  1.0000   65

   3   rms: 0.2682E-03   max: -.1038E-02   D at   76  2
       a = 11.250      CL =  1.3867
      Cm = -0.0110     CD =  0.03866   =>   CDf =  0.00691    CDp =  0.03175

 Side 1  free  transition at x/c =  0.2661   52
 Side 2 forced transition at x/c =  1.0000   65

   4   rms: 0.4324E-05   max: -.1601E-04   D at   75  2
       a = 11.250      CL =  1.3867
      Cm = -0.0110     CD =  0.03866   =>   CDf =  0.00691    CDp =  0.03175
 plradd ia,ip,cpol           35           0  4.66139875E-02

 Point added to stored polar  1
 Point written to save file  mh82_Re150k.base.pol                            
 Dump file unspecified or not available
 Calculating wake trajectory ...
 Calculating source influence matrix ...

 Solving BL system ...

 Side 1  free  transition at x/c =  0.2661   52
 Side 2 forced transition at x/c =  1.0000   65

   1   rms: 0.4018E-01   max: 0.1402E+00   T at   52  1
       a = 11.500      CL =  1.4158
      Cm = -0.0109     CD =  0.03863   =>   CDf =  0.00691    CDp =  0.03171

 Side 1  free  transition at x/c =  0.2634   52
 Side 2 forced transition at x/c =  1.0000   65

   2   rms: 0.1347E-01   max: -.4285E-01   D at   53  1
       a = 11.500      CL =  1.4196
      Cm = -0.0111     CD =  0.03847   =>   CDf =  0.00694    CDp =  0.03154

 Side 1  free  transition at x/c =  0.2635   52
 Side 2 forced transition at x/c =  1.0000   65

   3   rms: 0.1116E-03   max: 0.5178E-03   D at   97  1
       a = 11.500      CL =  1.4196
      Cm = -0.0111     CD =  0.03855   =>   CDf =  0.00699    CDp =  0.03155

 Side 1  free  transition at x/c =  0.2635   52
 Side 2 forced transition at x/c =  1.0000   65

   4   rms: 0.2340E-05   max: 0.7307E-05   D at   79  2
       a = 11.500      CL =  1.4196
      Cm = -0.0111     CD =  0.03855   =>   CDf =  0.00699    CDp =  0.03155
 plradd ia,ip,cpol           36           0  4.66139875E-02

 Point added to stored polar  1
 Point written to save file  mh82_Re150k.base.pol                            
 Dump file unspecified or not available
 Calculating wake trajectory ...
 Calculating source influence matrix ...

 Solving BL system ...

 Side 1  free  transition at x/c =  0.2635   52
 Side 2 forced transition at x/c =  1.0000   65

   1   rms: 0.4617E-01   max: 0.1696E+00   T at   52  1
       a = 11.750      CL =  1.4547
      Cm = -0.0115     CD =  0.03851   =>   CDf =  0.00655    CDp =  0.03196

 Side 1  free  transition at x/c =  0.2615   52
 Side 2 forced transition at x/c =  1.0000   64

   2   rms: 0.4714E-01   max: 0.1726E+00   D at   54  1
       a = 11.750      CL =  1.4245
      Cm = -0.0100     CD =  0.04065   =>   CDf =  0.00698    CDp =  0.03367

 Side 1  free  transition at x/c =  0.2604   52
 Side 2 forced transition at x/c =  1.0000   64

   3   rms: 0.1379E-01   max: 0.4022E-01   D at   54  1
       a = 11.750      CL =  1.4164
      Cm = -0.0098     CD =  0.04114   =>   CDf =  0.00677    CDp =  0.03437

 Side 1  free  transition at x/c =  0.2601   52
 Side 2 forced transition at x/c =  1.0000   64

   4   rms: 0.8957E-03   max: 0.3190E-02   D at   73  2
       a = 11.750      CL =  1.4158
      Cm = -0.0097     CD =  0.04111   =>   CDf =  0.00671    CDp =  0.03440

 Side 1  free  transition at x/c =  0.2601   52
 Side 2 forced transition at x/c =  1.0000   64

   5   rms: 0.2750E-04   max: -.8352E-04   C at   64  2
       a = 11.750      CL =  1.4158
      Cm = -0.0097     CD =  0.04111   =>   CDf =  0.00671    CDp =  0.03440
 plradd ia,ip,cpol           37           0  4.01245691E-02

 Point added to stored polar  1
 Point written to save file  mh82_Re150k.base.pol                            
 Dump file unspecified or not available
 Calculating wake trajectory ...
 Calculating source influence matrix ...

 Solving BL system ...

 Side 1  free  transition at x/c =  0.2601   52
 Side 2 forced transition at x/c =  1.0000   64
 idif Ue xi dudx           1  7.84370974E-02  4.30345535E-03   18.226540    
 Uenew xinew           2  2.31400318E-03  1.26957893E-04

   1   rms: 0.8195E-01   max: 0.2610E+00   D at   81  1
       a = 12.000      CL =  1.3787
      Cm = -0.0070     CD =  0.04625   =>   CDf =  0.00718    CDp =  0.03907

 Side 1  free  transition at x/c =  0.2556   51
 Side 2 forced transition at x/c =  1.0000   65

   2   rms: 0.3163E-01   max: -.4348E+00   D at    2  2
       a = 12.000      CL =  1.3631
      Cm = -0.0065     CD =  0.04639   =>   CDf =  0.00627    CDp =  0.04012

 Side 1  free  transition at x/c =  0.2562   51
 Side 2 forced transition at x/c =  1.0000   65

   3   rms: 0.3458E-02   max: -.2871E-01   D at    4  2
       a = 12.000      CL =  1.3653
      Cm = -0.0065     CD =  0.04625   =>   CDf =  0.00633    CDp =  0.03992

 Side 1  free  transition at x/c =  0.2562   51
 Side 2 forced transition at x/c =  1.0000   65

   4   rms: 0.5684E-03   max: -.1549E-02   D at   90  1
       a = 12.000      CL =  1.3657
      Cm = -0.0066     CD =  0.04624   =>   CDf =  0.00634    CDp =  0.03990

 Side 1  free  transition at x/c =  0.2562   51
 Side 2 forced transition at x/c =  1.0000   65

   5   rms: 0.5829E-04   max: -.1452E-03   D at   75  2
       a = 12.000      CL =  1.3658
      Cm = -0.0066     CD =  0.04624   =>   CDf =  0.00634    CDp =  0.03990
 plradd ia,ip,cpol           38           0  4.01245691E-02

 Point added to stored polar  1
 Point written to save file  mh82_Re150k.base.pol                            
 Dump file unspecified or not available
 Calculating wake trajectory ...
 Calculating source influence matrix ...

 Solving BL system ...

 Side 1  free  transition at x/c =  0.2562   51
 Side 2 forced transition at x/c =  1.0000   65

   1   rms: 0.1135E+00   max: 0.3367E+00   D at   78  1
       a = 12.250      CL =  1.2903
      Cm = -0.0034     CD =  0.05408   =>   CDf =  0.00635    CDp =  0.04773

 Side 1  free  transition at x/c =  0.2529   51
 Side 2 forced transition at x/c =  1.0000   65

   2   rms: 0.9665E-01   max: -.2943E+00   D at   68  1
       a = 12.250      CL =  1.3619
      Cm = -0.0040     CD =  0.04590   =>   CDf =  0.00568    CDp =  0.04022

 Side 1  free  transition at x/c =  0.2541   52
 Side 2 forced transition at x/c =  1.0000   64
 idif Ue xi dudx           1  7.95646086E-02  4.37796116E-03   18.173895    
 Uenew xinew           2  3.66138015E-03  2.01463699E-04

   3   rms: 0.1836E+00   max: -.2916E+01   D at    2  1   RLX: 0.171
       a = 12.250      CL =  1.3565
      Cm = -0.0061     CD =  0.04937   =>   CDf =  0.00671    CDp =  0.04266

 Side 1  free  transition at x/c =  0.2538   51
 Side 2 forced transition at x/c =  1.0000   65

   4   rms: 0.1382E+00   max: -.1436E+01   D at    2  2   RLX: 0.348
       a = 12.250      CL =  1.3274
      Cm = -0.0062     CD =  0.05186   =>   CDf =  0.00622    CDp =  0.04563

 Side 1  free  transition at x/c =  0.2533   51
 Side 2 forced transition at x/c =  1.0000   65

   5   rms: 0.1405E+00   max: -.4092E+00   D at   71  1
       a = 12.250      CL =  1.4233
      Cm = -0.0034     CD =  0.04044   =>   CDf =  0.00570    CDp =  0.03474

 Side 1  free  transition at x/c =  0.2546   52
 Side 2 forced transition at x/c =  1.0000   64

   6   rms: 0.5958E-01   max: 0.1758E+00   D at   88  1
       a = 12.250      CL =  1.3776
      Cm = -0.0057     CD =  0.04762   =>   CDf =  0.00635    CDp =  0.04127

 Side 1  free  transition at x/c =  0.2530   52
 Side 2 forced transition at x/c =  1.0000   64
 idif Ue xi dudx           1  8.25202614E-02  4.55057621E-03   18.134026    
 Uenew xinew           2  6.78355340E-03  3.74078751E-04

   7   rms: 0.4357E-01   max: 0.1313E+00   D at   90  1
       a = 12.250      CL =  1.3453
      Cm = -0.0052     CD =  0.04979   =>   CDf =  0.00671    CDp =  0.04308

 Side 1  free  transition at x/c =  0.2531   51
 Side 2 forced transition at x/c =  1.0000   65

   8   rms: 0.9503E-01   max: -.5560E+00   T at    2  2   RLX: 0.899
       a = 12.250      CL =  1.2885
      Cm = -0.0061     CD =  0.05525   =>   CDf =  0.00621    CDp =  0.04904

 Side 1  free  transition at x/c =  0.2525   51
 Side 2 forced transition at x/c =  1.0000   65

[...]
       a = 14.500      CL =  0.8271
      Cm = -0.0625     CD =  0.17617   =>   CDf =  0.00566    CDp =  0.17052

 Side 1  free  transition at x/c =  0.2165   45
 Side 2 forced transition at x/c =  1.0000   68

 131   rms: 0.3967E+00   max: -.4290E+01   T at   45  1   RLX: 0.117
       a = 14.500      CL =  0.8359
      Cm = -0.0565     CD =  0.16660   =>   CDf =  0.00567    CDp =  0.16093

 Side 1  free  transition at x/c =  0.2118   45
 Side 2 forced transition at x/c =  1.0000   68

 132   rms: 0.5306E-01   max: -.5259E+00   D at   45  1   RLX: 0.951
       a = 14.500      CL =  0.8271
      Cm = -0.0625     CD =  0.17616   =>   CDf =  0.00566    CDp =  0.17050

 Side 1  free  transition at x/c =  0.2165   45
 Side 2 forced transition at x/c =  1.0000   68

 133   rms: 0.4420E+00   max: -.4778E+01   T at   45  1   RLX: 0.105
       a = 14.500      CL =  0.8358
      Cm = -0.0564     CD =  0.16657   =>   CDf =  0.00567    CDp =  0.16091

 Side 1  free  transition at x/c =  0.2118   45
 Side 2 forced transition at x/c =  1.0000   68

 134   rms: 0.5307E-01   max: -.5261E+00   D at   45  1   RLX: 0.950
       a = 14.500      CL =  0.8271
      Cm = -0.0625     CD =  0.17616   =>   CDf =  0.00566    CDp =  0.17051

 Side 1  free  transition at x/c =  0.2165   45
 Side 2 forced transition at x/c =  1.0000   68

 135   rms: 0.4112E+00   max: -.4442E+01   T at   45  1   RLX: 0.113
       a = 14.500      CL =  0.8359
      Cm = -0.0565     CD =  0.16659   =>   CDf =  0.00567    CDp =  0.16092

 Side 1  free  transition at x/c =  0.2118   45
 Side 2 forced transition at x/c =  1.0000   68

 136   rms: 0.5312E-01   max: -.5260E+00   D at   45  1   RLX: 0.951
       a = 14.500      CL =  0.8271
      Cm = -0.0625     CD =  0.17617   =>   CDf =  0.00566    CDp =  0.17052

 Side 1  free  transition at x/c =  0.2165   45
 Side 2 forced transition at x/c =  1.0000   68

 137   rms: 0.4360E+00   max: -.4713E+01   T at   45  1   RLX: 0.106
       a = 14.500      CL =  0.8358
      Cm = -0.0564     CD =  0.16657   =>   CDf =  0.00567    CDp =  0.16091

 Side 1  free  transition at x/c =  0.2118   45
 Side 2 forced transition at x/c =  1.0000   68

 138   rms: 0.5309E-01   max: -.5261E+00   D at   45  1   RLX: 0.950
       a = 14.500      CL =  0.8271
      Cm = -0.0625     CD =  0.17617   =>   CDf =  0.00566    CDp =  0.17051

 Side 1  free  transition at x/c =  0.2165   45
 Side 2 forced transition at x/c =  1.0000   68

 139   rms: 0.4103E+00   max: -.4432E+01   T at   45  1   RLX: 0.113
       a = 14.500      CL =  0.8359
      Cm = -0.0565     CD =  0.16659   =>   CDf =  0.00567    CDp =  0.16092

 Side 1  free  transition at x/c =  0.2118   45
 Side 2 forced transition at x/c =  1.0000   68

 140   rms: 0.5313E-01   max: -.5260E+00   D at   45  1   RLX: 0.951
       a = 14.500      CL =  0.8271
      Cm = -0.0625     CD =  0.17617   =>   CDf =  0.00566    CDp =  0.17052

 Side 1  free  transition at x/c =  0.2165   45
 Side 2 forced transition at x/c =  1.0000   68

 141   rms: 0.4284E+00   max: -.4620E+01   T at   45  1   RLX: 0.108
       a = 14.500      CL =  0.8359
      Cm = -0.0565     CD =  0.16661   =>   CDf =  0.00567    CDp =  0.16094

 Side 1  free  transition at x/c =  0.2118   45
 Side 2 forced transition at x/c =  1.0000   68

 142   rms: 0.5325E-01   max: -.5260E+00   D at   45  1   RLX: 0.951
       a = 14.500      CL =  0.8270
      Cm = -0.0625     CD =  0.17618   =>   CDf =  0.00566    CDp =  0.17053

 Side 1  free  transition at x/c =  0.2165   45
 Side 2 forced transition at x/c =  1.0000   68

 143   rms: 0.4040E+00   max: -.4365E+01   T at   45  1   RLX: 0.115
       a = 14.500      CL =  0.8359
      Cm = -0.0565     CD =  0.16662   =>   CDf =  0.00567    CDp =  0.16095

 Side 1  free  transition at x/c =  0.2118   45
 Side 2 forced transition at x/c =  1.0000   68

 144   rms: 0.5308E-01   max: -.5260E+00   D at   45  1   RLX: 0.951
       a = 14.500      CL =  0.8271
      Cm = -0.0625     CD =  0.17617   =>   CDf =  0.00566    CDp =  0.17051

 Side 1  free  transition at x/c =  0.2165   45
 Side 2 forced transition at x/c =  1.0000   68

 145   rms: 0.4392E+00   max: -.4723E+01   T at   45  1   RLX: 0.106
       a = 14.500      CL =  0.8360
      Cm = -0.0565     CD =  0.16661   =>   CDf =  0.00567    CDp =  0.16094

 Side 1  free  transition at x/c =  0.2118   45
 Side 2 forced transition at x/c =  1.0000   68

 146   rms: 0.5347E-01   max: -.5261E+00   D at   45  1   RLX: 0.950
       a = 14.500      CL =  0.8270
      Cm = -0.0625     CD =  0.17620   =>   CDf =  0.00566    CDp =  0.17055

 Side 1  free  transition at x/c =  0.2165   45
 Side 2 forced transition at x/c =  1.0000   68

 147   rms: 0.3937E+00   max: -.4255E+01   T at   45  1   RLX: 0.118
       a = 14.500      CL =  0.8359
      Cm = -0.0565     CD =  0.16660   =>   CDf =  0.00567    CDp =  0.16093

 Side 1  free  transition at x/c =  0.2118   45
 Side 2 forced transition at x/c =  1.0000   68

 148   rms: 0.5306E-01   max: -.5260E+00   D at   45  1   RLX: 0.951
       a = 14.500      CL =  0.8271
      Cm = -0.0625     CD =  0.17616   =>   CDf =  0.00566    CDp =  0.17051

 Side 1  free  transition at x/c =  0.2165   45
 Side 2 forced transition at x/c =  1.0000   68

 149   rms: 0.4265E+00   max: -.4610E+01   T at   45  1   RLX: 0.108
       a = 14.500      CL =  0.8358
      Cm = -0.0565     CD =  0.16657   =>   CDf =  0.00567    CDp =  0.16090

 Side 1  free  transition at x/c =  0.2118   45
 Side 2 forced transition at x/c =  1.0000   68

 150   rms: 0.5309E-01   max: -.5260E+00   D at   45  1   RLX: 0.951
       a = 14.500      CL =  0.8271
      Cm = -0.0625     CD =  0.17617   =>   CDf =  0.00566    CDp =  0.17051

 Side 1  free  transition at x/c =  0.2165   45
 Side 2 forced transition at x/c =  1.0000   68

 151   rms: 0.4252E+00   max: -.4594E+01   T at   45  1   RLX: 0.109
       a = 14.500      CL =  0.8359
      Cm = -0.0565     CD =  0.16658   =>   CDf =  0.00567    CDp =  0.16091

 Side 1  free  transition at x/c =  0.2118   45
 Side 2 forced transition at x/c =  1.0000   68

 152   rms: 0.5312E-01   max: -.5260E+00   D at   45  1   RLX: 0.951
       a = 14.500      CL =  0.8271
      Cm = -0.0625     CD =  0.17618   =>   CDf =  0.00566    CDp =  0.17052

 Side 1  free  transition at x/c =  0.2165   45
 Side 2 forced transition at x/c =  1.0000   68

 153   rms: 0.4308E+00   max: -.4654E+01   T at   45  1   RLX: 0.107
       a = 14.500      CL =  0.8358
      Cm = -0.0565     CD =  0.16658   =>   CDf =  0.00567    CDp =  0.16092

 Side 1  free  transition at x/c =  0.2118   45
 Side 2 forced transition at x/c =  1.0000   68

 154   rms: 0.5312E-01   max: -.5260E+00   D at   45  1   RLX: 0.950
       a = 14.500      CL =  0.8271
      Cm = -0.0625     CD =  0.17617   =>   CDf =  0.00566    CDp =  0.17052

 Side 1  free  transition at x/c =  0.2165   45
 Side 2 forced transition at x/c =  1.0000   68

 155   rms: 0.4188E+00   max: -.4523E+01   T at   45  1   RLX: 0.111
       a = 14.500      CL =  0.8359
      Cm = -0.0565     CD =  0.16659   =>   CDf =  0.00567    CDp =  0.16093
 VISCAL:  Convergence failed
 Calculating wake trajectory ...
 Calculating source influence matrix ...

 Solving BL system ...

 Side 1  free  transition at x/c =  0.2118   45
 Side 2 forced transition at x/c =  1.0000   68

   1   rms: 0.6031E-01   max: -.5049E+00   D at   45  1   RLX: 0.422
       a = 14.750      CL =  0.8484
      Cm = -0.0648     CD =  0.17078   =>   CDf =  0.00566    CDp =  0.16512

 Side 1  free  transition at x/c =  0.2127   45
 Side 2 forced transition at x/c =  1.0000   68

   2   rms: 0.3266E-01   max: -.3965E+00   D at   45  1
       a = 14.750      CL =  0.8341
      Cm = -0.0635     CD =  0.17782   =>   CDf =  0.00564    CDp =  0.17218

 Side 1  free  transition at x/c =  0.2101   45
 Side 2 forced transition at x/c =  1.0000   68

   3   rms: 0.1445E-01   max: -.2437E+00   D at   45  1
       a = 14.750      CL =  0.8326
      Cm = -0.0629     CD =  0.17168   =>   CDf =  0.00563    CDp =  0.16605

 Side 1  free  transition at x/c =  0.2112   45
 Side 2 forced transition at x/c =  1.0000   68

   4   rms: 0.5436E-02   max: -.3077E-01   D at   45  1
       a = 14.750      CL =  0.8356
      Cm = -0.0628     CD =  0.17167   =>   CDf =  0.00564    CDp =  0.16603

 Side 1  free  transition at x/c =  0.2115   45
 Side 2 forced transition at x/c =  1.0000   68

   5   rms: 0.9734E-03   max: -.5729E-02   D at   88  2
       a = 14.750      CL =  0.8361
      Cm = -0.0628     CD =  0.17221   =>   CDf =  0.00564    CDp =  0.16657

 Side 1  free  transition at x/c =  0.2115   45
 Side 2 forced transition at x/c =  1.0000   68

   6   rms: 0.7659E-04   max: -.5969E-03   D at   89  2
       a = 14.750      CL =  0.8361
      Cm = -0.0628     CD =  0.17229   =>   CDf =  0.00564    CDp =  0.16666
 plradd ia,ip,cpol           45           0  2.91757584E-02

 Point added to stored polar  1
 Point written to save file  mh82_Re150k.base.pol                            
 Dump file unspecified or not available
 Calculating wake trajectory ...
 Calculating source influence matrix ...

 Solving BL system ...

 Side 1  free  transition at x/c =  0.2115   45
 Side 2 forced transition at x/c =  1.0000   68

   1   rms: 0.3040E-01   max: 0.3805E+00   T at   45  1   RLX: 0.418
       a = 15.000      CL =  0.8411
      Cm = -0.0631     CD =  0.17358   =>   CDf =  0.00564    CDp =  0.16794

 Side 1  free  transition at x/c =  0.2097   45
 Side 2 forced transition at x/c =  1.0000   68

   2   rms: 0.2148E-01   max: 0.1870E+00   T at   45  1
       a = 15.000      CL =  0.8520
      Cm = -0.0629     CD =  0.17393   =>   CDf =  0.00562    CDp =  0.16830

 Side 1  free  transition at x/c =  0.2078   45
 Side 2 forced transition at x/c =  1.0000   68

   3   rms: 0.7677E-02   max: -.4716E-01   D at   45  1
       a = 15.000      CL =  0.8526
      Cm = -0.0627     CD =  0.17291   =>   CDf =  0.00559    CDp =  0.16732

 Side 1  free  transition at x/c =  0.2081   45
 Side 2 forced transition at x/c =  1.0000   68

   4   rms: 0.2591E-02   max: -.1185E-01   D at   88  2
       a = 15.000      CL =  0.8543
      Cm = -0.0627     CD =  0.17385   =>   CDf =  0.00559    CDp =  0.16825

 Side 1  free  transition at x/c =  0.2080   45
 Side 2 forced transition at x/c =  1.0000   68

   5   rms: 0.2804E-03   max: -.1799E-02   D at   88  2
       a = 15.000      CL =  0.8544
      Cm = -0.0627     CD =  0.17407   =>   CDf =  0.00559    CDp =  0.16848

 Side 1  free  transition at x/c =  0.2080   45
 Side 2 forced transition at x/c =  1.0000   68

   6   rms: 0.1704E-04   max: -.1160E-03   D at   89  2
       a = 15.000      CL =  0.8544
      Cm = -0.0627     CD =  0.17409   =>   CDf =  0.00559    CDp =  0.16850
 plradd ia,ip,cpol           46           0  2.91757584E-02

 Point added to stored polar  1
 Point written to save file  mh82_Re150k.base.pol                            
 Dump file unspecified or not available
 Calculating wake trajectory ...
 Calculating source influence matrix ...

 Solving BL system ...

 Side 1  free  transition at x/c =  0.2080   45
 Side 2 forced transition at x/c =  1.0000   68

   1   rms: 0.4845E-01   max: 0.3393E+00   T at   45  1   RLX: 0.419
       a = 15.250      CL =  0.8641
      Cm = -0.0623     CD =  0.17444   =>   CDf =  0.00559    CDp =  0.16884

 Side 1  free  transition at x/c =  0.2068   45
 Side 2 forced transition at x/c =  1.0000   68

   2   rms: 0.3961E-01   max: 0.1821E+00   T at   45  1
       a = 15.250      CL =  0.8846
      Cm = -0.0606     CD =  0.17290   =>   CDf =  0.00527    CDp =  0.16763

 Side 1  free  transition at x/c =  0.2054   45
 Side 2 forced transition at x/c =  1.0000   67

   3   rms: 0.4975E-01   max: 0.2161E+00   T at    2  1
       a = 15.250      CL =  0.9053
      Cm = -0.0579     CD =  0.16823   =>   CDf =  0.00554    CDp =  0.16269

 Side 1  free  transition at x/c =  0.2050   45
 Side 2 forced transition at x/c =  1.0000   67

   4   rms: 0.3465E-01   max: 0.1730E+00   D at   46  1
       a = 15.250      CL =  0.9063
      Cm = -0.0595     CD =  0.18021   =>   CDf =  0.00552    CDp =  0.17469

 Side 1  free  transition at x/c =  0.2054   45
 Side 2 forced transition at x/c =  1.0000   67

   5   rms: 0.7285E-02   max: 0.3657E-01   D at   87  2
       a = 15.250      CL =  0.9078
      Cm = -0.0585     CD =  0.17433   =>   CDf =  0.00550    CDp =  0.16883

 Side 1  free  transition at x/c =  0.2055   45
 Side 2 forced transition at x/c =  1.0000   67

   6   rms: 0.1786E-02   max: 0.8404E-02   D at   46  1
       a = 15.250      CL =  0.9083
      Cm = -0.0586     CD =  0.17466   =>   CDf =  0.00551    CDp =  0.16915

 Side 1  free  transition at x/c =  0.2055   45
 Side 2 forced transition at x/c =  1.0000   67

   7   rms: 0.2659E-03   max: 0.1861E-02   D at   87  2
       a = 15.250      CL =  0.9082
      Cm = -0.0585     CD =  0.17444   =>   CDf =  0.00551    CDp =  0.16893

 Side 1  free  transition at x/c =  0.2055   45
 Side 2 forced transition at x/c =  1.0000   67

   8   rms: 0.1623E-04   max: 0.6461E-04   C at   67  2
       a = 15.250      CL =  0.9082
      Cm = -0.0585     CD =  0.17443   =>   CDf =  0.00551    CDp =  0.16892
 plradd ia,ip,cpol           47           0  2.46493053E-02

 Point added to stored polar  1
 Point written to save file  mh82_Re150k.base.pol                            
 Dump file unspecified or not available
 Calculating wake trajectory ...
 Calculating source influence matrix ...

 Solving BL system ...

 Side 1  free  transition at x/c =  0.2055   45
 Side 2 forced transition at x/c =  1.0000   67

   1   rms: 0.3076E-01   max: 0.1347E+00   D at    3  2   RLX: 0.417
       a = 15.500      CL =  0.9051
      Cm = -0.0601     CD =  0.17835   =>   CDf =  0.00551    CDp =  0.17284

 Side 1  free  transition at x/c =  0.2052   45
 Side 2 forced transition at x/c =  1.0000   67

   2   rms: 0.3587E-01   max: 0.1181E+00   D at   46  1
       a = 15.500      CL =  0.8918
      Cm = -0.0633     CD =  0.18595   =>   CDf =  0.00549    CDp =  0.18046

 Side 1  free  transition at x/c =  0.2031   45
 Side 2 forced transition at x/c =  1.0000   67

   3   rms: 0.7098E-01   max: 0.2644E+00   D at   46  1
       a = 15.500      CL =  0.8622
      Cm = -0.0674     CD =  0.19362   =>   CDf =  0.00547    CDp =  0.18815

 Side 1  free  transition at x/c =  0.2002   45
 Side 2 forced transition at x/c =  1.0000   67
 idif Ue xi dudx           1  9.02930945E-02  3.13639641E-03   28.788801    
 Uenew xinew           2  3.76478606E-03  1.30772591E-04

   4   rms: 0.2215E-01   max: -.2375E+00   D at   45  1
       a = 15.500      CL =  0.8577
      Cm = -0.0673     CD =  0.18580   =>   CDf =  0.00578    CDp =  0.18002

 Side 1  free  transition at x/c =  0.2004   44
 Side 2 forced transition at x/c =  1.0000   68

   5   rms: 0.4256E-02   max: -.5651E-01   D at   44  1
       a = 15.500      CL =  0.8568
      Cm = -0.0671     CD =  0.18232   =>   CDf =  0.00551    CDp =  0.17680

 Side 1  free  transition at x/c =  0.2006   44
 Side 2 forced transition at x/c =  1.0000   68

   6   rms: 0.4447E-03   max: 0.5034E-02   D at    4  2
       a = 15.500      CL =  0.8568
      Cm = -0.0671     CD =  0.18191   =>   CDf =  0.00552    CDp =  0.17639

 Side 1  free  transition at x/c =  0.2006   44
 Side 2 forced transition at x/c =  1.0000   68

   7   rms: 0.3753E-04   max: -.2407E-03   D at   88  2
       a = 15.500      CL =  0.8569
      Cm = -0.0671     CD =  0.18194   =>   CDf =  0.00552    CDp =  0.17641
 plradd ia,ip,cpol           48           0  2.46493053E-02

 Point added to stored polar  1
 Point written to save file  mh82_Re150k.base.pol                            
 Dump file unspecified or not available
 Calculating wake trajectory ...
 Calculating source influence matrix ...

 Solving BL system ...

 Side 1  free  transition at x/c =  0.2006   44
 Side 2 forced transition at x/c =  1.0000   68

   1   rms: 0.3263E-01   max: 0.6146E+00   T at   44  1   RLX: 0.394
       a = 15.750      CL =  0.8580
      Cm = -0.0680     CD =  0.18390   =>   CDf =  0.00552    CDp =  0.17838

 Side 1  free  transition at x/c =  0.1982   44
 Side 2 forced transition at x/c =  1.0000   68

   2   rms: 0.1827E-01   max: 0.1917E+00   T at   44  1
       a = 15.750      CL =  0.8662
      Cm = -0.0682     CD =  0.18429   =>   CDf =  0.00521    CDp =  0.17908

 Side 1  free  transition at x/c =  0.1961   45
 Side 2 forced transition at x/c =  1.0000   67

   3   rms: 0.4791E-02   max: -.2462E-01   D at   46  1
       a = 15.750      CL =  0.8669
      Cm = -0.0680     CD =  0.18362   =>   CDf =  0.00548    CDp =  0.17814

 Side 1  free  transition at x/c =  0.1963   45
 Side 2 forced transition at x/c =  1.0000   67

   4   rms: 0.2040E-02   max: -.1962E-01   D at    4  1
       a = 15.750      CL =  0.8677
      Cm = -0.0680     CD =  0.18423   =>   CDf =  0.00547    CDp =  0.17876

 Side 1  free  transition at x/c =  0.1962   45
 Side 2 forced transition at x/c =  1.0000   67

   5   rms: 0.1129E-03   max: -.8321E-03   D at   87  2
       a = 15.750      CL =  0.8677
      Cm = -0.0680     CD =  0.18436   =>   CDf =  0.00547    CDp =  0.17889

 Side 1  free  transition at x/c =  0.1962   45
 Side 2 forced transition at x/c =  1.0000   67

   6   rms: 0.3956E-05   max: 0.4398E-04   C at   67  2
       a = 15.750      CL =  0.8677
      Cm = -0.0680     CD =  0.18437   =>   CDf =  0.00547    CDp =  0.17889
 plradd ia,ip,cpol           49           0  2.46493053E-02

 Point added to stored polar  1
 Point written to save file  mh82_Re150k.base.pol                            
 Dump file unspecified or not available
 Calculating wake trajectory ...
 Calculating source influence matrix ...

 Solving BL system ...

 Side 1  free  transition at x/c =  0.1962   45
 Side 2 forced transition at x/c =  1.0000   67

   1   rms: 0.3767E-01   max: 0.3384E+00   T at   45  1   RLX: 0.392
       a = 16.000      CL =  0.8739
      Cm = -0.0681     CD =  0.18522   =>   CDf =  0.00547    CDp =  0.17975

 Side 1  free  transition at x/c =  0.1949   45
 Side 2 forced transition at x/c =  1.0000   67

   2   rms: 0.2820E-01   max: 0.1968E+00   T at   45  1
       a = 16.000      CL =  0.8876
      Cm = -0.0675     CD =  0.18511   =>   CDf =  0.00546    CDp =  0.17965

 Side 1  free  transition at x/c =  0.1932   45
 Side 2 forced transition at x/c =  1.0000   67

   3   rms: 0.1980E-01   max: -.1093E+00   D at   45  1
       a = 16.000      CL =  0.8874
      Cm = -0.0671     CD =  0.18262   =>   CDf =  0.00542    CDp =  0.17720

 Side 1  free  transition at x/c =  0.1936   45
 Side 2 forced transition at x/c =  1.0000   67

   4   rms: 0.7392E-02   max: -.3191E-01   D at   87  2
       a = 16.000      CL =  0.8913
      Cm = -0.0670     CD =  0.18494   =>   CDf =  0.00543    CDp =  0.17952

 Side 1  free  transition at x/c =  0.1936   45
 Side 2 forced transition at x/c =  1.0000   67

   5   rms: 0.1436E-02   max: -.7986E-02   D at   88  2
       a = 16.000      CL =  0.8920
      Cm = -0.0670     CD =  0.18568   =>   CDf =  0.00542    CDp =  0.18027

 Side 1  free  transition at x/c =  0.1936   45
 Side 2 forced transition at x/c =  1.0000   67

   6   rms: 0.1845E-03   max: -.1056E-02   D at   88  2
       a = 16.000      CL =  0.8921
      Cm = -0.0670     CD =  0.18580   =>   CDf =  0.00541    CDp =  0.18039

 Side 1  free  transition at x/c =  0.1936   45
 Side 2 forced transition at x/c =  1.0000   67

   7   rms: 0.1482E-04   max: -.9008E-04   D at   88  2
       a = 16.000      CL =  0.8921
      Cm = -0.0670     CD =  0.18582   =>   CDf =  0.00541    CDp =  0.18040
 plradd ia,ip,cpol           50           0  2.06862539E-02

 Point added to stored polar  1
 Point written to save file  mh82_Re150k.base.pol                            
 Dump file unspecified or not available

.OPERva   c>  
 Polar accumulation disabled

.OPERv   c>  
 XFOIL   c>  
 XFOIL   c>  