  
       XFOIL         Version 6.99
  
 Calculated polar for: MH 82  13.31%                                   
  
 1 1 Reynolds number fixed          Mach number fixed         
  
 xtrf =   1.000 (top)        1.000 (bottom)  
 Mach =   0.000     Re =     0.600 e 6     Ncrit =   9.000
  
   alpha    CL        CD       CDp       CM     Top_Xtr  Bot_Xtr
  ------ -------- --------- --------- -------- -------- --------
-4.000  -0.1849   0.01432   0.00714  -0.0198   0.5038   0.0130
-3.500  -0.1300   0.01311   0.00575  -0.0190   0.4852   0.0132
-3.000  -0.0746   0.01222   0.00473  -0.0184   0.4678   0.0139
-2.500  -0.0188   0.01144   0.00382  -0.0179   0.4506   0.0158
-2.000   0.0377   0.01091   0.00320  -0.0175   0.4340   0.0203
-1.500   0.0931   0.01011   0.00265  -0.0170   0.4188   0.0941
-1.000   0.1487   0.00960   0.00248  -0.0169   0.4037   0.2120
-0.500   0.2019   0.00869   0.00238  -0.0166   0.3895   0.4709
0.000   0.2440   0.00750   0.00250  -0.0130   0.3776   0.8738
0.500   0.2998   0.00761   0.00259  -0.0117   0.3653   0.9589
1.000   0.3772   0.00783   0.00262  -0.0156   0.3519   0.9845
1.500   0.4635   0.00808   0.00264  -0.0216   0.3392   0.9958
2.000   0.5293   0.00823   0.00268  -0.0235   0.3290   1.0000
2.500   0.5794   0.00848   0.00282  -0.0223   0.3203   1.0000
3.000   0.6302   0.00873   0.00297  -0.0212   0.3122   1.0000
3.500   0.6816   0.00902   0.00319  -0.0202   0.3045   1.0000
4.000   0.7336   0.00930   0.00340  -0.0193   0.2973   1.0000
4.500   0.7861   0.00967   0.00371  -0.0187   0.2906   1.0000
5.000   0.8399   0.00995   0.00396  -0.0182   0.2841   1.0000
5.500   0.8929   0.01045   0.00437  -0.0179   0.2773   1.0000
6.000   0.9476   0.01071   0.00467  -0.0177   0.2722   1.0000
6.500   1.0016   0.01110   0.00505  -0.0175   0.2664   1.0000
7.000   1.0550   0.01160   0.00554  -0.0173   0.2607   1.0000
7.500   1.1091   0.01195   0.00595  -0.0172   0.2555   1.0000
8.000   1.1619   0.01247   0.00645  -0.0171   0.2500   1.0000
8.500   1.2146   0.01298   0.00702  -0.0170   0.2448   1.0000
9.000   1.2672   0.01342   0.00754  -0.0169   0.2397   1.0000
9.500   1.3172   0.01415   0.00823  -0.0165   0.2335   1.0000
10.000   1.3689   0.01461   0.00884  -0.0164   0.2290   1.0000
10.250   1.3942   0.01486   0.00914  -0.0163   0.2262   1.0000
10.500   1.4188   0.01516   0.00947  -0.0161   0.2234   1.0000
10.750   1.4419   0.01562   0.00990  -0.0158   0.2201   1.0000
11.000   1.4660   0.01594   0.01030  -0.0156   0.2176   1.0000
11.250   1.4904   0.01620   0.01065  -0.0154   0.2149   1.0000
11.500   1.5140   0.01651   0.01101  -0.0152   0.2119   1.0000
11.750   1.5362   0.01690   0.01142  -0.0148   0.2089   1.0000
12.000   1.5561   0.01748   0.01200  -0.0142   0.2054   1.0000
12.250   1.5787   0.01778   0.01241  -0.0139   0.2029   1.0000
12.500   1.6000   0.01816   0.01287  -0.0135   0.2000   1.0000
12.750   1.6194   0.01861   0.01337  -0.0128   0.1967   1.0000
13.000   1.6347   0.01928   0.01404  -0.0118   0.1933   1.0000
13.250   1.6499   0.01982   0.01467  -0.0107   0.1907   1.0000
13.500   1.6628   0.02038   0.01533  -0.0093   0.1877   1.0000
13.750   1.6726   0.02118   0.01619  -0.0080   0.1846   1.0000
14.000   1.6794   0.02230   0.01734  -0.0068   0.1815   1.0000
14.250   1.6868   0.02355   0.01865  -0.0060   0.1785   1.0000
14.500   1.6982   0.02464   0.01986  -0.0056   0.1753   1.0000
14.750   1.7055   0.02609   0.02137  -0.0052   0.1718   1.0000
15.000   1.7077   0.02806   0.02337  -0.0050   0.1684   1.0000
15.250   1.7133   0.02986   0.02527  -0.0049   0.1647   1.0000
15.500   1.7169   0.03195   0.02743  -0.0051   0.1597   1.0000
15.750   1.7148   0.03461   0.03014  -0.0053   0.1567   1.0000
16.000   1.7132   0.03734   0.03296  -0.0057   0.1519   1.0000
