
 ===================================================
  XFOIL Version 6.99
  Copyright (C) 2000   Mark Drela, Harold Youngren

  This software comes with ABSOLUTELY NO WARRANTY,
    subject to the GNU General Public License.

  Caveat computor
 ===================================================

 File  xfoil.def  not found

   QUIT    Exit program

  .OPER    Direct operating point(s)
  .MDES    Complex mapping design routine
  .QDES    Surface speed design routine
  .GDES    Geometry design routine

   SAVE f  Write airfoil to labeled coordinate file
   PSAV f  Write airfoil to plain coordinate file
   ISAV f  Write airfoil to ISES coordinate file
   MSAV f  Write airfoil to MSES coordinate file
   REVE    Reverse written-airfoil node ordering

   LOAD f  Read buffer airfoil from coordinate file
   NACA i  Set NACA 4,5-digit airfoil and buffer airfoil
   INTE    Set buffer airfoil by interpolating two airfoils
   NORM    Buffer airfoil normalization toggle
   XYCM rr Change CM reference location, currently  0.25000 0.00000

   BEND    Display structural properties of current airfoil

   PCOP    Set current-airfoil panel nodes directly from buffer airfoil points
   PANE    Set current-airfoil panel nodes ( 160 ) based on curvature
  .PPAR    Show/change paneling

  .PLOP    Plotting options

   WDEF f  Write  current-settings file
   RDEF f  Reread current-settings file
   NAME s  Specify new airfoil name
   NINC    Increment name version number

   Z       Zoom    | (available in all menus)
   U       Unzoom  | 

 XFOIL   c>  
 Labeled airfoil file.  Name:  MH 84  13.69%                                   

 Number of input coordinate points:  67
 Counterclockwise ordering
 Max thickness =     0.137258  at x =   0.201
 Max camber    =     0.047553  at x =   0.324

  LE  x,y  =  -0.00000   0.00001  |   Chord =   1.00000
  TE  x,y  =   1.00000   0.00000  |

 Current airfoil nodes set from buffer airfoil nodes (  67 )

 XFOIL   c>  
 XFOIL   c>  
 Sharp trailing edge

 Paneling parameters used...
   Number of panel nodes       160
   Panel bunching parameter    1.000
   TE/LE panel density ratio   0.150
   Refined-area/LE panel density ratio    0.200
   Top    side refined area x/c limits  1.000 1.000
   Bottom side refined area x/c limits  1.000 1.000

 XFOIL   c>  
.OPERi   c>  
 Xtr/c     =  1.0000    top    side
 Xtr/c     =  1.0000    bottom side
 Ncrit     =    9.00   ( 0.070 % turb. level )
 Vacc      =  0.0100

 Klag  =  5.6000     Uxwt  =    1.00
 A     =  6.7000     B     =  0.7500       KCt = 0.01485
 CtiniK=  1.8000     CtiniX=  3.3000

..VPAR   c>  
..VPAR   c>  
.OPERi   c>  
 M  =    0.0000
 Re =    600000

.OPERv   c>  
.OPERv   c>  
.OPERv   c>  
 Polar  1 newly created for accumulation
 Airfoil archived with polar: MH 84  13.69%                                   

Enter  polar save filename  OR  <return> for no file   s>  
 New polar save file available

Enter  polar dump filename  OR  <return> for no file   s>  
 Polar dump file will NOT be written

 Polar accumulation enabled

.OPERva   c>   Calculating unit vorticity distributions ...
 Calculating wake trajectory ...
 Calculating source influence matrix ...

 Solving BL system ...

 Initializing BL ...
    side            1  ...
 MRCHUE: Inverse mode at  50     Hk =   4.277
 MRCHUE: Inverse mode at  51     Hk =   5.431
 MRCHUE: Inverse mode at  52     Hk =   6.601
 MRCHUE: Inverse mode at  53     Hk =   7.799
 MRCHUE: Inverse mode at  54     Hk =   9.032
 MRCHUE: Inverse mode at  55     Hk =   4.539
 MRCHUE: Inverse mode at  56     Hk =   2.500
 MRCHUE: Inverse mode at  86     Hk =   2.500
 MRCHUE: Inverse mode at  87     Hk =   2.500
 MRCHUE: Inverse mode at  88     Hk =   2.500
 MRCHUE: Inverse mode at  89     Hk =   2.500
 MRCHUE: Inverse mode at  90     Hk =   2.500
 MRCHUE: Inverse mode at  91     Hk =   2.500
 MRCHUE: Inverse mode at  92     Hk =   2.500
 MRCHUE: Inverse mode at  93     Hk =   2.500
 MRCHUE: Inverse mode at  94     Hk =   2.500
 MRCHUE: Inverse mode at  95     Hk =   2.500
 MRCHUE: Inverse mode at  96     Hk =   2.500
 MRCHUE: Inverse mode at  97     Hk =   2.500
 MRCHUE: Inverse mode at  98     Hk =   2.500
 MRCHUE: Inverse mode at  99     Hk =   2.500
 MRCHUE: Inverse mode at 100     Hk =   2.500
 MRCHUE: Inverse mode at 101     Hk =   2.500
 MRCHUE: Inverse mode at 102     Hk =   2.500
 MRCHUE: Inverse mode at 103     Hk =   2.500
 MRCHUE: Convergence failed at 104  side 1    Res =  0.4826E+01
 MRCHUE: Inverse mode at 105     Hk =   2.500
 MRCHUE: Inverse mode at 106     Hk =   2.500
 MRCHUE: Inverse mode at 107     Hk =   2.500
    side            2  ...

 MRCHDU: Convergence failed at 104  side 1    Res =  0.1358E+01
 MRCHDU: Convergence failed at 105  side 1    Res =  0.1410E+01
 MRCHDU: Convergence failed at 106  side 1    Res =  0.1539E+01
 MRCHDU: Convergence failed at 107  side 1    Res =  0.1584E+01
 Side 1  free  transition at x/c =  0.1167   55
 Side 2 forced transition at x/c =  1.0000   55
 idif Ue xi dudx           1  8.19321275E-02  9.53471661E-03   8.5930319    
 Uenew xinew           2  2.03245096E-02  2.36523151E-03

   1   rms: 0.3911E+00   max: 0.1283E+01   D at   61  2   RLX: 0.501
       a = 16.250      CL =  2.2822
      Cm = -0.1026     CD =  0.02192   =>   CDf =  0.00625    CDp =  0.01566

 Side 1  free  transition at x/c =  0.1215   54
 Side 2 forced transition at x/c =  1.0000   56
 idif Ue xi dudx           1  0.10443146      1.06382370E-02   9.8166132    
 Uenew xinew           2  4.12050225E-02  4.19747829E-03

   2   rms: 0.5000E+00   max: 0.1499E+01   D at   57  2   RLX: 0.522
       a = 16.250      CL =  2.0242
      Cm = -0.0721     CD =  0.03246   =>   CDf =  0.00608    CDp =  0.02638

 Side 1  free  transition at x/c =  0.1287   54
 Side 2 forced transition at x/c =  1.0000   57
 idif Ue xi dudx           1  0.10886133      1.04097128E-02   10.457669    
 Uenew xinew           2  4.80397083E-02  4.59372997E-03

   3   rms: 0.2163E+00   max: 0.8772E+00   D at   64  2   RLX: 0.999
       a = 16.250      CL =  1.8317
      Cm = -0.0460     CD =  0.04839   =>   CDf =  0.00576    CDp =  0.04262

 Side 1  free  transition at x/c =  0.1358   54
 Side 2 forced transition at x/c =  1.0000   58
 idif Ue xi dudx           1  6.49323761E-02  5.92339039E-03   10.962029    
 Uenew xinew           2  7.02522602E-03  6.40869141E-04

   4   rms: 0.7798E-01   max: 0.3325E+00   D at   68  2
       a = 16.250      CL =  1.7920
      Cm = -0.0478     CD =  0.05283   =>   CDf =  0.00561    CDp =  0.04722

 Side 1  free  transition at x/c =  0.1418   53
 Side 2 forced transition at x/c =  1.0000   59

   5   rms: 0.4797E-01   max: -.2704E+00   D at   80  1
       a = 16.250      CL =  1.8171
      Cm = -0.0452     CD =  0.04824   =>   CDf =  0.00451    CDp =  0.04372

 Side 1  free  transition at x/c =  0.1384   54
 Side 2 forced transition at x/c =  1.0000   58

   6   rms: 0.7682E-02   max: 0.5681E-01   D at    2  1
       a = 16.250      CL =  1.8204
      Cm = -0.0453     CD =  0.04864   =>   CDf =  0.00503    CDp =  0.04361

 Side 1  free  transition at x/c =  0.1382   54
 Side 2 forced transition at x/c =  1.0000   58

   7   rms: 0.8781E-03   max: -.5531E-02   D at    4  1
       a = 16.250      CL =  1.8209
      Cm = -0.0453     CD =  0.04866   =>   CDf =  0.00504    CDp =  0.04362

 Side 1  free  transition at x/c =  0.1382   54
 Side 2 forced transition at x/c =  1.0000   58

   8   rms: 0.4821E-04   max: -.3061E-03   D at   70  2
       a = 16.250      CL =  1.8209
      Cm = -0.0453     CD =  0.04867   =>   CDf =  0.00504    CDp =  0.04362
 plradd ia,ip,cpol            1           0  3.69395651E-02

 Point added to stored polar  1
 Point written to save file  mh84_Re600k.ext.pol                             
 Dump file unspecified or not available
 Calculating wake trajectory ...
 Calculating source influence matrix ...

 Solving BL system ...

 Side 1  free  transition at x/c =  0.1382   54
 Side 2 forced transition at x/c =  1.0000   58

   1   rms: 0.3150E-01   max: 0.1153E+00   D at   77  1   RLX: 0.832
       a = 16.500      CL =  1.8228
      Cm = -0.0457     CD =  0.05110   =>   CDf =  0.00505    CDp =  0.04606

 Side 1  free  transition at x/c =  0.1369   54
 Side 2 forced transition at x/c =  1.0000   58

   2   rms: 0.7095E-02   max: 0.4028E-01   D at   78  1
       a = 16.500      CL =  1.8206
      Cm = -0.0456     CD =  0.05157   =>   CDf =  0.00501    CDp =  0.04656

 Side 1  free  transition at x/c =  0.1366   54
 Side 2 forced transition at x/c =  1.0000   58

   3   rms: 0.7200E-03   max: 0.4022E-02   D at   71  2
       a = 16.500      CL =  1.8201
      Cm = -0.0456     CD =  0.05153   =>   CDf =  0.00501    CDp =  0.04652

 Side 1  free  transition at x/c =  0.1366   54
 Side 2 forced transition at x/c =  1.0000   58

   4   rms: 0.4565E-04   max: 0.2808E-03   D at   71  2
       a = 16.500      CL =  1.8201
      Cm = -0.0456     CD =  0.05152   =>   CDf =  0.00501    CDp =  0.04651
 plradd ia,ip,cpol            2           0  3.26171145E-02

 Point added to stored polar  1
 Point written to save file  mh84_Re600k.ext.pol                             
 Dump file unspecified or not available
 Calculating wake trajectory ...
 Calculating source influence matrix ...

 Solving BL system ...

 Side 1  free  transition at x/c =  0.1366   54
 Side 2 forced transition at x/c =  1.0000   58

   1   rms: 0.3071E-01   max: 0.1119E+00   D at   77  1   RLX: 0.792
       a = 16.750      CL =  1.8213
      Cm = -0.0459     CD =  0.05393   =>   CDf =  0.00501    CDp =  0.04892

 Side 1  free  transition at x/c =  0.1351   54
 Side 2 forced transition at x/c =  1.0000   58

   2   rms: 0.6184E-02   max: 0.2594E-01   D at   71  2
       a = 16.750      CL =  1.8212
      Cm = -0.0457     CD =  0.05414   =>   CDf =  0.00500    CDp =  0.04914

 Side 1  free  transition at x/c =  0.1345   53
 Side 2 forced transition at x/c =  1.0000   58

   3   rms: 0.2388E-02   max: -.2641E-01   D at   53  1
       a = 16.750      CL =  1.8208
      Cm = -0.0458     CD =  0.05421   =>   CDf =  0.00500    CDp =  0.04921

 Side 1  free  transition at x/c =  0.1346   53
 Side 2 forced transition at x/c =  1.0000   58

   4   rms: 0.1891E-03   max: -.1293E-02   D at   78  1
       a = 16.750      CL =  1.8209
      Cm = -0.0458     CD =  0.05417   =>   CDf =  0.00499    CDp =  0.04918

 Side 1  free  transition at x/c =  0.1346   53
 Side 2 forced transition at x/c =  1.0000   58

   5   rms: 0.1886E-04   max: 0.1617E-03   C at   58  2
       a = 16.750      CL =  1.8209
      Cm = -0.0458     CD =  0.05417   =>   CDf =  0.00499    CDp =  0.04918
 plradd ia,ip,cpol            3           0  3.26171145E-02

 Point added to stored polar  1
 Point written to save file  mh84_Re600k.ext.pol                             
 Dump file unspecified or not available
 Calculating wake trajectory ...
 Calculating source influence matrix ...

 Solving BL system ...

 Side 1  free  transition at x/c =  0.1346   53
 Side 2 forced transition at x/c =  1.0000   58

   1   rms: 0.2988E-01   max: 0.1086E+00   D at   76  1   RLX: 0.762
       a = 17.000      CL =  1.8240
      Cm = -0.0463     CD =  0.05642   =>   CDf =  0.00499    CDp =  0.05143

 Side 1  free  transition at x/c =  0.1340   53
 Side 2 forced transition at x/c =  1.0000   58

   2   rms: 0.8667E-02   max: 0.4672E-01   D at   77  1
       a = 17.000      CL =  1.8226
      Cm = -0.0465     CD =  0.05715   =>   CDf =  0.00490    CDp =  0.05225

 Side 1  free  transition at x/c =  0.1337   53
 Side 2 forced transition at x/c =  1.0000   58

   3   rms: 0.8531E-03   max: 0.6655E-02   D at   71  2
       a = 17.000      CL =  1.8220
      Cm = -0.0464     CD =  0.05706   =>   CDf =  0.00486    CDp =  0.05219

 Side 1  free  transition at x/c =  0.1337   53
 Side 2 forced transition at x/c =  1.0000   58

   4   rms: 0.3092E-04   max: 0.2775E-03   D at   71  2
       a = 17.000      CL =  1.8220
      Cm = -0.0464     CD =  0.05705   =>   CDf =  0.00486    CDp =  0.05219
 plradd ia,ip,cpol            4           0  3.26171145E-02

 Point added to stored polar  1
 Point written to save file  mh84_Re600k.ext.pol                             
 Dump file unspecified or not available
 Calculating wake trajectory ...
 Calculating source influence matrix ...

 Solving BL system ...

 Side 1  free  transition at x/c =  0.1337   53
 Side 2 forced transition at x/c =  1.0000   58

   1   rms: 0.2988E-01   max: 0.1117E+00   D at   75  1   RLX: 0.731
       a = 17.250      CL =  1.8244
      Cm = -0.0470     CD =  0.05935   =>   CDf =  0.00487    CDp =  0.05449

 Side 1  free  transition at x/c =  0.1327   53
 Side 2 forced transition at x/c =  1.0000   58

   2   rms: 0.9534E-02   max: 0.5290E-01   D at   76  1
       a = 17.250      CL =  1.8228
      Cm = -0.0473     CD =  0.06025   =>   CDf =  0.00478    CDp =  0.05546

 Side 1  free  transition at x/c =  0.1324   53
 Side 2 forced transition at x/c =  1.0000   58

   3   rms: 0.9758E-03   max: 0.5377E-02   D at   72  2
       a = 17.250      CL =  1.8221
      Cm = -0.0472     CD =  0.06015   =>   CDf =  0.00475    CDp =  0.05540

 Side 1  free  transition at x/c =  0.1324   53
 Side 2 forced transition at x/c =  1.0000   58

   4   rms: 0.5994E-04   max: 0.3793E-03   D at   72  2
       a = 17.250      CL =  1.8221
      Cm = -0.0472     CD =  0.06015   =>   CDf =  0.00475    CDp =  0.05540
 plradd ia,ip,cpol            5           0  2.86628306E-02

 Point added to stored polar  1
 Point written to save file  mh84_Re600k.ext.pol                             
 Dump file unspecified or not available
 Calculating wake trajectory ...
 Calculating source influence matrix ...

 Solving BL system ...

 Side 1  free  transition at x/c =  0.1324   53
 Side 2 forced transition at x/c =  1.0000   58

   1   rms: 0.2949E-01   max: 0.1133E+00   D at   75  1   RLX: 0.701
       a = 17.500      CL =  1.8239
      Cm = -0.0479     CD =  0.06247   =>   CDf =  0.00475    CDp =  0.05772

 Side 1  free  transition at x/c =  0.1314   53
 Side 2 forced transition at x/c =  1.0000   58

   2   rms: 0.9239E-02   max: 0.4185E-01   D at   75  1
       a = 17.500      CL =  1.8234
      Cm = -0.0481     CD =  0.06330   =>   CDf =  0.00468    CDp =  0.05862

 Side 1  free  transition at x/c =  0.1310   53
 Side 2 forced transition at x/c =  1.0000   58

   3   rms: 0.1537E-02   max: 0.9675E-02   D at   75  1
       a = 17.500      CL =  1.8223
      Cm = -0.0481     CD =  0.06329   =>   CDf =  0.00465    CDp =  0.05864

 Side 1  free  transition at x/c =  0.1310   53
 Side 2 forced transition at x/c =  1.0000   58

   4   rms: 0.1345E-03   max: 0.7901E-03   D at   72  2
       a = 17.500      CL =  1.8222
      Cm = -0.0481     CD =  0.06328   =>   CDf =  0.00465    CDp =  0.05863

 Side 1  free  transition at x/c =  0.1310   53
 Side 2 forced transition at x/c =  1.0000   58

   5   rms: 0.8018E-05   max: -.8132E-04   C at   58  2
       a = 17.500      CL =  1.8222
      Cm = -0.0481     CD =  0.06328   =>   CDf =  0.00465    CDp =  0.05862
 plradd ia,ip,cpol            6           0  2.50550527E-02

 Point added to stored polar  1
 Point written to save file  mh84_Re600k.ext.pol                             
 Dump file unspecified or not available
 Calculating wake trajectory ...
 Calculating source influence matrix ...

 Solving BL system ...

 Side 1  free  transition at x/c =  0.1310   53
 Side 2 forced transition at x/c =  1.0000   58

   1   rms: 0.2958E-01   max: 0.1200E+00   D at   74  1   RLX: 0.673
       a = 17.750      CL =  1.8229
      Cm = -0.0488     CD =  0.06571   =>   CDf =  0.00430    CDp =  0.06141

 Side 1  free  transition at x/c =  0.1300   54
 Side 2 forced transition at x/c =  1.0000   57

   2   rms: 0.9957E-02   max: 0.4239E-01   D at   75  1
       a = 17.750      CL =  1.8224
      Cm = -0.0490     CD =  0.06662   =>   CDf =  0.00460    CDp =  0.06203

 Side 1  free  transition at x/c =  0.1295   54
 Side 2 forced transition at x/c =  1.0000   57

   3   rms: 0.1126E-02   max: 0.8944E-02   D at   71  2
       a = 17.750      CL =  1.8216
      Cm = -0.0490     CD =  0.06652   =>   CDf =  0.00457    CDp =  0.06195

 Side 1  free  transition at x/c =  0.1296   54
 Side 2 forced transition at x/c =  1.0000   57

   4   rms: 0.6113E-04   max: 0.7895E-03   D at   71  2
       a = 17.750      CL =  1.8216
      Cm = -0.0490     CD =  0.06651   =>   CDf =  0.00457    CDp =  0.06194
 plradd ia,ip,cpol            7           0  2.17722971E-02

 Point added to stored polar  1
 Point written to save file  mh84_Re600k.ext.pol                             
 Dump file unspecified or not available
 Calculating wake trajectory ...
 Calculating source influence matrix ...

 Solving BL system ...

 Side 1  free  transition at x/c =  0.1296   54
 Side 2 forced transition at x/c =  1.0000   57

   1   rms: 0.2958E-01   max: 0.1142E+00   D at   74  1   RLX: 0.649
       a = 18.000      CL =  1.8228
      Cm = -0.0497     CD =  0.06883   =>   CDf =  0.00457    CDp =  0.06426

 Side 1  free  transition at x/c =  0.1285   54
 Side 2 forced transition at x/c =  1.0000   57

   2   rms: 0.1252E-01   max: 0.6648E-01   D at   75  1
       a = 18.000      CL =  1.8201
      Cm = -0.0502     CD =  0.07029   =>   CDf =  0.00453    CDp =  0.06576

 Side 1  free  transition at x/c =  0.1281   54
 Side 2 forced transition at x/c =  1.0000   57

   3   rms: 0.1008E-02   max: -.7090E-02   C at   57  2
       a = 18.000      CL =  1.8194
      Cm = -0.0501     CD =  0.07005   =>   CDf =  0.00450    CDp =  0.06555

 Side 1  free  transition at x/c =  0.1281   54
 Side 2 forced transition at x/c =  1.0000   57

   4   rms: 0.3106E-04   max: -.2712E-03   C at   57  2
       a = 18.000      CL =  1.8194
      Cm = -0.0501     CD =  0.07004   =>   CDf =  0.00450    CDp =  0.06555
 plradd ia,ip,cpol            8           0  2.17722971E-02

 Point added to stored polar  1
 Point written to save file  mh84_Re600k.ext.pol                             
 Dump file unspecified or not available

.OPERva   c>   Calculating wake trajectory ...
 Calculating source influence matrix ...

 Solving BL system ...

 Side 1  free  transition at x/c =  0.1281   54
 Side 2 forced transition at x/c =  1.0000   57

   1   rms: 0.2875E-01   max: 0.1145E+00   D at   73  1   RLX: 0.624
       a = 18.250      CL =  1.8201
      Cm = -0.0509     CD =  0.07237   =>   CDf =  0.00450    CDp =  0.06787

 Side 1  free  transition at x/c =  0.1271   54
 Side 2 forced transition at x/c =  1.0000   57

   2   rms: 0.1141E-01   max: 0.5095E-01   D at   74  1
       a = 18.250      CL =  1.8189
      Cm = -0.0512     CD =  0.07363   =>   CDf =  0.00447    CDp =  0.06916

 Side 1  free  transition at x/c =  0.1266   54
 Side 2 forced transition at x/c =  1.0000   57

   3   rms: 0.1673E-02   max: 0.8985E-02   D at   74  1
       a = 18.250      CL =  1.8177
      Cm = -0.0512     CD =  0.07355   =>   CDf =  0.00446    CDp =  0.06910

 Side 1  free  transition at x/c =  0.1266   54
 Side 2 forced transition at x/c =  1.0000   57

   4   rms: 0.1540E-03   max: 0.8901E-03   D at   72  2
       a = 18.250      CL =  1.8176
      Cm = -0.0512     CD =  0.07354   =>   CDf =  0.00445    CDp =  0.06908

 Side 1  free  transition at x/c =  0.1266   54
 Side 2 forced transition at x/c =  1.0000   57

   5   rms: 0.1054E-04   max: -.1107E-03   C at   57  2
       a = 18.250      CL =  1.8176
      Cm = -0.0512     CD =  0.07354   =>   CDf =  0.00445    CDp =  0.06908
 plradd ia,ip,cpol            9           0  2.17722971E-02

 Point added to stored polar  1
 Point written to save file  mh84_Re600k.ext.pol                             
 Dump file unspecified or not available
 Calculating wake trajectory ...
 Calculating source influence matrix ...

 Solving BL system ...

 Side 1  free  transition at x/c =  0.1266   54
 Side 2 forced transition at x/c =  1.0000   57

   1   rms: 0.5685E-01   max: 0.2327E+00   D at   73  1   RLX: 0.581
       a = 18.750      CL =  1.8175
      Cm = -0.0526     CD =  0.07810   =>   CDf =  0.00446    CDp =  0.07364

 Side 1  free  transition at x/c =  0.1247   54
 Side 2 forced transition at x/c =  1.0000   57

   2   rms: 0.2259E-01   max: 0.8029E-01   T at   54  1
       a = 18.750      CL =  1.8232
      Cm = -0.0523     CD =  0.07906   =>   CDf =  0.00443    CDp =  0.07464

 Side 1  free  transition at x/c =  0.1231   53
 Side 2 forced transition at x/c =  1.0000   57

   3   rms: 0.1301E-01   max: -.9606E-01   D at   53  1
       a = 18.750      CL =  1.8168
      Cm = -0.0533     CD =  0.08031   =>   CDf =  0.00439    CDp =  0.07591

 Side 1  free  transition at x/c =  0.1234   53
 Side 2 forced transition at x/c =  1.0000   57

   4   rms: 0.9281E-03   max: 0.1203E-01   D at   73  1
       a = 18.750      CL =  1.8164
      Cm = -0.0532     CD =  0.08010   =>   CDf =  0.00435    CDp =  0.07575

 Side 1  free  transition at x/c =  0.1234   53
 Side 2 forced transition at x/c =  1.0000   57

   5   rms: 0.4022E-04   max: 0.2908E-03   D at   73  1
       a = 18.750      CL =  1.8164
      Cm = -0.0532     CD =  0.08010   =>   CDf =  0.00435    CDp =  0.07575
 plradd ia,ip,cpol           10           0  1.87961031E-02

 Point added to stored polar  1
 Point written to save file  mh84_Re600k.ext.pol                             
 Dump file unspecified or not available
 Calculating wake trajectory ...
 Calculating source influence matrix ...

 Solving BL system ...

 Side 1  free  transition at x/c =  0.1234   53
 Side 2 forced transition at x/c =  1.0000   57

   1   rms: 0.6203E-01   max: 0.3003E+00   D at   72  1   RLX: 0.541
       a = 19.250      CL =  1.8123
      Cm = -0.0553     CD =  0.08552   =>   CDf =  0.00436    CDp =  0.08116

 Side 1  free  transition at x/c =  0.1221   53
 Side 2 forced transition at x/c =  1.0000   57

   2   rms: 0.2621E-01   max: 0.1330E+00   D at   72  1
       a = 19.250      CL =  1.8106
      Cm = -0.0565     CD =  0.08880   =>   CDf =  0.00384    CDp =  0.08496

 Side 1  free  transition at x/c =  0.1208   54
 Side 2 forced transition at x/c =  1.0000   56
 idif Ue xi dudx           1  6.20846227E-02  6.55150414E-03   9.4763918    
 Uenew xinew           2  1.04946713E-03  1.10745430E-04

   3   rms: 0.1536E-01   max: -.2468E+00   D at    2  1
       a = 19.250      CL =  1.8064
      Cm = -0.0567     CD =  0.08878   =>   CDf =  0.00447    CDp =  0.08431

 Side 1  free  transition at x/c =  0.1208   53
 Side 2 forced transition at x/c =  1.0000   57

   4   rms: 0.9857E-03   max: -.1088E-01   D at    3  1
       a = 19.250      CL =  1.8062
      Cm = -0.0567     CD =  0.08864   =>   CDf =  0.00410    CDp =  0.08453

 Side 1  free  transition at x/c =  0.1208   53
 Side 2 forced transition at x/c =  1.0000   57

   5   rms: 0.2985E-03   max: 0.3501E-02   D at    4  2
       a = 19.250      CL =  1.8062
      Cm = -0.0567     CD =  0.08863   =>   CDf =  0.00410    CDp =  0.08453

 Side 1  free  transition at x/c =  0.1208   53
 Side 2 forced transition at x/c =  1.0000   57

   6   rms: 0.1781E-05   max: 0.1046E-04   D at    4  2
       a = 19.250      CL =  1.8062
      Cm = -0.0567     CD =  0.08863   =>   CDf =  0.00410    CDp =  0.08453
 plradd ia,ip,cpol           11           0  1.36859091E-02

 Point added to stored polar  1
 Point written to save file  mh84_Re600k.ext.pol                             
 Dump file unspecified or not available
 Calculating wake trajectory ...
 Calculating source influence matrix ...

 Solving BL system ...

 Side 1  free  transition at x/c =  0.1208   53
 Side 2 forced transition at x/c =  1.0000   57

   1   rms: 0.5610E-01   max: 0.2537E+00   D at   70  1   RLX: 0.507
       a = 19.750      CL =  1.8050
      Cm = -0.0585     CD =  0.09336   =>   CDf =  0.00374    CDp =  0.08961

 Side 1  free  transition at x/c =  0.1192   54
 Side 2 forced transition at x/c =  1.0000   56

   2   rms: 0.3108E-01   max: 0.1694E+00   D at   72  1
       a = 19.750      CL =  1.7986
      Cm = -0.0606     CD =  0.09826   =>   CDf =  0.00402    CDp =  0.09424

 Side 1  free  transition at x/c =  0.1177   54
 Side 2 forced transition at x/c =  1.0000   56

   3   rms: 0.3558E-02   max: 0.2769E-01   D at   72  2
       a = 19.750      CL =  1.7971
      Cm = -0.0603     CD =  0.09714   =>   CDf =  0.00393    CDp =  0.09321

 Side 1  free  transition at x/c =  0.1178   54
 Side 2 forced transition at x/c =  1.0000   56

   4   rms: 0.1838E-03   max: 0.3137E-02   D at   72  2
       a = 19.750      CL =  1.7972
      Cm = -0.0603     CD =  0.09709   =>   CDf =  0.00393    CDp =  0.09316

 Side 1  free  transition at x/c =  0.1178   54
 Side 2 forced transition at x/c =  1.0000   56

   5   rms: 0.1787E-04   max: 0.1983E-03   C at   56  2
       a = 19.750      CL =  1.7972
      Cm = -0.0603     CD =  0.09709   =>   CDf =  0.00393    CDp =  0.09316
 plradd ia,ip,cpol           12           0  9.57221538E-03

 Point added to stored polar  1
 Point written to save file  mh84_Re600k.ext.pol                             
 Dump file unspecified or not available
 Calculating wake trajectory ...
 Calculating source influence matrix ...

 Solving BL system ...

 Side 1  free  transition at x/c =  0.1178   54
 Side 2 forced transition at x/c =  1.0000   56

   1   rms: 0.5502E-01   max: 0.2546E+00   D at   70  1   RLX: 0.476
       a = 20.250      CL =  1.7956
      Cm = -0.0621     CD =  0.10171   =>   CDf =  0.00394    CDp =  0.09777

 Side 1  free  transition at x/c =  0.1163   54
 Side 2 forced transition at x/c =  1.0000   56

   2   rms: 0.2802E-01   max: -.1236E+00   C at   56  2
       a = 20.250      CL =  1.7937
      Cm = -0.0638     CD =  0.10579   =>   CDf =  0.00390    CDp =  0.10189

 Side 1  free  transition at x/c =  0.1146   54
 Side 2 forced transition at x/c =  1.0000   56

   3   rms: 0.5345E-02   max: -.4003E-01   D at   71  1
       a = 20.250      CL =  1.7953
      Cm = -0.0631     CD =  0.10402   =>   CDf =  0.00387    CDp =  0.10015

 Side 1  free  transition at x/c =  0.1144   54
 Side 2 forced transition at x/c =  1.0000   56

   4   rms: 0.1013E-02   max: 0.4274E-02   C at   56  2
       a = 20.250      CL =  1.7960
      Cm = -0.0631     CD =  0.10402   =>   CDf =  0.00390    CDp =  0.10012

 Side 1  free  transition at x/c =  0.1144   54
 Side 2 forced transition at x/c =  1.0000   56

   5   rms: 0.1320E-03   max: 0.9433E-03   C at   56  2
       a = 20.250      CL =  1.7961
      Cm = -0.0631     CD =  0.10405   =>   CDf =  0.00390    CDp =  0.10014

 Side 1  free  transition at x/c =  0.1144   54
 Side 2 forced transition at x/c =  1.0000   56

   6   rms: 0.1185E-04   max: 0.1243E-03   C at   56  2
       a = 20.250      CL =  1.7961
      Cm = -0.0631     CD =  0.10405   =>   CDf =  0.00390    CDp =  0.10015
 plradd ia,ip,cpol           13           0  9.57221538E-03

 Point added to stored polar  1
 Point written to save file  mh84_Re600k.ext.pol                             
 Dump file unspecified or not available
 Calculating wake trajectory ...
 Calculating source influence matrix ...

 Solving BL system ...

 Side 1  free  transition at x/c =  0.1144   54
 Side 2 forced transition at x/c =  1.0000   56

   1   rms: 0.5587E-01   max: 0.1833E+00   T at   54  1   RLX: 0.462
       a = 20.750      CL =  1.8065
      Cm = -0.0632     CD =  0.10547   =>   CDf =  0.00391    CDp =  0.10156

 Side 1  free  transition at x/c =  0.1128   53
 Side 2 forced transition at x/c =  1.0000   56

   2   rms: 0.5311E-01   max: 0.3095E+00   D at   70  1
       a = 20.750      CL =  1.7827
      Cm = -0.0685     CD =  0.11635   =>   CDf =  0.00386    CDp =  0.11248

 Side 1  free  transition at x/c =  0.1118   53
 Side 2 forced transition at x/c =  1.0000   56

   3   rms: 0.7729E-02   max: 0.9515E-01   D at   70  1
       a = 20.750      CL =  1.7798
      Cm = -0.0680     CD =  0.11428   =>   CDf =  0.00364    CDp =  0.11063

 Side 1  free  transition at x/c =  0.1117   53
 Side 2 forced transition at x/c =  1.0000   56

   4   rms: 0.6754E-03   max: 0.9918E-02   D at   69  1
       a = 20.750      CL =  1.7796
      Cm = -0.0681     CD =  0.11413   =>   CDf =  0.00364    CDp =  0.11050

 Side 1  free  transition at x/c =  0.1117   53
 Side 2 forced transition at x/c =  1.0000   56

   5   rms: 0.9210E-04   max: 0.6287E-03   D at   73  2
       a = 20.750      CL =  1.7795
      Cm = -0.0681     CD =  0.11413   =>   CDf =  0.00364    CDp =  0.11049
 plradd ia,ip,cpol           14           0  3.79489479E-03

 Point added to stored polar  1
 Point written to save file  mh84_Re600k.ext.pol                             
 Dump file unspecified or not available
 Calculating wake trajectory ...
 Calculating source influence matrix ...

 Solving BL system ...

 Side 1  free  transition at x/c =  0.1117   53
 Side 2 forced transition at x/c =  1.0000   56

   1   rms: 0.6334E-01   max: 0.3586E+00   D at   68  1   RLX: 0.419
       a = 21.250      CL =  1.7721
      Cm = -0.0706     CD =  0.11982   =>   CDf =  0.00365    CDp =  0.11617

 Side 1  free  transition at x/c =  0.1104   53
 Side 2 forced transition at x/c =  1.0000   56

   2   rms: 0.3159E-01   max: 0.1696E+00   D at   68  1
       a = 21.250      CL =  1.7676
      Cm = -0.0733     CD =  0.12525   =>   CDf =  0.00354    CDp =  0.12171

 Side 1  free  transition at x/c =  0.1084   53
 Side 2 forced transition at x/c =  1.0000   56

   3   rms: 0.6738E-02   max: 0.4700E-01   D at   68  1
       a = 21.250      CL =  1.7630
      Cm = -0.0734     CD =  0.12457   =>   CDf =  0.00345    CDp =  0.12112

 Side 1  free  transition at x/c =  0.1085   53
 Side 2 forced transition at x/c =  1.0000   56

   4   rms: 0.5515E-03   max: -.3991E-02   D at   68  1
       a = 21.250      CL =  1.7632
      Cm = -0.0733     CD =  0.12424   =>   CDf =  0.00344    CDp =  0.12080

 Side 1  free  transition at x/c =  0.1086   53
 Side 2 forced transition at x/c =  1.0000   56

   5   rms: 0.6849E-04   max: 0.4170E-03   C at   56  2
       a = 21.250      CL =  1.7632
      Cm = -0.0733     CD =  0.12424   =>   CDf =  0.00344    CDp =  0.12080
 plradd ia,ip,cpol           15           0  3.79489479E-03

 Point added to stored polar  1
 Point written to save file  mh84_Re600k.ext.pol                             
 Dump file unspecified or not available
 Calculating wake trajectory ...
 Calculating source influence matrix ...

 Solving BL system ...

 Side 1  free  transition at x/c =  0.1085   53
 Side 2 forced transition at x/c =  1.0000   56

   1   rms: 0.5463E-01   max: 0.2857E+00   D at   67  1   RLX: 0.399
       a = 21.750      CL =  1.7599
      Cm = -0.0754     CD =  0.12887   =>   CDf =  0.00308    CDp =  0.12580

 Side 1  free  transition at x/c =  0.1072   54
 Side 2 forced transition at x/c =  1.0000   55

   2   rms: 0.3191E-01   max: 0.2001E+00   D at    2  1
       a = 21.750      CL =  1.7609
      Cm = -0.0778     CD =  0.13350   =>   CDf =  0.00340    CDp =  0.13010

 Side 1  free  transition at x/c =  0.1052   54
 Side 2 forced transition at x/c =  1.0000   55

   3   rms: 0.4865E-02   max: -.3439E-01   D at   69  1
       a = 21.750      CL =  1.7619
      Cm = -0.0772     CD =  0.13144   =>   CDf =  0.00338    CDp =  0.12806

 Side 1  free  transition at x/c =  0.1051   54
 Side 2 forced transition at x/c =  1.0000   55

   4   rms: 0.7912E-03   max: 0.4154E-02   C at   55  2
       a = 21.750      CL =  1.7625
      Cm = -0.0772     CD =  0.13142   =>   CDf =  0.00340    CDp =  0.12802

 Side 1  free  transition at x/c =  0.1051   54
 Side 2 forced transition at x/c =  1.0000   55

   5   rms: 0.1162E-03   max: 0.9316E-03   C at   55  2
       a = 21.750      CL =  1.7626
      Cm = -0.0772     CD =  0.13145   =>   CDf =  0.00340    CDp =  0.12805

 Side 1  free  transition at x/c =  0.1051   54
 Side 2 forced transition at x/c =  1.0000   55

   6   rms: 0.1161E-04   max: 0.1308E-03   C at   55  2
       a = 21.750      CL =  1.7626
      Cm = -0.0772     CD =  0.13145   =>   CDf =  0.00340    CDp =  0.12805
 plradd ia,ip,cpol           16           0  7.28034298E-04

 Point added to stored polar  1
 Point written to save file  mh84_Re600k.ext.pol                             
 Dump file unspecified or not available
 Calculating wake trajectory ...
 Calculating source influence matrix ...

 Solving BL system ...

 Side 1  free  transition at x/c =  0.1051   54
 Side 2 forced transition at x/c =  1.0000   55

   1   rms: 0.5506E-01   max: 0.1997E+00   T at   54  1   RLX: 0.391
       a = 22.250      CL =  1.7715
      Cm = -0.0775     CD =  0.13264   =>   CDf =  0.00341    CDp =  0.12922

 Side 1  free  transition at x/c =  0.1037   53
 Side 2 forced transition at x/c =  1.0000   55

   2   rms: 0.5820E-01   max: 0.3505E+00   D at   68  1
       a = 22.250      CL =  1.7453
      Cm = -0.0841     CD =  0.14597   =>   CDf =  0.00339    CDp =  0.14257

 Side 1  free  transition at x/c =  0.1020   53
 Side 2 forced transition at x/c =  1.0000   55

   3   rms: 0.9354E-02   max: 0.1200E+00   D at   67  1
       a = 22.250      CL =  1.7416
      Cm = -0.0837     CD =  0.14298   =>   CDf =  0.00316    CDp =  0.13982

 Side 1  free  transition at x/c =  0.1019   53
 Side 2 forced transition at x/c =  1.0000   55

   4   rms: 0.3626E-02   max: 0.3047E-01   D at   67  1
       a = 22.250      CL =  1.7394
      Cm = -0.0840     CD =  0.14314   =>   CDf =  0.00316    CDp =  0.13998

 Side 1  free  transition at x/c =  0.1019   53
 Side 2 forced transition at x/c =  1.0000   55

   5   rms: 0.3540E-03   max: -.2948E-02   C at   55  2
       a = 22.250      CL =  1.7392
      Cm = -0.0840     CD =  0.14301   =>   CDf =  0.00315    CDp =  0.13986

 Side 1  free  transition at x/c =  0.1019   53
 Side 2 forced transition at x/c =  1.0000   55

   6   rms: 0.2818E-04   max: 0.2591E-03   D at   73  2
       a = 22.250      CL =  1.7392
      Cm = -0.0840     CD =  0.14299   =>   CDf =  0.00315    CDp =  0.13984
 plradd ia,ip,cpol           17           0  1.31312676E-03

 Point added to stored polar  1
 Point written to save file  mh84_Re600k.ext.pol                             
 Dump file unspecified or not available

.OPERva   c>  
 Polar accumulation disabled

.OPERv   c>  
 XFOIL   c>  
 XFOIL   c>  