
 ===================================================
  XFOIL Version 6.99
  Copyright (C) 2000   Mark Drela, Harold Youngren

  This software comes with ABSOLUTELY NO WARRANTY,
    subject to the GNU General Public License.

  Caveat computor
 ===================================================

 File  xfoil.def  not found

   QUIT    Exit program

  .OPER    Direct operating point(s)
  .MDES    Complex mapping design routine
  .QDES    Surface speed design routine
  .GDES    Geometry design routine

   SAVE f  Write airfoil to labeled coordinate file
   PSAV f  Write airfoil to plain coordinate file
   ISAV f  Write airfoil to ISES coordinate file
   MSAV f  Write airfoil to MSES coordinate file
   REVE    Reverse written-airfoil node ordering

   LOAD f  Read buffer airfoil from coordinate file
   NACA i  Set NACA 4,5-digit airfoil and buffer airfoil
   INTE    Set buffer airfoil by interpolating two airfoils
   NORM    Buffer airfoil normalization toggle
   XYCM rr Change CM reference location, currently  0.25000 0.00000

   BEND    Display structural properties of current airfoil

   PCOP    Set current-airfoil panel nodes directly from buffer airfoil points
   PANE    Set current-airfoil panel nodes ( 160 ) based on curvature
  .PPAR    Show/change paneling

  .PLOP    Plotting options

   WDEF f  Write  current-settings file
   RDEF f  Reread current-settings file
   NAME s  Specify new airfoil name
   NINC    Increment name version number

   Z       Zoom    | (available in all menus)
   U       Unzoom  | 

 XFOIL   c>  
 Labeled airfoil file.  Name:  MH 91  14.98%                                   

 Number of input coordinate points:  68
 Counterclockwise ordering
 Max thickness =     0.149863  at x =   0.273
 Max camber    =     0.016797  at x =   0.149

  LE  x,y  =  -0.00000  -0.00002  |   Chord =   1.00000
  TE  x,y  =   1.00000   0.00000  |

 Current airfoil nodes set from buffer airfoil nodes (  68 )

 XFOIL   c>  
 XFOIL   c>  
 Sharp trailing edge

 Paneling parameters used...
   Number of panel nodes       160
   Panel bunching parameter    1.000
   TE/LE panel density ratio   0.150
   Refined-area/LE panel density ratio    0.200
   Top    side refined area x/c limits  1.000 1.000
   Bottom side refined area x/c limits  1.000 1.000

 XFOIL   c>  
.OPERi   c>  
 Xtr/c     =  1.0000    top    side
 Xtr/c     =  1.0000    bottom side
 Ncrit     =    9.00   ( 0.070 % turb. level )
 Vacc      =  0.0100

 Klag  =  5.6000     Uxwt  =    1.00
 A     =  6.7000     B     =  0.7500       KCt = 0.01485
 CtiniK=  1.8000     CtiniX=  3.3000

..VPAR   c>  
..VPAR   c>  
.OPERi   c>  
 M  =    0.0000
 Re =    400000

.OPERv   c>  
.OPERv   c>  
.OPERv   c>  
 Polar  1 newly created for accumulation
 Airfoil archived with polar: MH 91  14.98%                                   

Enter  polar save filename  OR  <return> for no file   s>  
 New polar save file available

Enter  polar dump filename  OR  <return> for no file   s>  
 Polar dump file will NOT be written

 Polar accumulation enabled

.OPERva   c>   Calculating unit vorticity distributions ...
 Calculating wake trajectory ...
 Calculating source influence matrix ...

 Solving BL system ...

 Initializing BL ...
    side            1  ...
 MRCHUE: Inverse mode at  44     Hk =   4.085
 MRCHUE: Inverse mode at  45     Hk =   4.760
 MRCHUE: Inverse mode at  46     Hk =   5.419
 MRCHUE: Inverse mode at  47     Hk =   6.068
 MRCHUE: Inverse mode at  48     Hk =   6.708
 MRCHUE: Inverse mode at  49     Hk =   7.341
 MRCHUE: Inverse mode at  50     Hk =   7.969
 MRCHUE: Inverse mode at  51     Hk =   8.000
 MRCHUE: Inverse mode at  52     Hk =   5.158
 MRCHUE: Inverse mode at  53     Hk =   3.514
    side            2  ...
 MRCHUE: Inverse mode at  16     Hk =   4.483
 MRCHUE: Inverse mode at  17     Hk =   5.360
 MRCHUE: Inverse mode at  18     Hk =   6.154
 MRCHUE: Inverse mode at  19     Hk =   6.909
 MRCHUE: Inverse mode at  20     Hk =   7.651
 MRCHUE: Inverse mode at  21     Hk =   8.395
 MRCHUE: Inverse mode at  22     Hk =   9.153
 MRCHUE: Inverse mode at  23     Hk =   9.936
 MRCHUE: Inverse mode at  24     Hk =   9.142
 MRCHUE: Inverse mode at  25     Hk =   5.692
 MRCHUE: Inverse mode at  26     Hk =   3.771
 MRCHUE: Inverse mode at  27     Hk =   2.500
 MRCHUE: Inverse mode at  85     Hk =   2.500
 MRCHUE: Inverse mode at  86     Hk =   2.500
 MRCHUE: Inverse mode at  87     Hk =   2.500
 MRCHUE: Inverse mode at  88     Hk =   2.500

 Side 1  free  transition at x/c =  0.6281   51
 Side 2  free  transition at x/c =  0.0249   24

   1   rms: 0.3106E+00   max: -.4750E+01   T at   24  2   RLX: 0.105
       a = -4.000      CL = -0.4738
      Cm =  0.0326     CD =  0.01388   =>   CDf =  0.00822    CDp =  0.00566

 Side 1  free  transition at x/c =  0.6317   52
 Side 2  free  transition at x/c =  0.0286   25

   2   rms: 0.2624E+00   max: -.3062E+01   T at   25  2   RLX: 0.163
       a = -4.000      CL = -0.4618
      Cm =  0.0297     CD =  0.01260   =>   CDf =  0.00834    CDp =  0.00426

 Side 1  free  transition at x/c =  0.6364   53
 Side 2  free  transition at x/c =  0.0336   25

   3   rms: 0.2557E+00   max: -.3062E+01   T at   25  2   RLX: 0.163
       a = -4.000      CL = -0.4522
      Cm =  0.0281     CD =  0.01245   =>   CDf =  0.00814    CDp =  0.00431

 Side 1  free  transition at x/c =  0.6418   53
 Side 2  free  transition at x/c =  0.0404   26

   4   rms: 0.2090E+00   max: -.2281E+01   T at   26  2   RLX: 0.219
       a = -4.000      CL = -0.4420
      Cm =  0.0262     CD =  0.01222   =>   CDf =  0.00815    CDp =  0.00407

 Side 1  free  transition at x/c =  0.6491   54
 Side 2  free  transition at x/c =  0.0521   28

   5   rms: 0.4485E+00   max: -.9298E+01   C at   28  2   RLX: 0.054
       a = -4.000      CL = -0.4405
      Cm =  0.0257     CD =  0.01202   =>   CDf =  0.00804    CDp =  0.00398

 Side 1  free  transition at x/c =  0.6506   54
 Side 2  free  transition at x/c =  0.0534   28

   6   rms: 0.1947E+00   max: -.2303E+01   T at   28  2   RLX: 0.217
       a = -4.000      CL = -0.4308
      Cm =  0.0243     CD =  0.01204   =>   CDf =  0.00803    CDp =  0.00401

 Side 1  free  transition at x/c =  0.6570   54
 Side 2  free  transition at x/c =  0.0664   30

   7   rms: 0.3613E+00   max: -.6459E+01   C at   30  2   RLX: 0.077
       a = -4.000      CL = -0.4291
      Cm =  0.0243     CD =  0.01187   =>   CDf =  0.00789    CDp =  0.00398

 Side 1  free  transition at x/c =  0.6593   54
 Side 2  free  transition at x/c =  0.0719   30

   8   rms: 0.1672E+00   max: -.1938E+01   T at   30  2   RLX: 0.258
       a = -4.000      CL = -0.4211
      Cm =  0.0230     CD =  0.01192   =>   CDf =  0.00785    CDp =  0.00407

 Side 1  free  transition at x/c =  0.6661   54
 Side 2  free  transition at x/c =  0.1472   36

   9   rms: 0.8114E+00   max: -.1844E+02   C at   36  2   RLX: 0.027
       a = -4.000      CL = -0.4251
      Cm =  0.0224     CD =  0.01126   =>   CDf =  0.00742    CDp =  0.00384

 Side 1  free  transition at x/c =  0.6672   55
 Side 2  free  transition at x/c =  0.1508   36

  10   rms: 0.6065E+00   max: -.1383E+02   C at   36  2   RLX: 0.036
       a = -4.000      CL = -0.4238
      Cm =  0.0224     CD =  0.01118   =>   CDf =  0.00736    CDp =  0.00382

 Side 1  free  transition at x/c =  0.6680   55
 Side 2  free  transition at x/c =  0.1541   37

  11   rms: 0.4151E+00   max: -.8800E+01   C at   37  2   RLX: 0.057
       a = -4.000      CL = -0.4231
      Cm =  0.0223     CD =  0.01110   =>   CDf =  0.00734    CDp =  0.00376

 Side 1  free  transition at x/c =  0.6692   55
 Side 2  free  transition at x/c =  0.1654   37

  12   rms: 0.8857E+00   max: -.1929E+02   C at   37  2   RLX: 0.026
       a = -4.000      CL = -0.4233
      Cm =  0.0223     CD =  0.01102   =>   CDf =  0.00721    CDp =  0.00381

 Side 1  free  transition at x/c =  0.6697   55
 Side 2  free  transition at x/c =  0.1706   38

  13   rms: 0.6528E+00   max: -.1463E+02   C at   38  2   RLX: 0.034
       a = -4.000      CL = -0.4225
      Cm =  0.0223     CD =  0.01096   =>   CDf =  0.00718    CDp =  0.00378

 Side 1  free  transition at x/c =  0.6704   55
 Side 2  free  transition at x/c =  0.1820   38

  14   rms: 0.1109E+01   max: -.2382E+02   C at   38  2   RLX: 0.021
       a = -4.000      CL = -0.4228
      Cm =  0.0223     CD =  0.01089   =>   CDf =  0.00709    CDp =  0.00380

 Side 1  free  transition at x/c =  0.6708   55
 Side 2  free  transition at x/c =  0.1892   39

  15   rms: 0.7824E+00   max: -.1753E+02   C at   39  2   RLX: 0.029
       a = -4.000      CL = -0.4227
      Cm =  0.0223     CD =  0.01082   =>   CDf =  0.00705    CDp =  0.00377

 Side 1  free  transition at x/c =  0.6713   55
 Side 2  free  transition at x/c =  0.1998   40

  16   rms: 0.6274E+00   max: -.1368E+02   C at   40  2   RLX: 0.037
       a = -4.000      CL = -0.4230
      Cm =  0.0223     CD =  0.01073   =>   CDf =  0.00699    CDp =  0.00374

 Side 1  free  transition at x/c =  0.6719   55
 Side 2  free  transition at x/c =  0.2122   40

  17   rms: 0.5757E+00   max: -.1263E+02   C at   40  2   RLX: 0.040
       a = -4.000      CL = -0.4228
      Cm =  0.0223     CD =  0.01069   =>   CDf =  0.00692    CDp =  0.00377

 Side 1  free  transition at x/c =  0.6726   55
 Side 2  free  transition at x/c =  0.2277   41

  18   rms: 0.4179E+00   max: -.9113E+01   C at   41  2   RLX: 0.055
       a = -4.000      CL = -0.4230
      Cm =  0.0222     CD =  0.01059   =>   CDf =  0.00684    CDp =  0.00375

 Side 1  free  transition at x/c =  0.6735   55
 Side 2  free  transition at x/c =  0.2463   42

  19   rms: 0.2758E+00   max: -.5903E+01   C at   42  2   RLX: 0.085
       a = -4.000      CL = -0.4230
      Cm =  0.0220     CD =  0.01048   =>   CDf =  0.00673    CDp =  0.00375

 Side 1  free  transition at x/c =  0.6748   55
 Side 2  free  transition at x/c =  0.2723   44

  20   rms: 0.2113E+00   max: -.4384E+01   C at   44  2   RLX: 0.114
       a = -4.000      CL = -0.4237
      Cm =  0.0219     CD =  0.01031   =>   CDf =  0.00659    CDp =  0.00372

 Side 1  free  transition at x/c =  0.6765   55
 Side 2  free  transition at x/c =  0.2925   45

  21   rms: 0.1117E+00   max: -.2145E+01   C at   45  2   RLX: 0.233
       a = -4.000      CL = -0.4223
      Cm =  0.0214     CD =  0.01021   =>   CDf =  0.00647    CDp =  0.00374

 Side 1  free  transition at x/c =  0.6797   55
 Side 2  free  transition at x/c =  0.3255   47

  22   rms: 0.4197E-01   max: -.4093E+00   C at   47  2
       a = -4.000      CL = -0.4159
      Cm =  0.0199     CD =  0.01010   =>   CDf =  0.00631    CDp =  0.00380

 Side 1  free  transition at x/c =  0.6921   56
 Side 2  free  transition at x/c =  0.3332   48

  23   rms: 0.3805E-01   max: -.4589E+00   C at   48  2
       a = -4.000      CL = -0.4177
      Cm =  0.0201     CD =  0.00992   =>   CDf =  0.00634    CDp =  0.00358

 Side 1  free  transition at x/c =  0.6925   56
 Side 2  free  transition at x/c =  0.3652   49

  24   rms: 0.1216E-01   max: -.2064E+00   C at   49  2
       a = -4.000      CL = -0.4180
      Cm =  0.0201     CD =  0.00993   =>   CDf =  0.00606    CDp =  0.00387

 Side 1  free  transition at x/c =  0.6925   56
 Side 2  free  transition at x/c =  0.3521   49

  25   rms: 0.5137E-02   max: -.9156E-01   C at   49  2
       a = -4.000      CL = -0.4172
      Cm =  0.0200     CD =  0.00999   =>   CDf =  0.00608    CDp =  0.00391

 Side 1  free  transition at x/c =  0.6924   56
 Side 2  free  transition at x/c =  0.3548   49

  26   rms: 0.7833E-04   max: -.1174E-02   D at   51  2
       a = -4.000      CL = -0.4171
      Cm =  0.0200     CD =  0.01000   =>   CDf =  0.00607    CDp =  0.00393
 plradd ia,ip,cpol            1           0  1.22496090E-03

 Point added to stored polar  1
 Point written to save file  mh91_Re400k.base.pol                            
 Dump file unspecified or not available
 Calculating wake trajectory ...
 Calculating source influence matrix ...

 Solving BL system ...

 Side 1  free  transition at x/c =  0.6924   56
 Side 2  free  transition at x/c =  0.3548   49

   1   rms: 0.1787E+00   max: -.3091E+01   C at   49  2   RLX: 0.162
       a = -3.500      CL = -0.4099
      Cm =  0.0203     CD =  0.00984   =>   CDf =  0.00607    CDp =  0.00378

 Side 1  free  transition at x/c =  0.6883   56
 Side 2  free  transition at x/c =  0.3672   50

   2   rms: 0.1410E+00   max: -.2005E+01   C at   50  2   RLX: 0.249
       a = -3.500      CL = -0.4001
      Cm =  0.0207     CD =  0.00971   =>   CDf =  0.00608    CDp =  0.00363

 Side 1  free  transition at x/c =  0.6839   55
 Side 2  free  transition at x/c =  0.3831   50

   3   rms: 0.7486E-01   max: -.9334E+00   C at   50  2   RLX: 0.536
       a = -3.500      CL = -0.3810
      Cm =  0.0208     CD =  0.00966   =>   CDf =  0.00606    CDp =  0.00360

 Side 1  free  transition at x/c =  0.6738   55
 Side 2  free  transition at x/c =  0.4301   53

   4   rms: 0.7094E-01   max: -.1357E+01   C at   53  2   RLX: 0.369
       a = -3.500      CL = -0.3788
      Cm =  0.0215     CD =  0.00935   =>   CDf =  0.00584    CDp =  0.00351

 Side 1  free  transition at x/c =  0.6717   55
 Side 2  free  transition at x/c =  0.4401   54

   5   rms: 0.4372E-01   max: -.7570E+00   C at   54  2   RLX: 0.660
       a = -3.500      CL = -0.3737
      Cm =  0.0218     CD =  0.00926   =>   CDf =  0.00583    CDp =  0.00342

 Side 1  free  transition at x/c =  0.6696   55
 Side 2  free  transition at x/c =  0.4536   55

   6   rms: 0.2726E-01   max: -.4382E+00   C at   55  2
       a = -3.500      CL = -0.3714
      Cm =  0.0219     CD =  0.00918   =>   CDf =  0.00582    CDp =  0.00335

 Side 1  free  transition at x/c =  0.6686   55
 Side 2  free  transition at x/c =  0.4692   55

   7   rms: 0.5108E-02   max: -.9784E-01   C at   55  2
       a = -3.500      CL = -0.3707
      Cm =  0.0219     CD =  0.00924   =>   CDf =  0.00573    CDp =  0.00351

 Side 1  free  transition at x/c =  0.6685   55
 Side 2  free  transition at x/c =  0.4712   56

   8   rms: 0.2779E-02   max: -.4889E-01   C at   56  2
       a = -3.500      CL = -0.3708
      Cm =  0.0219     CD =  0.00923   =>   CDf =  0.00572    CDp =  0.00351

 Side 1  free  transition at x/c =  0.6685   55
 Side 2  free  transition at x/c =  0.4718   56

   9   rms: 0.4901E-04   max: 0.8569E-03   C at   56  2
       a = -3.500      CL = -0.3708
      Cm =  0.0219     CD =  0.00923   =>   CDf =  0.00571    CDp =  0.00353
 plradd ia,ip,cpol            2           0  1.22496090E-03

 Point added to stored polar  1
 Point written to save file  mh91_Re400k.base.pol                            
 Dump file unspecified or not available
 Calculating wake trajectory ...
 Calculating source influence matrix ...

 Solving BL system ...

 Side 1  free  transition at x/c =  0.6685   55
 Side 2  free  transition at x/c =  0.4718   56

   1   rms: 0.1605E+00   max: -.2397E+01   C at   56  2   RLX: 0.209
       a = -3.000      CL = -0.3618
      Cm =  0.0224     CD =  0.00906   =>   CDf =  0.00579    CDp =  0.00328

 Side 1  free  transition at x/c =  0.6644   55
 Side 2  free  transition at x/c =  0.4872   55

   2   rms: 0.8132E-01   max: -.3822E+00   D at    2  1
       a = -3.000      CL = -0.3161
      Cm =  0.0224     CD =  0.00901   =>   CDf =  0.00572    CDp =  0.00329

 Side 1  free  transition at x/c =  0.6404   54
 Side 2  free  transition at x/c =  0.6013   62

   3   rms: 0.3962E-01   max: 0.5617E+00   D at   55  2
       a = -3.000      CL = -0.3266
      Cm =  0.0244     CD =  0.00846   =>   CDf =  0.00542    CDp =  0.00304

 Side 1  free  transition at x/c =  0.6459   54
 Side 2  free  transition at x/c =  0.5875   61

   4   rms: 0.1717E-01   max: -.2549E+00   D at   62  2
       a = -3.000      CL = -0.3234
      Cm =  0.0238     CD =  0.00860   =>   CDf =  0.00539    CDp =  0.00322

 Side 1  free  transition at x/c =  0.6449   54
 Side 2  free  transition at x/c =  0.5736   60

   5   rms: 0.2036E-02   max: 0.2327E-01   D at   63  2
       a = -3.000      CL = -0.3227
      Cm =  0.0236     CD =  0.00868   =>   CDf =  0.00542    CDp =  0.00325

 Side 1  free  transition at x/c =  0.6448   54
 Side 2  free  transition at x/c =  0.5725   60

   6   rms: 0.1654E-04   max: -.1728E-03   C at   60  2
       a = -3.000      CL = -0.3227
      Cm =  0.0236     CD =  0.00868   =>   CDf =  0.00542    CDp =  0.00325
 plradd ia,ip,cpol            3           0  2.46610306E-03

 Point added to stored polar  1
 Point written to save file  mh91_Re400k.base.pol                            
 Dump file unspecified or not available
 Calculating wake trajectory ...
 Calculating source influence matrix ...

 Solving BL system ...

 Side 1  free  transition at x/c =  0.6448   54
 Side 2  free  transition at x/c =  0.5725   60

   1   rms: 0.1081E+00   max: -.1212E+01   C at   60  2   RLX: 0.413
       a = -2.500      CL = -0.3012
      Cm =  0.0241     CD =  0.00853   =>   CDf =  0.00542    CDp =  0.00311

 Side 1  free  transition at x/c =  0.6328   54
 Side 2  free  transition at x/c =  0.6024   62

   2   rms: 0.7545E-01   max: -.1032E+01   C at   62  2   RLX: 0.484
       a = -2.500      CL = -0.2879
      Cm =  0.0248     CD =  0.00844   =>   CDf =  0.00545    CDp =  0.00299

 Side 1  free  transition at x/c =  0.6278   54
 Side 2  free  transition at x/c =  0.6211   62

   3   rms: 0.4193E-01   max: -.5304E+00   C at   62  2   RLX: 0.943
       a = -2.500      CL = -0.2729
      Cm =  0.0251     CD =  0.00830   =>   CDf =  0.00538    CDp =  0.00292

 Side 1  free  transition at x/c =  0.6198   54
 Side 2  free  transition at x/c =  0.6489   64

   4   rms: 0.1577E-01   max: -.2524E+00   C at   64  2
       a = -2.500      CL = -0.2729
      Cm =  0.0253     CD =  0.00827   =>   CDf =  0.00529    CDp =  0.00298

 Side 1  free  transition at x/c =  0.6204   54
 Side 2  free  transition at x/c =  0.6573   64

   5   rms: 0.2465E-02   max: -.4350E-01   C at   64  2
       a = -2.500      CL = -0.2728
      Cm =  0.0253     CD =  0.00830   =>   CDf =  0.00520    CDp =  0.00310

 Side 1  free  transition at x/c =  0.6204   54
 Side 2  free  transition at x/c =  0.6585   64

   6   rms: 0.4179E-04   max: 0.5703E-03   C at   64  2
       a = -2.500      CL = -0.2728
      Cm =  0.0253     CD =  0.00830   =>   CDf =  0.00519    CDp =  0.00311
 plradd ia,ip,cpol            4           0  2.46610306E-03

 Point added to stored polar  1
 Point written to save file  mh91_Re400k.base.pol                            
 Dump file unspecified or not available
 Calculating wake trajectory ...
 Calculating source influence matrix ...

 Solving BL system ...

 Side 1  free  transition at x/c =  0.6204   54
 Side 2  free  transition at x/c =  0.6585   64

   1   rms: 0.1064E+00   max: -.9703E+00   C at   64  2   RLX: 0.515
       a = -2.000      CL = -0.2465
      Cm =  0.0261     CD =  0.00822   =>   CDf =  0.00519    CDp =  0.00302

 Side 1  free  transition at x/c =  0.6081   53
 Side 2  free  transition at x/c =  0.6834   66

   2   rms: 0.5826E-01   max: -.6061E+00   C at   66  2   RLX: 0.825
       a = -2.000      CL = -0.2245
      Cm =  0.0264     CD =  0.00807   =>   CDf =  0.00532    CDp =  0.00276

 Side 1  free  transition at x/c =  0.5964   54
 Side 2  free  transition at x/c =  0.6989   66

   3   rms: 0.1184E+00   max: -.1928E+01   T at    2  1   RLX: 0.259
       a = -2.000      CL = -0.2209
      Cm =  0.0253     CD =  0.00845   =>   CDf =  0.00545    CDp =  0.00300

 Side 1  free  transition at x/c =  0.5964   54
 Side 2  free  transition at x/c =  0.7030   66

   4   rms: 0.3139E-01   max: -.3562E+00   C at   66  2
       a = -2.000      CL = -0.2195
      Cm =  0.0263     CD =  0.00808   =>   CDf =  0.00537    CDp =  0.00270

 Side 1  free  transition at x/c =  0.5964   54
 Side 2  free  transition at x/c =  0.7255   67

   5   rms: 0.1246E-01   max: 0.2000E+00   C at   67  2
       a = -2.000      CL = -0.2202
      Cm =  0.0266     CD =  0.00819   =>   CDf =  0.00509    CDp =  0.00310

 Side 1  free  transition at x/c =  0.5963   54
 Side 2  free  transition at x/c =  0.7192   67

   6   rms: 0.9182E-03   max: -.1380E-01   D at   69  2
       a = -2.000      CL = -0.2202
      Cm =  0.0266     CD =  0.00820   =>   CDf =  0.00515    CDp =  0.00305

 Side 1  free  transition at x/c =  0.5963   54
 Side 2  free  transition at x/c =  0.7189   67

   7   rms: 0.5284E-05   max: -.6610E-04   D at   69  2
       a = -2.000      CL = -0.2202
      Cm =  0.0266     CD =  0.00820   =>   CDf =  0.00515    CDp =  0.00305
 plradd ia,ip,cpol            5           0  2.46610306E-03

 Point added to stored polar  1
 Point written to save file  mh91_Re400k.base.pol                            
 Dump file unspecified or not available
 Calculating wake trajectory ...
 Calculating source influence matrix ...

 Solving BL system ...

 Side 1  free  transition at x/c =  0.5963   54
 Side 2  free  transition at x/c =  0.7189   67

   1   rms: 0.9479E-01   max: -.5935E+00   C at   67  2   RLX: 0.842
       a = -1.500      CL = -0.1755
      Cm =  0.0277     CD =  0.00821   =>   CDf =  0.00515    CDp =  0.00306

 Side 1  free  transition at x/c =  0.5781   53
 Side 2  free  transition at x/c =  0.7423   68

   2   rms: 0.3117E-01   max: -.2911E+00   D at   53  1
       a = -1.500      CL = -0.1657
      Cm =  0.0274     CD =  0.00819   =>   CDf =  0.00528    CDp =  0.00290

 Side 1  free  transition at x/c =  0.5737   52
 Side 2  free  transition at x/c =  0.7637   69

   3   rms: 0.1276E-01   max: 0.1940E+00   C at   69  2
       a = -1.500      CL = -0.1657
      Cm =  0.0275     CD =  0.00820   =>   CDf =  0.00513    CDp =  0.00307

 Side 1  free  transition at x/c =  0.5721   52
 Side 2  free  transition at x/c =  0.7595   69

   4   rms: 0.1361E-02   max: -.1928E-01   D at   72  2
       a = -1.500      CL = -0.1657
      Cm =  0.0275     CD =  0.00821   =>   CDf =  0.00517    CDp =  0.00304

 Side 1  free  transition at x/c =  0.5722   52
 Side 2  free  transition at x/c =  0.7587   69

   5   rms: 0.2090E-04   max: -.2661E-03   C at   69  2
       a = -1.500      CL = -0.1657
      Cm =  0.0275     CD =  0.00821   =>   CDf =  0.00518    CDp =  0.00304
 plradd ia,ip,cpol            6           0  2.46610306E-03

 Point added to stored polar  1
 Point written to save file  mh91_Re400k.base.pol                            
 Dump file unspecified or not available
 Calculating wake trajectory ...
 Calculating source influence matrix ...

 Solving BL system ...

 Side 1  free  transition at x/c =  0.5722   52
 Side 2  free  transition at x/c =  0.7587   69

   1   rms: 0.8439E-01   max: 0.3257E+00   D at   70  2
       a = -1.000      CL = -0.1106
      Cm =  0.0283     CD =  0.00824   =>   CDf =  0.00521    CDp =  0.00302

 Side 1  free  transition at x/c =  0.5448   52
 Side 2  free  transition at x/c =  0.7860   70

   2   rms: 0.2325E-01   max: -.2822E+00   D at   52  1
       a = -1.000      CL = -0.1107
      Cm =  0.0283     CD =  0.00824   =>   CDf =  0.00539    CDp =  0.00285

 Side 1  free  transition at x/c =  0.5489   52
 Side 2  free  transition at x/c =  0.7914   70

   3   rms: 0.4299E-02   max: 0.6284E-01   C at   52  1
       a = -1.000      CL = -0.1108
      Cm =  0.0283     CD =  0.00831   =>   CDf =  0.00523    CDp =  0.00308

 Side 1  free  transition at x/c =  0.5472   52
 Side 2  free  transition at x/c =  0.7911   70

   4   rms: 0.1109E-03   max: -.1776E-02   D at   54  1
       a = -1.000      CL = -0.1108
      Cm =  0.0283     CD =  0.00831   =>   CDf =  0.00525    CDp =  0.00306

 Side 1  free  transition at x/c =  0.5472   52
 Side 2  free  transition at x/c =  0.7911   70

   5   rms: 0.1283E-05   max: -.8985E-05   D at   53  1
       a = -1.000      CL = -0.1108
      Cm =  0.0283     CD =  0.00831   =>   CDf =  0.00525    CDp =  0.00306
 plradd ia,ip,cpol            7           0  0.16431448    

 Point added to stored polar  1
 Point written to save file  mh91_Re400k.base.pol                            
 Dump file unspecified or not available
 Calculating wake trajectory ...
 Calculating source influence matrix ...

 Solving BL system ...

 Side 1  free  transition at x/c =  0.5472   52
 Side 2  free  transition at x/c =  0.7911   70

   1   rms: 0.8727E-01   max: 0.3397E+00   D at   71  2
       a = -0.500      CL = -0.0560
      Cm =  0.0293     CD =  0.00846   =>   CDf =  0.00528    CDp =  0.00318

 Side 1  free  transition at x/c =  0.5238   51
 Side 2  free  transition at x/c =  0.8090   70

   2   rms: 0.2998E-01   max: -.3880E+00   D at   52  1
       a = -0.500      CL = -0.0559
      Cm =  0.0291     CD =  0.00841   =>   CDf =  0.00543    CDp =  0.00297

 Side 1  free  transition at x/c =  0.5252   52
 Side 2  free  transition at x/c =  0.8169   70

   3   rms: 0.3440E-02   max: -.4809E-01   D at   51  1
       a = -0.500      CL = -0.0559
      Cm =  0.0291     CD =  0.00848   =>   CDf =  0.00539    CDp =  0.00310

 Side 1  free  transition at x/c =  0.5235   51
 Side 2  free  transition at x/c =  0.8166   70

   4   rms: 0.2578E-03   max: 0.3528E-02   D at   52  1
       a = -0.500      CL = -0.0559
      Cm =  0.0291     CD =  0.00848   =>   CDf =  0.00538    CDp =  0.00310

 Side 1  free  transition at x/c =  0.5234   51
 Side 2  free  transition at x/c =  0.8166   70

   5   rms: 0.1419E-05   max: -.1168E-04   D at   52  1
       a = -0.500      CL = -0.0559
      Cm =  0.0291     CD =  0.00848   =>   CDf =  0.00538    CDp =  0.00310
 plradd ia,ip,cpol            8           0  0.15077047    

 Point added to stored polar  1
 Point written to save file  mh91_Re400k.base.pol                            
 Dump file unspecified or not available
 Calculating wake trajectory ...
 Calculating source influence matrix ...

 Solving BL system ...

 Side 1  free  transition at x/c =  0.5234   51
 Side 2  free  transition at x/c =  0.8166   70

   1   rms: 0.8056E-01   max: -.3085E+00   T at   70  2
       a =  0.000      CL = -0.0003
      Cm =  0.0296     CD =  0.00851   =>   CDf =  0.00540    CDp =  0.00311

 Side 1  free  transition at x/c =  0.4954   51
 Side 2  free  transition at x/c =  0.8396   71

   2   rms: 0.1809E-01   max: -.2272E+00   D at   51  1
       a =  0.000      CL = -0.0010
      Cm =  0.0298     CD =  0.00861   =>   CDf =  0.00555    CDp =  0.00306

 Side 1  free  transition at x/c =  0.5004   51
 Side 2  free  transition at x/c =  0.8383   70

   3   rms: 0.3384E-02   max: 0.4705E-01   C at   51  1
       a =  0.000      CL = -0.0008
      Cm =  0.0298     CD =  0.00863   =>   CDf =  0.00546    CDp =  0.00317

 Side 1  free  transition at x/c =  0.4989   51
 Side 2  free  transition at x/c =  0.8378   70

   4   rms: 0.7917E-04   max: -.1359E-02   D at   53  1
       a =  0.000      CL = -0.0008
      Cm =  0.0298     CD =  0.00863   =>   CDf =  0.00548    CDp =  0.00316
 plradd ia,ip,cpol            9           0  0.13770892    

 Point added to stored polar  1
 Point written to save file  mh91_Re400k.base.pol                            
 Dump file unspecified or not available
 Calculating wake trajectory ...
 Calculating source influence matrix ...

 Solving BL system ...

 Side 1  free  transition at x/c =  0.4989   51
 Side 2  free  transition at x/c =  0.8378   70

   1   rms: 0.8230E-01   max: -.3480E+00   T at   70  2
       a =  0.500      CL =  0.0529
      Cm =  0.0304     CD =  0.00879   =>   CDf =  0.00547    CDp =  0.00331

 MRCHDU: Convergence failed at  72  side 2    Res =  0.7274E+01
 MRCHDU: Convergence failed at  73  side 2    Res =  0.3086E+01
 MRCHDU: Convergence failed at  74  side 2    Res =  0.2841E+01
 MRCHDU: Convergence failed at  75  side 2    Res =  0.4671E+01
 MRCHDU: Convergence failed at  76  side 2    Res =  0.6907E+01
 MRCHDU: Convergence failed at  77  side 2    Res =  0.8832E+01
 MRCHDU: Convergence failed at  78  side 2    Res =  0.9863E+01
 MRCHDU: Convergence failed at  79  side 2    Res =  0.9981E+01
 MRCHDU: Convergence failed at  80  side 2    Res =  0.9869E+01
 MRCHDU: Convergence failed at  81  side 2    Res =  0.8190E+01
 Side 1  free  transition at x/c =  0.4739   50
 Side 2  free  transition at x/c =  0.8635   72

   2   rms: 0.1701E+00   max: 0.1053E+01   T at   81  2
       a =  0.500      CL =  0.1051
      Cm =  0.0203     CD =  0.00817   =>   CDf =  0.00544    CDp =  0.00273

 Side 1  free  transition at x/c =  0.4711   50
 Side 2  free  transition at x/c =  0.8381   69
 idif Ue xi dudx           1  0.13447751      2.23267078E-03   60.231678    
 Uenew xinew           2  1.09425876E-02  1.81674957E-04

   3   rms: 0.7026E-01   max: -.5489E+00   D at   71  2   RLX: 0.911
       a =  0.500      CL =  0.0630
      Cm =  0.0279     CD =  0.00918   =>   CDf =  0.00569    CDp =  0.00349

 MRCHDU: Convergence failed at  72  side 2    Res =  0.5143E+01
 MRCHDU: Convergence failed at  73  side 2    Res =  0.2995E+01
 MRCHDU: Convergence failed at  74  side 2    Res =  0.5404E+01
 MRCHDU: Convergence failed at  75  side 2    Res =  0.9240E+01
 MRCHDU: Convergence failed at  76  side 2    Res =  0.1066E+02
 MRCHDU: Convergence failed at  77  side 2    Res =  0.1003E+02
 MRCHDU: Convergence failed at  78  side 2    Res =  0.9141E+01
 MRCHDU: Convergence failed at  79  side 2    Res =  0.8486E+01
 MRCHDU: Convergence failed at  80  side 2    Res =  0.8158E+01
 MRCHDU: Convergence failed at  81  side 2    Res =  0.7020E+01
 Side 1  free  transition at x/c =  0.4741   50
 Side 2  free  transition at x/c =  0.8680   72

   4   rms: 0.1673E+00   max: 0.1038E+01   T at   81  2
       a =  0.500      CL =  0.1025
      Cm =  0.0209     CD =  0.00825   =>   CDf =  0.00545    CDp =  0.00280

 Side 1  free  transition at x/c =  0.4702   50
 Side 2  free  transition at x/c =  0.8380   69
 idif Ue xi dudx           1  0.13373213      2.21860409E-03   60.277599    
 Uenew xinew           2  1.01030236E-02  1.67608261E-04

   5   rms: 0.7007E-01   max: -.5658E+00   D at   71  2   RLX: 0.884
       a =  0.500      CL =  0.0640
      Cm =  0.0277     CD =  0.00921   =>   CDf =  0.00569    CDp =  0.00352

 MRCHDU: Convergence failed at  72  side 2    Res =  0.4137E+01
 MRCHDU: Convergence failed at  73  side 2    Res =  0.2872E+01
 MRCHDU: Convergence failed at  74  side 2    Res =  0.4785E+01
 MRCHDU: Convergence failed at  75  side 2    Res =  0.8067E+01
 MRCHDU: Convergence failed at  76  side 2    Res =  0.9805E+01
 MRCHDU: Convergence failed at  77  side 2    Res =  0.9694E+01
 MRCHDU: Convergence failed at  78  side 2    Res =  0.9061E+01
 MRCHDU: Convergence failed at  79  side 2    Res =  0.8502E+01
 MRCHDU: Convergence failed at  80  side 2    Res =  0.8202E+01
 MRCHDU: Convergence failed at  81  side 2    Res =  0.7067E+01
 Side 1  free  transition at x/c =  0.4738   50
 Side 2  free  transition at x/c =  0.8669   72

   6   rms: 0.1677E+00   max: 0.1041E+01   T at   81  2
       a =  0.500      CL =  0.1029
      Cm =  0.0208     CD =  0.00826   =>   CDf =  0.00546    CDp =  0.00281

 Side 1  free  transition at x/c =  0.4702   50
 Side 2  free  transition at x/c =  0.8380   69
 idif Ue xi dudx           1  0.13396762      2.22229958E-03   60.283333    
 Uenew xinew           2  1.03267608E-02  1.71303749E-04

   7   rms: 0.6996E-01   max: -.5615E+00   D at   71  2   RLX: 0.891
       a =  0.500      CL =  0.0637
      Cm =  0.0278     CD =  0.00920   =>   CDf =  0.00569    CDp =  0.00351

 MRCHDU: Convergence failed at  72  side 2    Res =  0.4627E+01
 MRCHDU: Convergence failed at  73  side 2    Res =  0.2858E+01
 MRCHDU: Convergence failed at  74  side 2    Res =  0.4865E+01
 MRCHDU: Convergence failed at  75  side 2    Res =  0.8281E+01
 MRCHDU: Convergence failed at  76  side 2    Res =  0.9978E+01
 MRCHDU: Convergence failed at  77  side 2    Res =  0.9764E+01
 MRCHDU: Convergence failed at  78  side 2    Res =  0.9074E+01
 MRCHDU: Convergence failed at  79  side 2    Res =  0.8466E+01
 MRCHDU: Convergence failed at  80  side 2    Res =  0.8187E+01
 MRCHDU: Convergence failed at  81  side 2    Res =  0.7053E+01
 Side 1  free  transition at x/c =  0.4738   50
 Side 2  free  transition at x/c =  0.8671   72

   8   rms: 0.1676E+00   max: 0.1040E+01   T at   81  2
       a =  0.500      CL =  0.1028
      Cm =  0.0208     CD =  0.00826   =>   CDf =  0.00545    CDp =  0.00281

 Side 1  free  transition at x/c =  0.4702   50
 Side 2  free  transition at x/c =  0.8380   69
 idif Ue xi dudx           1  0.13391876      2.22146511E-03   60.283981    
 Uenew xinew           2  1.02765672E-02  1.70469284E-04

   9   rms: 0.6998E-01   max: -.5624E+00   D at   71  2   RLX: 0.889
       a =  0.500      CL =  0.0638
      Cm =  0.0278     CD =  0.00921   =>   CDf =  0.00569    CDp =  0.00351

 MRCHDU: Convergence failed at  72  side 2    Res =  0.4516E+01
 MRCHDU: Convergence failed at  73  side 2    Res =  0.2860E+01
 MRCHDU: Convergence failed at  74  side 2    Res =  0.4845E+01
 MRCHDU: Convergence failed at  75  side 2    Res =  0.8239E+01
 MRCHDU: Convergence failed at  76  side 2    Res =  0.9946E+01
 MRCHDU: Convergence failed at  77  side 2    Res =  0.9752E+01
 MRCHDU: Convergence failed at  78  side 2    Res =  0.9073E+01
 MRCHDU: Convergence failed at  79  side 2    Res =  0.8496E+01
 MRCHDU: Convergence failed at  80  side 2    Res =  0.8191E+01
 MRCHDU: Convergence failed at  81  side 2    Res =  0.7056E+01
 Side 1  free  transition at x/c =  0.4738   50
 Side 2  free  transition at x/c =  0.8670   72

  10   rms: 0.1676E+00   max: 0.1041E+01   T at   81  2
       a =  0.500      CL =  0.1029
      Cm =  0.0208     CD =  0.00826   =>   CDf =  0.00545    CDp =  0.00281

 Side 1  free  transition at x/c =  0.4702   50
 Side 2  free  transition at x/c =  0.8380   69
 idif Ue xi dudx           1  0.13392913      2.22170353E-03   60.282181    
 Uenew xinew           2  1.02906330E-02  1.70707703E-04

  11   rms: 0.6997E-01   max: -.5622E+00   D at   71  2   RLX: 0.889
       a =  0.500      CL =  0.0638
      Cm =  0.0278     CD =  0.00921   =>   CDf =  0.00569    CDp =  0.00351

 MRCHDU: Convergence failed at  72  side 2    Res =  0.4538E+01
 MRCHDU: Convergence failed at  73  side 2    Res =  0.2860E+01
 MRCHDU: Convergence failed at  74  side 2    Res =  0.4848E+01
 MRCHDU: Convergence failed at  75  side 2    Res =  0.8247E+01
 MRCHDU: Convergence failed at  76  side 2    Res =  0.9952E+01
 MRCHDU: Convergence failed at  77  side 2    Res =  0.9754E+01
 MRCHDU: Convergence failed at  78  side 2    Res =  0.9073E+01
 MRCHDU: Convergence failed at  79  side 2    Res =  0.8495E+01
 MRCHDU: Convergence failed at  80  side 2    Res =  0.8190E+01
 MRCHDU: Convergence failed at  81  side 2    Res =  0.7056E+01
 Side 1  free  transition at x/c =  0.4738   50
 Side 2  free  transition at x/c =  0.8670   72

  12   rms: 0.1676E+00   max: 0.1041E+01   T at   81  2
       a =  0.500      CL =  0.1029
      Cm =  0.0208     CD =  0.00826   =>   CDf =  0.00545    CDp =  0.00281

 Side 1  free  transition at x/c =  0.4702   50
 Side 2  free  transition at x/c =  0.8380   69
 idif Ue xi dudx           1  0.13392666      2.22158432E-03   60.284302    
 Uenew xinew           2  1.02838082E-02  1.70588493E-04

  13   rms: 0.6997E-01   max: -.5622E+00   D at   71  2   RLX: 0.889
       a =  0.500      CL =  0.0638
      Cm =  0.0278     CD =  0.00921   =>   CDf =  0.00569    CDp =  0.00351

 MRCHDU: Convergence failed at  72  side 2    Res =  0.4533E+01
 MRCHDU: Convergence failed at  73  side 2    Res =  0.2860E+01
 MRCHDU: Convergence failed at  74  side 2    Res =  0.4848E+01
 MRCHDU: Convergence failed at  75  side 2    Res =  0.8246E+01
 MRCHDU: Convergence failed at  76  side 2    Res =  0.9951E+01
 MRCHDU: Convergence failed at  77  side 2    Res =  0.9754E+01
 MRCHDU: Convergence failed at  78  side 2    Res =  0.9073E+01
 MRCHDU: Convergence failed at  79  side 2    Res =  0.8495E+01
 MRCHDU: Convergence failed at  80  side 2    Res =  0.8191E+01
 MRCHDU: Convergence failed at  81  side 2    Res =  0.7056E+01
 Side 1  free  transition at x/c =  0.4738   50
 Side 2  free  transition at x/c =  0.8670   72

  14   rms: 0.1676E+00   max: 0.1041E+01   T at   81  2
       a =  0.500      CL =  0.1029
      Cm =  0.0208     CD =  0.00826   =>   CDf =  0.00545    CDp =  0.00281

 Side 1  free  transition at x/c =  0.4702   50
 Side 2  free  transition at x/c =  0.8380   69
 idif Ue xi dudx           1  0.13392738      2.22158432E-03   60.284622    
 Uenew xinew           2  1.02838632E-02  1.70588493E-04

  15   rms: 0.6997E-01   max: -.5622E+00   D at   71  2   RLX: 0.889
       a =  0.500      CL =  0.0638
      Cm =  0.0278     CD =  0.00921   =>   CDf =  0.00569    CDp =  0.00351

 MRCHDU: Convergence failed at  72  side 2    Res =  0.4534E+01
 MRCHDU: Convergence failed at  73  side 2    Res =  0.2860E+01
 MRCHDU: Convergence failed at  74  side 2    Res =  0.4848E+01
 MRCHDU: Convergence failed at  75  side 2    Res =  0.8246E+01
 MRCHDU: Convergence failed at  76  side 2    Res =  0.9952E+01
 MRCHDU: Convergence failed at  77  side 2    Res =  0.9754E+01
 MRCHDU: Convergence failed at  78  side 2    Res =  0.9073E+01
 MRCHDU: Convergence failed at  79  side 2    Res =  0.8495E+01
 MRCHDU: Convergence failed at  80  side 2    Res =  0.8191E+01
 MRCHDU: Convergence failed at  81  side 2    Res =  0.7056E+01
 Side 1  free  transition at x/c =  0.4738   50
 Side 2  free  transition at x/c =  0.8670   72

  16   rms: 0.1676E+00   max: 0.1041E+01   T at   81  2
       a =  0.500      CL =  0.1029
      Cm =  0.0208     CD =  0.00826   =>   CDf =  0.00545    CDp =  0.00281

 Side 1  free  transition at x/c =  0.4702   50
 Side 2  free  transition at x/c =  0.8380   69
 idif Ue xi dudx           1  0.13392796      2.22158432E-03   60.284885    
 Uenew xinew           2  1.02839079E-02  1.70588493E-04

  17   rms: 0.6997E-01   max: -.5622E+00   D at   71  2   RLX: 0.889
       a =  0.500      CL =  0.0638
      Cm =  0.0278     CD =  0.00921   =>   CDf =  0.00569    CDp =  0.00351

 MRCHDU: Convergence failed at  72  side 2    Res =  0.4534E+01
 MRCHDU: Convergence failed at  73  side 2    Res =  0.2860E+01
 MRCHDU: Convergence failed at  74  side 2    Res =  0.4847E+01
 MRCHDU: Convergence failed at  75  side 2    Res =  0.8245E+01
 MRCHDU: Convergence failed at  76  side 2    Res =  0.9951E+01
 MRCHDU: Convergence failed at  77  side 2    Res =  0.9753E+01
 MRCHDU: Convergence failed at  78  side 2    Res =  0.9073E+01
 MRCHDU: Convergence failed at  79  side 2    Res =  0.8495E+01
 MRCHDU: Convergence failed at  80  side 2    Res =  0.8190E+01
 MRCHDU: Convergence failed at  81  side 2    Res =  0.7056E+01
 Side 1  free  transition at x/c =  0.4738   50
 Side 2  free  transition at x/c =  0.8670   72

  18   rms: 0.1676E+00   max: 0.1041E+01   T at   81  2
       a =  0.500      CL =  0.1029
      Cm =  0.0208     CD =  0.00826   =>   CDf =  0.00545    CDp =  0.00281

 Side 1  free  transition at x/c =  0.4702   50
 Side 2  free  transition at x/c =  0.8380   69
 idif Ue xi dudx           1  0.13392752      2.22158432E-03   60.284691    
 Uenew xinew           2  1.02838743E-02  1.70588493E-04

  19   rms: 0.6997E-01   max: -.5622E+00   D at   71  2   RLX: 0.889
       a =  0.500      CL =  0.0638
      Cm =  0.0278     CD =  0.00921   =>   CDf =  0.00569    CDp =  0.00351

 MRCHDU: Convergence failed at  72  side 2    Res =  0.4534E+01
 MRCHDU: Convergence failed at  73  side 2    Res =  0.2860E+01
 MRCHDU: Convergence failed at  74  side 2    Res =  0.4848E+01
 MRCHDU: Convergence failed at  75  side 2    Res =  0.8246E+01
 MRCHDU: Convergence failed at  76  side 2    Res =  0.9951E+01
 MRCHDU: Convergence failed at  77  side 2    Res =  0.9754E+01
 MRCHDU: Convergence failed at  78  side 2    Res =  0.9073E+01
 MRCHDU: Convergence failed at  79  side 2    Res =  0.8495E+01
 MRCHDU: Convergence failed at  80  side 2    Res =  0.8191E+01
 MRCHDU: Convergence failed at  81  side 2    Res =  0.7056E+01
 Side 1  free  transition at x/c =  0.4738   50
 Side 2  free  transition at x/c =  0.8670   72

  20   rms: 0.1676E+00   max: 0.1041E+01   T at   81  2
       a =  0.500      CL =  0.1029
      Cm =  0.0208     CD =  0.00826   =>   CDf =  0.00545    CDp =  0.00281

 Side 1  free  transition at x/c =  0.4702   50
 Side 2  free  transition at x/c =  0.8380   69
 idif Ue xi dudx           1  0.13392760      2.22158432E-03   60.284725    
 Uenew xinew           2  1.02838809E-02  1.70588493E-04

  21   rms: 0.6997E-01   max: -.5622E+00   D at   71  2   RLX: 0.889
       a =  0.500      CL =  0.0638
      Cm =  0.0278     CD =  0.00921   =>   CDf =  0.00569    CDp =  0.00351

 MRCHDU: Convergence failed at  72  side 2    Res =  0.4534E+01
 MRCHDU: Convergence failed at  73  side 2    Res =  0.2860E+01
 MRCHDU: Convergence failed at  74  side 2    Res =  0.4848E+01
 MRCHDU: Convergence failed at  75  side 2    Res =  0.8246E+01
 MRCHDU: Convergence failed at  76  side 2    Res =  0.9951E+01
 MRCHDU: Convergence failed at  77  side 2    Res =  0.9754E+01
 MRCHDU: Convergence failed at  78  side 2    Res =  0.9073E+01
 MRCHDU: Convergence failed at  79  side 2    Res =  0.8495E+01
 MRCHDU: Convergence failed at  80  side 2    Res =  0.8190E+01
 MRCHDU: Convergence failed at  81  side 2    Res =  0.7056E+01
 Side 1  free  transition at x/c =  0.4738   50
 Side 2  free  transition at x/c =  0.8670   72

  22   rms: 0.1676E+00   max: 0.1041E+01   T at   81  2
       a =  0.500      CL =  0.1029
      Cm =  0.0208     CD =  0.00826   =>   CDf =  0.00545    CDp =  0.00281

 Side 1  free  transition at x/c =  0.4702   50
 Side 2  free  transition at x/c =  0.8380   69
 idif Ue xi dudx           1  0.13392743      2.22158432E-03   60.284649    
 Uenew xinew           2  1.02838678E-02  1.70588493E-04

  23   rms: 0.6997E-01   max: -.5622E+00   D at   71  2   RLX: 0.889
       a =  0.500      CL =  0.0638
      Cm =  0.0278     CD =  0.00921   =>   CDf =  0.00569    CDp =  0.00351

 MRCHDU: Convergence failed at  72  side 2    Res =  0.4534E+01
 MRCHDU: Convergence failed at  73  side 2    Res =  0.2860E+01
 MRCHDU: Convergence failed at  74  side 2    Res =  0.4848E+01
 MRCHDU: Convergence failed at  75  side 2    Res =  0.8246E+01
 MRCHDU: Convergence failed at  76  side 2    Res =  0.9951E+01
 MRCHDU: Convergence failed at  77  side 2    Res =  0.9754E+01
 MRCHDU: Convergence failed at  78  side 2    Res =  0.9073E+01
 MRCHDU: Convergence failed at  79  side 2    Res =  0.8495E+01
 MRCHDU: Convergence failed at  80  side 2    Res =  0.8191E+01
 MRCHDU: Convergence failed at  81  side 2    Res =  0.7056E+01
 Side 1  free  transition at x/c =  0.4738   50
 Side 2  free  transition at x/c =  0.8670   72

  24   rms: 0.1676E+00   max: 0.1041E+01   T at   81  2
       a =  0.500      CL =  0.1029
      Cm =  0.0208     CD =  0.00826   =>   CDf =  0.00545    CDp =  0.00281

 Side 1  free  transition at x/c =  0.4702   50
 Side 2  free  transition at x/c =  0.8380   69
 idif Ue xi dudx           1  0.13392764      2.22158432E-03   60.284744    
 Uenew xinew           2  1.02838837E-02  1.70588493E-04

  25   rms: 0.6997E-01   max: -.5622E+00   D at   71  2   RLX: 0.889
       a =  0.500      CL =  0.0638
      Cm =  0.0278     CD =  0.00921   =>   CDf =  0.00569    CDp =  0.00351

 MRCHDU: Convergence failed at  72  side 2    Res =  0.4535E+01
 MRCHDU: Convergence failed at  73  side 2    Res =  0.2860E+01
 MRCHDU: Convergence failed at  74  side 2    Res =  0.4848E+01
 MRCHDU: Convergence failed at  75  side 2    Res =  0.8247E+01
 MRCHDU: Convergence failed at  76  side 2    Res =  0.9952E+01
 MRCHDU: Convergence failed at  77  side 2    Res =  0.9754E+01
 MRCHDU: Convergence failed at  78  side 2    Res =  0.9073E+01
 MRCHDU: Convergence failed at  79  side 2    Res =  0.8495E+01
 MRCHDU: Convergence failed at  80  side 2    Res =  0.8191E+01
 MRCHDU: Convergence failed at  81  side 2    Res =  0.7056E+01
 Side 1  free  transition at x/c =  0.4738   50
 Side 2  free  transition at x/c =  0.8670   72

  26   rms: 0.1676E+00   max: 0.1041E+01   T at   81  2
       a =  0.500      CL =  0.1029
      Cm =  0.0208     CD =  0.00826   =>   CDf =  0.00545    CDp =  0.00281

 Side 1  free  transition at x/c =  0.4702   50
 Side 2  free  transition at x/c =  0.8380   69
 idif Ue xi dudx           1  0.13392727      2.22158432E-03   60.284576    
 Uenew xinew           2  1.02838548E-02  1.70588493E-04

  27   rms: 0.6997E-01   max: -.5622E+00   D at   71  2   RLX: 0.889
       a =  0.500      CL =  0.0638
      Cm =  0.0278     CD =  0.00921   =>   CDf =  0.00569    CDp =  0.00351

 MRCHDU: Convergence failed at  72  side 2    Res =  0.4534E+01
 MRCHDU: Convergence failed at  73  side 2    Res =  0.2860E+01
 MRCHDU: Convergence failed at  74  side 2    Res =  0.4848E+01
 MRCHDU: Convergence failed at  75  side 2    Res =  0.8246E+01
 MRCHDU: Convergence failed at  76  side 2    Res =  0.9951E+01
 MRCHDU: Convergence failed at  77  side 2    Res =  0.9754E+01
 MRCHDU: Convergence failed at  78  side 2    Res =  0.9073E+01
 MRCHDU: Convergence failed at  79  side 2    Res =  0.8495E+01
 MRCHDU: Convergence failed at  80  side 2    Res =  0.8191E+01
 MRCHDU: Convergence failed at  81  side 2    Res =  0.7056E+01
 Side 1  free  transition at x/c =  0.4738   50
 Side 2  free  transition at x/c =  0.8670   72

  28   rms: 0.1676E+00   max: 0.1041E+01   T at   81  2
       a =  0.500      CL =  0.1029
      Cm =  0.0208     CD =  0.00826   =>   CDf =  0.00545    CDp =  0.00281

 Side 1  free  transition at x/c =  0.4702   50
 Side 2  free  transition at x/c =  0.8380   69
 idif Ue xi dudx           1  0.13392735      2.22158432E-03   60.284611    
 Uenew xinew           2  1.02838613E-02  1.70588493E-04

  29   rms: 0.6997E-01   max: -.5622E+00   D at   71  2   RLX: 0.889
       a =  0.500      CL =  0.0638
      Cm =  0.0278     CD =  0.00921   =>   CDf =  0.00569    CDp =  0.00351

 MRCHDU: Convergence failed at  72  side 2    Res =  0.4535E+01
 MRCHDU: Convergence failed at  73  side 2    Res =  0.2860E+01
 MRCHDU: Convergence failed at  74  side 2    Res =  0.4848E+01
 MRCHDU: Convergence failed at  75  side 2    Res =  0.8247E+01
 MRCHDU: Convergence failed at  76  side 2    Res =  0.9952E+01
 MRCHDU: Convergence failed at  77  side 2    Res =  0.9755E+01
 MRCHDU: Convergence failed at  78  side 2    Res =  0.9073E+01
 MRCHDU: Convergence failed at  79  side 2    Res =  0.8495E+01
 MRCHDU: Convergence failed at  80  side 2    Res =  0.8191E+01
 MRCHDU: Convergence failed at  81  side 2    Res =  0.7056E+01
 Side 1  free  transition at x/c =  0.4738   50
 Side 2  free  transition at x/c =  0.8670   72

  30   rms: 0.1676E+00   max: 0.1041E+01   T at   81  2
       a =  0.500      CL =  0.1029
      Cm =  0.0208     CD =  0.00826   =>   CDf =  0.00545    CDp =  0.00281

 Side 1  free  transition at x/c =  0.4702   50
 Side 2  free  transition at x/c =  0.8380   69
 idif Ue xi dudx           1  0.13392740      2.22158432E-03   60.284637    
 Uenew xinew           2  1.02838650E-02  1.70588493E-04

  31   rms: 0.6997E-01   max: -.5622E+00   D at   71  2   RLX: 0.889
       a =  0.500      CL =  0.0638
      Cm =  0.0278     CD =  0.00921   =>   CDf =  0.00569    CDp =  0.00351

 MRCHDU: Convergence failed at  72  side 2    Res =  0.4534E+01
 MRCHDU: Convergence failed at  73  side 2    Res =  0.2860E+01
 MRCHDU: Convergence failed at  74  side 2    Res =  0.4848E+01
 MRCHDU: Convergence failed at  75  side 2    Res =  0.8246E+01
 MRCHDU: Convergence failed at  76  side 2    Res =  0.9951E+01
 MRCHDU: Convergence failed at  77  side 2    Res =  0.9754E+01
 MRCHDU: Convergence failed at  78  side 2    Res =  0.9073E+01
 MRCHDU: Convergence failed at  79  side 2    Res =  0.8495E+01
 MRCHDU: Convergence failed at  80  side 2    Res =  0.8191E+01
 MRCHDU: Convergence failed at  81  side 2    Res =  0.7056E+01
 Side 1  free  transition at x/c =  0.4738   50
 Side 2  free  transition at x/c =  0.8670   72

  32   rms: 0.1676E+00   max: 0.1041E+01   T at   81  2
       a =  0.500      CL =  0.1029
      Cm =  0.0208     CD =  0.00826   =>   CDf =  0.00545    CDp =  0.00281

 Side 1  free  transition at x/c =  0.4702   50
 Side 2  free  transition at x/c =  0.8380   69
 idif Ue xi dudx           1  0.13392784      2.22158432E-03   60.284832    
 Uenew xinew           2  1.02838986E-02  1.70588493E-04

  33   rms: 0.6997E-01   max: -.5622E+00   D at   71  2   RLX: 0.889
       a =  0.500      CL =  0.0638
      Cm =  0.0278     CD =  0.00921   =>   CDf =  0.00569    CDp =  0.00351

 MRCHDU: Convergence failed at  72  side 2    Res =  0.4534E+01
 MRCHDU: Convergence failed at  73  side 2    Res =  0.2860E+01
 MRCHDU: Convergence failed at  74  side 2    Res =  0.4848E+01
 MRCHDU: Convergence failed at  75  side 2    Res =  0.8246E+01
 MRCHDU: Convergence failed at  76  side 2    Res =  0.9951E+01
 MRCHDU: Convergence failed at  77  side 2    Res =  0.9754E+01
 MRCHDU: Convergence failed at  78  side 2    Res =  0.9073E+01
 MRCHDU: Convergence failed at  79  side 2    Res =  0.8495E+01
 MRCHDU: Convergence failed at  80  side 2    Res =  0.8191E+01
 MRCHDU: Convergence failed at  81  side 2    Res =  0.7056E+01
 Side 1  free  transition at x/c =  0.4738   50
 Side 2  free  transition at x/c =  0.8670   72

  34   rms: 0.1676E+00   max: 0.1041E+01   T at   81  2
       a =  0.500      CL =  0.1029
      Cm =  0.0208     CD =  0.00826   =>   CDf =  0.00545    CDp =  0.00281

 Side 1  free  transition at x/c =  0.4702   50
 Side 2  free  transition at x/c =  0.8380   69
 idif Ue xi dudx           1  0.13392740      2.22158432E-03   60.284637    
 Uenew xinew           2  1.02838650E-02  1.70588493E-04

  35   rms: 0.6997E-01   max: -.5622E+00   D at   71  2   RLX: 0.889
       a =  0.500      CL =  0.0638
      Cm =  0.0278     CD =  0.00921   =>   CDf =  0.00569    CDp =  0.00351

 MRCHDU: Convergence failed at  72  side 2    Res =  0.4534E+01
 MRCHDU: Convergence failed at  73  side 2    Res =  0.2860E+01
 MRCHDU: Convergence failed at  74  side 2    Res =  0.4848E+01
 MRCHDU: Convergence failed at  75  side 2    Res =  0.8246E+01
 MRCHDU: Convergence failed at  76  side 2    Res =  0.9951E+01
 MRCHDU: Convergence failed at  77  side 2    Res =  0.9754E+01
 MRCHDU: Convergence failed at  78  side 2    Res =  0.9073E+01
 MRCHDU: Convergence failed at  79  side 2    Res =  0.8495E+01
 MRCHDU: Convergence failed at  80  side 2    Res =  0.8191E+01
 MRCHDU: Convergence failed at  81  side 2    Res =  0.7056E+01
 Side 1  free  transition at x/c =  0.4738   50
 Side 2  free  transition at x/c =  0.8670   72

  36   rms: 0.1676E+00   max: 0.1041E+01   T at   81  2
       a =  0.500      CL =  0.1029
      Cm =  0.0208     CD =  0.00826   =>   CDf =  0.00545    CDp =  0.00281

 Side 1  free  transition at x/c =  0.4702   50
 Side 2  free  transition at x/c =  0.8380   69
 idif Ue xi dudx           1  0.13392751      2.22158432E-03   60.284683    
 Uenew xinew           2  1.02838734E-02  1.70588493E-04

  37   rms: 0.6997E-01   max: -.5622E+00   D at   71  2   RLX: 0.889
       a =  0.500      CL =  0.0638
      Cm =  0.0278     CD =  0.00921   =>   CDf =  0.00569    CDp =  0.00351

 MRCHDU: Convergence failed at  72  side 2    Res =  0.4534E+01
 MRCHDU: Convergence failed at  73  side 2    Res =  0.2860E+01
 MRCHDU: Convergence failed at  74  side 2    Res =  0.4848E+01
 MRCHDU: Convergence failed at  75  side 2    Res =  0.8246E+01
 MRCHDU: Convergence failed at  76  side 2    Res =  0.9951E+01
 MRCHDU: Convergence failed at  77  side 2    Res =  0.9754E+01
 MRCHDU: Convergence failed at  78  side 2    Res =  0.9073E+01
 MRCHDU: Convergence failed at  79  side 2    Res =  0.8495E+01
 MRCHDU: Convergence failed at  80  side 2    Res =  0.8191E+01
 MRCHDU: Convergence failed at  81  side 2    Res =  0.7056E+01
 Side 1  free  transition at x/c =  0.4738   50
 Side 2  free  transition at x/c =  0.8670   72

  38   rms: 0.1676E+00   max: 0.1041E+01   T at   81  2
       a =  0.500      CL =  0.1029
      Cm =  0.0208     CD =  0.00826   =>   CDf =  0.00545    CDp =  0.00281

 Side 1  free  transition at x/c =  0.4702   50
 Side 2  free  transition at x/c =  0.8380   69
 idif Ue xi dudx           1  0.13392760      2.22158432E-03   60.284725    
 Uenew xinew           2  1.02838809E-02  1.70588493E-04

  39   rms: 0.6997E-01   max: -.5622E+00   D at   71  2   RLX: 0.889
       a =  0.500      CL =  0.0638
      Cm =  0.0278     CD =  0.00921   =>   CDf =  0.00569    CDp =  0.00351

 MRCHDU: Convergence failed at  72  side 2    Res =  0.4534E+01
 MRCHDU: Convergence failed at  73  side 2    Res =  0.2860E+01
 MRCHDU: Convergence failed at  74  side 2    Res =  0.4848E+01
 MRCHDU: Convergence failed at  75  side 2    Res =  0.8246E+01
 MRCHDU: Convergence failed at  76  side 2    Res =  0.9951E+01
 MRCHDU: Convergence failed at  77  side 2    Res =  0.9754E+01
 MRCHDU: Convergence failed at  78  side 2    Res =  0.9073E+01
 MRCHDU: Convergence failed at  79  side 2    Res =  0.8495E+01
 MRCHDU: Convergence failed at  80  side 2    Res =  0.8191E+01
 MRCHDU: Convergence failed at  81  side 2    Res =  0.7056E+01
 Side 1  free  transition at x/c =  0.4738   50
 Side 2  free  transition at x/c =  0.8670   72

  40   rms: 0.1676E+00   max: 0.1041E+01   T at   81  2
       a =  0.500      CL =  0.1029
      Cm =  0.0208     CD =  0.00826   =>   CDf =  0.00545    CDp =  0.00281

 Side 1  free  transition at x/c =  0.4702   50
 Side 2  free  transition at x/c =  0.8380   69
 idif Ue xi dudx           1  0.13392726      2.22158432E-03   60.284569    
 Uenew xinew           2  1.02838539E-02  1.70588493E-04

  41   rms: 0.6997E-01   max: -.5622E+00   D at   71  2   RLX: 0.889
       a =  0.500      CL =  0.0638
      Cm =  0.0278     CD =  0.00921   =>   CDf =  0.00569    CDp =  0.00351

 MRCHDU: Convergence failed at  72  side 2    Res =  0.4535E+01
 MRCHDU: Convergence failed at  73  side 2    Res =  0.2860E+01
 MRCHDU: Convergence failed at  74  side 2    Res =  0.4848E+01
 MRCHDU: Convergence failed at  75  side 2    Res =  0.8247E+01
 MRCHDU: Convergence failed at  76  side 2    Res =  0.9952E+01
 MRCHDU: Convergence failed at  77  side 2    Res =  0.9754E+01
 MRCHDU: Convergence failed at  78  side 2    Res =  0.9073E+01
 MRCHDU: Convergence failed at  79  side 2    Res =  0.8495E+01
 MRCHDU: Convergence failed at  80  side 2    Res =  0.8191E+01
 MRCHDU: Convergence failed at  81  side 2    Res =  0.7056E+01
 Side 1  free  transition at x/c =  0.4738   50
 Side 2  free  transition at x/c =  0.8670   72

  42   rms: 0.1676E+00   max: 0.1041E+01   T at   81  2
       a =  0.500      CL =  0.1029
      Cm =  0.0208     CD =  0.00826   =>   CDf =  0.00545    CDp =  0.00281

 Side 1  free  transition at x/c =  0.4702   50
 Side 2  free  transition at x/c =  0.8380   69
 idif Ue xi dudx           1  0.13392761      2.22158432E-03   60.284733    
 Uenew xinew           2  1.02838818E-02  1.70588493E-04

  43   rms: 0.6997E-01   max: -.5622E+00   D at   71  2   RLX: 0.889
       a =  0.500      CL =  0.0638
      Cm =  0.0278     CD =  0.00921   =>   CDf =  0.00569    CDp =  0.00351

 MRCHDU: Convergence failed at  72  side 2    Res =  0.4533E+01
 MRCHDU: Convergence failed at  73  side 2    Res =  0.2860E+01
 MRCHDU: Convergence failed at  74  side 2    Res =  0.4848E+01
 MRCHDU: Convergence failed at  75  side 2    Res =  0.8245E+01
 MRCHDU: Convergence failed at  76  side 2    Res =  0.9951E+01
 MRCHDU: Convergence failed at  77  side 2    Res =  0.9754E+01
 MRCHDU: Convergence failed at  78  side 2    Res =  0.9073E+01
 MRCHDU: Convergence failed at  79  side 2    Res =  0.8495E+01
 MRCHDU: Convergence failed at  80  side 2    Res =  0.8190E+01
 MRCHDU: Convergence failed at  81  side 2    Res =  0.7056E+01
 Side 1  free  transition at x/c =  0.4738   50
 Side 2  free  transition at x/c =  0.8670   72

  44   rms: 0.1676E+00   max: 0.1041E+01   T at   81  2
       a =  0.500      CL =  0.1029
      Cm =  0.0208     CD =  0.00826   =>   CDf =  0.00545    CDp =  0.00281

 Side 1  free  transition at x/c =  0.4702   50
 Side 2  free  transition at x/c =  0.8380   69
 idif Ue xi dudx           1  0.13392757      2.22158432E-03   60.284710    
 Uenew xinew           2  1.02838781E-02  1.70588493E-04

  45   rms: 0.6997E-01   max: -.5622E+00   D at   71  2   RLX: 0.889
       a =  0.500      CL =  0.0638
      Cm =  0.0278     CD =  0.00921   =>   CDf =  0.00569    CDp =  0.00351

 MRCHDU: Convergence failed at  72  side 2    Res =  0.4535E+01
 MRCHDU: Convergence failed at  73  side 2    Res =  0.2860E+01
 MRCHDU: Convergence failed at  74  side 2    Res =  0.4848E+01
 MRCHDU: Convergence failed at  75  side 2    Res =  0.8246E+01
 MRCHDU: Convergence failed at  76  side 2    Res =  0.9951E+01
 MRCHDU: Convergence failed at  77  side 2    Res =  0.9754E+01
 MRCHDU: Convergence failed at  78  side 2    Res =  0.9073E+01
 MRCHDU: Convergence failed at  79  side 2    Res =  0.8495E+01
 MRCHDU: Convergence failed at  80  side 2    Res =  0.8191E+01
 MRCHDU: Convergence failed at  81  side 2    Res =  0.7056E+01
 Side 1  free  transition at x/c =  0.4738   50
 Side 2  free  transition at x/c =  0.8670   72

  46   rms: 0.1676E+00   max: 0.1041E+01   T at   81  2
       a =  0.500      CL =  0.1029
      Cm =  0.0208     CD =  0.00826   =>   CDf =  0.00545    CDp =  0.00281

 Side 1  free  transition at x/c =  0.4702   50
 Side 2  free  transition at x/c =  0.8380   69
 idif Ue xi dudx           1  0.13392782      2.22158432E-03   60.284824    
 Uenew xinew           2  1.02838976E-02  1.70588493E-04

  47   rms: 0.6997E-01   max: -.5622E+00   D at   71  2   RLX: 0.889
       a =  0.500      CL =  0.0638
      Cm =  0.0278     CD =  0.00921   =>   CDf =  0.00569    CDp =  0.00351

 MRCHDU: Convergence failed at  72  side 2    Res =  0.4533E+01
 MRCHDU: Convergence failed at  73  side 2    Res =  0.2860E+01
 MRCHDU: Convergence failed at  74  side 2    Res =  0.4847E+01
 MRCHDU: Convergence failed at  75  side 2    Res =  0.8245E+01
 MRCHDU: Convergence failed at  76  side 2    Res =  0.9950E+01
 MRCHDU: Convergence failed at  77  side 2    Res =  0.9754E+01
 MRCHDU: Convergence failed at  78  side 2    Res =  0.9073E+01
 MRCHDU: Convergence failed at  79  side 2    Res =  0.8495E+01
 MRCHDU: Convergence failed at  80  side 2    Res =  0.8190E+01
 MRCHDU: Convergence failed at  81  side 2    Res =  0.7056E+01
 Side 1  free  transition at x/c =  0.4738   50
 Side 2  free  transition at x/c =  0.8670   72

  48   rms: 0.1676E+00   max: 0.1041E+01   T at   81  2
       a =  0.500      CL =  0.1029
      Cm =  0.0208     CD =  0.00826   =>   CDf =  0.00545    CDp =  0.00281

 Side 1  free  transition at x/c =  0.4702   50
 Side 2  free  transition at x/c =  0.8380   69
 idif Ue xi dudx           1  0.13392736      2.22158432E-03   60.284618    
 Uenew xinew           2  1.02838622E-02  1.70588493E-04

  49   rms: 0.6997E-01   max: -.5622E+00   D at   71  2   RLX: 0.889
       a =  0.500      CL =  0.0638
      Cm =  0.0278     CD =  0.00921   =>   CDf =  0.00569    CDp =  0.00351

 MRCHDU: Convergence failed at  72  side 2    Res =  0.4534E+01
 MRCHDU: Convergence failed at  73  side 2    Res =  0.2860E+01
 MRCHDU: Convergence failed at  74  side 2    Res =  0.4848E+01
 MRCHDU: Convergence failed at  75  side 2    Res =  0.8246E+01
 MRCHDU: Convergence failed at  76  side 2    Res =  0.9951E+01
 MRCHDU: Convergence failed at  77  side 2    Res =  0.9754E+01
 MRCHDU: Convergence failed at  78  side 2    Res =  0.9073E+01
 MRCHDU: Convergence failed at  79  side 2    Res =  0.8495E+01
 MRCHDU: Convergence failed at  80  side 2    Res =  0.8191E+01
 MRCHDU: Convergence failed at  81  side 2    Res =  0.7056E+01
 Side 1  free  transition at x/c =  0.4738   50
 Side 2  free  transition at x/c =  0.8670   72

  50   rms: 0.1676E+00   max: 0.1041E+01   T at   81  2
       a =  0.500      CL =  0.1029
      Cm =  0.0208     CD =  0.00826   =>   CDf =  0.00545    CDp =  0.00281

 Side 1  free  transition at x/c =  0.4702   50
 Side 2  free  transition at x/c =  0.8380   69
 idif Ue xi dudx           1  0.13392758      2.22158432E-03   60.284718    
 Uenew xinew           2  1.02838790E-02  1.70588493E-04

  51   rms: 0.6997E-01   max: -.5622E+00   D at   71  2   RLX: 0.889
       a =  0.500      CL =  0.0638
      Cm =  0.0278     CD =  0.00921   =>   CDf =  0.00569    CDp =  0.00351

 MRCHDU: Convergence failed at  72  side 2    Res =  0.4534E+01
 MRCHDU: Convergence failed at  73  side 2    Res =  0.2860E+01
 MRCHDU: Convergence failed at  74  side 2    Res =  0.4848E+01
 MRCHDU: Convergence failed at  75  side 2    Res =  0.8246E+01
 MRCHDU: Convergence failed at  76  side 2    Res =  0.9951E+01
 MRCHDU: Convergence failed at  77  side 2    Res =  0.9754E+01
 MRCHDU: Convergence failed at  78  side 2    Res =  0.9073E+01
 MRCHDU: Convergence failed at  79  side 2    Res =  0.8495E+01
 MRCHDU: Convergence failed at  80  side 2    Res =  0.8191E+01
 MRCHDU: Convergence failed at  81  side 2    Res =  0.7056E+01
 Side 1  free  transition at x/c =  0.4738   50
 Side 2  free  transition at x/c =  0.8670   72

  52   rms: 0.1676E+00   max: 0.1041E+01   T at   81  2
       a =  0.500      CL =  0.1029
      Cm =  0.0208     CD =  0.00826   =>   CDf =  0.00545    CDp =  0.00281

 Side 1  free  transition at x/c =  0.4702   50
 Side 2  free  transition at x/c =  0.8380   69
 idif Ue xi dudx           1  0.13392743      2.22158432E-03   60.284649    
 Uenew xinew           2  1.02838678E-02  1.70588493E-04

  53   rms: 0.6997E-01   max: -.5622E+00   D at   71  2   RLX: 0.889
       a =  0.500      CL =  0.0638
      Cm =  0.0278     CD =  0.00921   =>   CDf =  0.00569    CDp =  0.00351

 MRCHDU: Convergence failed at  72  side 2    Res =  0.4534E+01
 MRCHDU: Convergence failed at  73  side 2    Res =  0.2860E+01
 MRCHDU: Convergence failed at  74  side 2    Res =  0.4848E+01
 MRCHDU: Convergence failed at  75  side 2    Res =  0.8246E+01
 MRCHDU: Convergence failed at  76  side 2    Res =  0.9951E+01
 MRCHDU: Convergence failed at  77  side 2    Res =  0.9754E+01
 MRCHDU: Convergence failed at  78  side 2    Res =  0.9073E+01
 MRCHDU: Convergence failed at  79  side 2    Res =  0.8495E+01
 MRCHDU: Convergence failed at  80  side 2    Res =  0.8191E+01
 MRCHDU: Convergence failed at  81  side 2    Res =  0.7056E+01
 Side 1  free  transition at x/c =  0.4738   50
 Side 2  free  transition at x/c =  0.8670   72

  54   rms: 0.1676E+00   max: 0.1041E+01   T at   81  2
       a =  0.500      CL =  0.1029
      Cm =  0.0208     CD =  0.00826   =>   CDf =  0.00545    CDp =  0.00281

 Side 1  free  transition at x/c =  0.4702   50
 Side 2  free  transition at x/c =  0.8380   69
 idif Ue xi dudx           1  0.13392787      2.22158432E-03   60.284843    
 Uenew xinew           2  1.02839004E-02  1.70588493E-04

  55   rms: 0.6997E-01   max: -.5622E+00   D at   71  2   RLX: 0.889
       a =  0.500      CL =  0.0638
      Cm =  0.0278     CD =  0.00921   =>   CDf =  0.00569    CDp =  0.00351

 MRCHDU: Convergence failed at  72  side 2    Res =  0.4534E+01
 MRCHDU: Convergence failed at  73  side 2    Res =  0.2860E+01
 MRCHDU: Convergence failed at  74  side 2    Res =  0.4848E+01
 MRCHDU: Convergence failed at  75  side 2    Res =  0.8246E+01
 MRCHDU: Convergence failed at  76  side 2    Res =  0.9951E+01
 MRCHDU: Convergence failed at  77  side 2    Res =  0.9754E+01
 MRCHDU: Convergence failed at  78  side 2    Res =  0.9073E+01
 MRCHDU: Convergence failed at  79  side 2    Res =  0.8495E+01
 MRCHDU: Convergence failed at  80  side 2    Res =  0.8191E+01
 MRCHDU: Convergence failed at  81  side 2    Res =  0.7056E+01
 Side 1  free  transition at x/c =  0.4738   50
 Side 2  free  transition at x/c =  0.8670   72

  56   rms: 0.1676E+00   max: 0.1041E+01   T at   81  2
       a =  0.500      CL =  0.1029
      Cm =  0.0208     CD =  0.00826   =>   CDf =  0.00545    CDp =  0.00281

 Side 1  free  transition at x/c =  0.4702   50
 Side 2  free  transition at x/c =  0.8380   69
 idif Ue xi dudx           1  0.13392754      2.22158432E-03   60.284698    
 Uenew xinew           2  1.02838762E-02  1.70588493E-04

  57   rms: 0.6997E-01   max: -.5622E+00   D at   71  2   RLX: 0.889
       a =  0.500      CL =  0.0638
      Cm =  0.0278     CD =  0.00921   =>   CDf =  0.00569    CDp =  0.00351

 MRCHDU: Convergence failed at  72  side 2    Res =  0.4534E+01
 MRCHDU: Convergence failed at  73  side 2    Res =  0.2860E+01
 MRCHDU: Convergence failed at  74  side 2    Res =  0.4848E+01
 MRCHDU: Convergence failed at  75  side 2    Res =  0.8246E+01
 MRCHDU: Convergence failed at  76  side 2    Res =  0.9951E+01
 MRCHDU: Convergence failed at  77  side 2    Res =  0.9754E+01
 MRCHDU: Convergence failed at  78  side 2    Res =  0.9073E+01
 MRCHDU: Convergence failed at  79  side 2    Res =  0.8495E+01
 MRCHDU: Convergence failed at  80  side 2    Res =  0.8191E+01
 MRCHDU: Convergence failed at  81  side 2    Res =  0.7056E+01
 Side 1  free  transition at x/c =  0.4738   50
 Side 2  free  transition at x/c =  0.8670   72

  58   rms: 0.1676E+00   max: 0.1041E+01   T at   81  2
       a =  0.500      CL =  0.1029
      Cm =  0.0208     CD =  0.00826   =>   CDf =  0.00545    CDp =  0.00281

 Side 1  free  transition at x/c =  0.4702   50
 Side 2  free  transition at x/c =  0.8380   69
 idif Ue xi dudx           1  0.13392751      2.22158432E-03   60.284683    
 Uenew xinew           2  1.02838734E-02  1.70588493E-04

  59   rms: 0.6997E-01   max: -.5622E+00   D at   71  2   RLX: 0.889
       a =  0.500      CL =  0.0638
      Cm =  0.0278     CD =  0.00921   =>   CDf =  0.00569    CDp =  0.00351

 MRCHDU: Convergence failed at  72  side 2    Res =  0.4534E+01
 MRCHDU: Convergence failed at  73  side 2    Res =  0.2860E+01
 MRCHDU: Convergence failed at  74  side 2    Res =  0.4848E+01
 MRCHDU: Convergence failed at  75  side 2    Res =  0.8246E+01
 MRCHDU: Convergence failed at  76  side 2    Res =  0.9951E+01
 MRCHDU: Convergence failed at  77  side 2    Res =  0.9754E+01
 MRCHDU: Convergence failed at  78  side 2    Res =  0.9073E+01
 MRCHDU: Convergence failed at  79  side 2    Res =  0.8495E+01
 MRCHDU: Convergence failed at  80  side 2    Res =  0.8191E+01
 MRCHDU: Convergence failed at  81  side 2    Res =  0.7056E+01
 Side 1  free  transition at x/c =  0.4738   50
 Side 2  free  transition at x/c =  0.8670   72

  60   rms: 0.1676E+00   max: 0.1041E+01   T at   81  2
       a =  0.500      CL =  0.1029
      Cm =  0.0208     CD =  0.00826   =>   CDf =  0.00545    CDp =  0.00281

 Side 1  free  transition at x/c =  0.4702   50
 Side 2  free  transition at x/c =  0.8380   69
 idif Ue xi dudx           1  0.13392754      2.22158432E-03   60.284698    
 Uenew xinew           2  1.02838762E-02  1.70588493E-04

  61   rms: 0.6997E-01   max: -.5622E+00   D at   71  2   RLX: 0.889
       a =  0.500      CL =  0.0638
      Cm =  0.0278     CD =  0.00921   =>   CDf =  0.00569    CDp =  0.00351

 MRCHDU: Convergence failed at  72  side 2    Res =  0.4534E+01
 MRCHDU: Convergence failed at  73  side 2    Res =  0.2860E+01
 MRCHDU: Convergence failed at  74  side 2    Res =  0.4848E+01
 MRCHDU: Convergence failed at  75  side 2    Res =  0.8246E+01
 MRCHDU: Convergence failed at  76  side 2    Res =  0.9951E+01
 MRCHDU: Convergence failed at  77  side 2    Res =  0.9754E+01
 MRCHDU: Convergence failed at  78  side 2    Res =  0.9073E+01
 MRCHDU: Convergence failed at  79  side 2    Res =  0.8495E+01
 MRCHDU: Convergence failed at  80  side 2    Res =  0.8191E+01
 MRCHDU: Convergence failed at  81  side 2    Res =  0.7056E+01
 Side 1  free  transition at x/c =  0.4738   50
 Side 2  free  transition at x/c =  0.8670   72

  62   rms: 0.1676E+00   max: 0.1041E+01   T at   81  2
       a =  0.500      CL =  0.1029
      Cm =  0.0208     CD =  0.00826   =>   CDf =  0.00545    CDp =  0.00281

 Side 1  free  transition at x/c =  0.4702   50
 Side 2  free  transition at x/c =  0.8380   69
 idif Ue xi dudx           1  0.13392772      2.22158432E-03   60.284779    
 Uenew xinew           2  1.02838892E-02  1.70588493E-04

  63   rms: 0.6997E-01   max: -.5622E+00   D at   71  2   RLX: 0.889
       a =  0.500      CL =  0.0638
      Cm =  0.0278     CD =  0.00921   =>   CDf =  0.00569    CDp =  0.00351

 MRCHDU: Convergence failed at  72  side 2    Res =  0.4534E+01
 MRCHDU: Convergence failed at  73  side 2    Res =  0.2860E+01
 MRCHDU: Convergence failed at  74  side 2    Res =  0.4848E+01
 MRCHDU: Convergence failed at  75  side 2    Res =  0.8246E+01
 MRCHDU: Convergence failed at  76  side 2    Res =  0.9951E+01
 MRCHDU: Convergence failed at  77  side 2    Res =  0.9754E+01
 MRCHDU: Convergence failed at  78  side 2    Res =  0.9073E+01
 MRCHDU: Convergence failed at  79  side 2    Res =  0.8495E+01
 MRCHDU: Convergence failed at  80  side 2    Res =  0.8190E+01
 MRCHDU: Convergence failed at  81  side 2    Res =  0.7056E+01
 Side 1  free  transition at x/c =  0.4738   50
 Side 2  free  transition at x/c =  0.8670   72

  64   rms: 0.1676E+00   max: 0.1041E+01   T at   81  2
       a =  0.500      CL =  0.1029
      Cm =  0.0208     CD =  0.00826   =>   CDf =  0.00545    CDp =  0.00281

 Side 1  free  transition at x/c =  0.4702   50
 Side 2  free  transition at x/c =  0.8380   69
 idif Ue xi dudx           1  0.13392743      2.22158432E-03   60.284649    
 Uenew xinew           2  1.02838678E-02  1.70588493E-04

  65   rms: 0.6997E-01   max: -.5622E+00   D at   71  2   RLX: 0.889
       a =  0.500      CL =  0.0638
      Cm =  0.0278     CD =  0.00921   =>   CDf =  0.00569    CDp =  0.00351

 MRCHDU: Convergence failed at  72  side 2    Res =  0.4534E+01
 MRCHDU: Convergence failed at  73  side 2    Res =  0.2860E+01
 MRCHDU: Convergence failed at  74  side 2    Res =  0.4848E+01
 MRCHDU: Convergence failed at  75  side 2    Res =  0.8246E+01
 MRCHDU: Convergence failed at  76  side 2    Res =  0.9951E+01
 MRCHDU: Convergence failed at  77  side 2    Res =  0.9754E+01
 MRCHDU: Convergence failed at  78  side 2    Res =  0.9073E+01
 MRCHDU: Convergence failed at  79  side 2    Res =  0.8495E+01
 MRCHDU: Convergence failed at  80  side 2    Res =  0.8191E+01
 MRCHDU: Convergence failed at  81  side 2    Res =  0.7056E+01
 Side 1  free  transition at x/c =  0.4738   50
 Side 2  free  transition at x/c =  0.8670   72

  66   rms: 0.1676E+00   max: 0.1041E+01   T at   81  2
       a =  0.500      CL =  0.1029
      Cm =  0.0208     CD =  0.00826   =>   CDf =  0.00545    CDp =  0.00281

 Side 1  free  transition at x/c =  0.4702   50
 Side 2  free  transition at x/c =  0.8380   69
 idif Ue xi dudx           1  0.13392775      2.22158432E-03   60.284790    
 Uenew xinew           2  1.02838911E-02  1.70588493E-04

  67   rms: 0.6997E-01   max: -.5622E+00   D at   71  2   RLX: 0.889
       a =  0.500      CL =  0.0638
      Cm =  0.0278     CD =  0.00921   =>   CDf =  0.00569    CDp =  0.00351

 MRCHDU: Convergence failed at  72  side 2    Res =  0.4534E+01
 MRCHDU: Convergence failed at  73  side 2    Res =  0.2860E+01
 MRCHDU: Convergence failed at  74  side 2    Res =  0.4848E+01
 MRCHDU: Convergence failed at  75  side 2    Res =  0.8246E+01
 MRCHDU: Convergence failed at  76  side 2    Res =  0.9951E+01
 MRCHDU: Convergence failed at  77  side 2    Res =  0.9754E+01
 MRCHDU: Convergence failed at  78  side 2    Res =  0.9073E+01
 MRCHDU: Convergence failed at  79  side 2    Res =  0.8495E+01
 MRCHDU: Convergence failed at  80  side 2    Res =  0.8191E+01
 MRCHDU: Convergence failed at  81  side 2    Res =  0.7056E+01
 Side 1  free  transition at x/c =  0.4738   50
 Side 2  free  transition at x/c =  0.8670   72

  68   rms: 0.1676E+00   max: 0.1041E+01   T at   81  2
       a =  0.500      CL =  0.1029
      Cm =  0.0208     CD =  0.00826   =>   CDf =  0.00545    CDp =  0.00281

 Side 1  free  transition at x/c =  0.4702   50
 Side 2  free  transition at x/c =  0.8380   69
 idif Ue xi dudx           1  0.13392749      2.22158432E-03   60.284679    
 Uenew xinew           2  1.02838725E-02  1.70588493E-04

  69   rms: 0.6997E-01   max: -.5622E+00   D at   71  2   RLX: 0.889
       a =  0.500      CL =  0.0638
      Cm =  0.0278     CD =  0.00921   =>   CDf =  0.00569    CDp =  0.00351

 MRCHDU: Convergence failed at  72  side 2    Res =  0.4535E+01
 MRCHDU: Convergence failed at  73  side 2    Res =  0.2860E+01
 MRCHDU: Convergence failed at  74  side 2    Res =  0.4848E+01
 MRCHDU: Convergence failed at  75  side 2    Res =  0.8246E+01
 MRCHDU: Convergence failed at  76  side 2    Res =  0.9951E+01
 MRCHDU: Convergence failed at  77  side 2    Res =  0.9754E+01
 MRCHDU: Convergence failed at  78  side 2    Res =  0.9073E+01
 MRCHDU: Convergence failed at  79  side 2    Res =  0.8495E+01
 MRCHDU: Convergence failed at  80  side 2    Res =  0.8191E+01
 MRCHDU: Convergence failed at  81  side 2    Res =  0.7056E+01
 Side 1  free  transition at x/c =  0.4738   50
 Side 2  free  transition at x/c =  0.8670   72

  70   rms: 0.1676E+00   max: 0.1041E+01   T at   81  2
       a =  0.500      CL =  0.1029
      Cm =  0.0208     CD =  0.00826   =>   CDf =  0.00545    CDp =  0.00281

 Side 1  free  transition at x/c =  0.4702   50
 Side 2  free  transition at x/c =  0.8380   69
 idif Ue xi dudx           1  0.13392736      2.22158432E-03   60.284618    
 Uenew xinew           2  1.02838622E-02  1.70588493E-04

  71   rms: 0.6997E-01   max: -.5622E+00   D at   71  2   RLX: 0.889
       a =  0.500      CL =  0.0638
      Cm =  0.0278     CD =  0.00921   =>   CDf =  0.00569    CDp =  0.00351

 MRCHDU: Convergence failed at  72  side 2    Res =  0.4534E+01
 MRCHDU: Convergence failed at  73  side 2    Res =  0.2860E+01
 MRCHDU: Convergence failed at  74  side 2    Res =  0.4848E+01
 MRCHDU: Convergence failed at  75  side 2    Res =  0.8246E+01
 MRCHDU: Convergence failed at  76  side 2    Res =  0.9951E+01
 MRCHDU: Convergence failed at  77  side 2    Res =  0.9754E+01
 MRCHDU: Convergence failed at  78  side 2    Res =  0.9073E+01
 MRCHDU: Convergence failed at  79  side 2    Res =  0.8495E+01
 MRCHDU: Convergence failed at  80  side 2    Res =  0.8190E+01
 MRCHDU: Convergence failed at  81  side 2    Res =  0.7056E+01
 Side 1  free  transition at x/c =  0.4738   50
 Side 2  free  transition at x/c =  0.8670   72

  72   rms: 0.1676E+00   max: 0.1041E+01   T at   81  2
       a =  0.500      CL =  0.1029
      Cm =  0.0208     CD =  0.00826   =>   CDf =  0.00545    CDp =  0.00281

 Side 1  free  transition at x/c =  0.4702   50
 Side 2  free  transition at x/c =  0.8380   69
 idif Ue xi dudx           1  0.13392773      2.22158432E-03   60.284786    
 Uenew xinew           2  1.02838911E-02  1.70588493E-04

  73   rms: 0.6997E-01   max: -.5622E+00   D at   71  2   RLX: 0.889
       a =  0.500      CL =  0.0638
      Cm =  0.0278     CD =  0.00921   =>   CDf =  0.00569    CDp =  0.00351

 MRCHDU: Convergence failed at  72  side 2    Res =  0.4534E+01
 MRCHDU: Convergence failed at  73  side 2    Res =  0.2860E+01
 MRCHDU: Convergence failed at  74  side 2    Res =  0.4848E+01
 MRCHDU: Convergence failed at  75  side 2    Res =  0.8246E+01
 MRCHDU: Convergence failed at  76  side 2    Res =  0.9951E+01
 MRCHDU: Convergence failed at  77  side 2    Res =  0.9754E+01
 MRCHDU: Convergence failed at  78  side 2    Res =  0.9073E+01
 MRCHDU: Convergence failed at  79  side 2    Res =  0.8495E+01
 MRCHDU: Convergence failed at  80  side 2    Res =  0.8191E+01
 MRCHDU: Convergence failed at  81  side 2    Res =  0.7056E+01
 Side 1  free  transition at x/c =  0.4738   50
 Side 2  free  transition at x/c =  0.8670   72

  74   rms: 0.1676E+00   max: 0.1041E+01   T at   81  2
       a =  0.500      CL =  0.1029
      Cm =  0.0208     CD =  0.00826   =>   CDf =  0.00545    CDp =  0.00281

 Side 1  free  transition at x/c =  0.4702   50
 Side 2  free  transition at x/c =  0.8380   69
 idif Ue xi dudx           1  0.13392767      2.22158432E-03   60.284760    
 Uenew xinew           2  1.02838865E-02  1.70588493E-04

  75   rms: 0.6997E-01   max: -.5622E+00   D at   71  2   RLX: 0.889
       a =  0.500      CL =  0.0638
      Cm =  0.0278     CD =  0.00921   =>   CDf =  0.00569    CDp =  0.00351

 MRCHDU: Convergence failed at  72  side 2    Res =  0.4534E+01
 MRCHDU: Convergence failed at  73  side 2    Res =  0.2860E+01
 MRCHDU: Convergence failed at  74  side 2    Res =  0.4848E+01
 MRCHDU: Convergence failed at  75  side 2    Res =  0.8246E+01
 MRCHDU: Convergence failed at  76  side 2    Res =  0.9951E+01
 MRCHDU: Convergence failed at  77  side 2    Res =  0.9754E+01
 MRCHDU: Convergence failed at  78  side 2    Res =  0.9073E+01
 MRCHDU: Convergence failed at  79  side 2    Res =  0.8495E+01
 MRCHDU: Convergence failed at  80  side 2    Res =  0.8191E+01
 MRCHDU: Convergence failed at  81  side 2    Res =  0.7056E+01
 Side 1  free  transition at x/c =  0.4738   50
 Side 2  free  transition at x/c =  0.8670   72

  76   rms: 0.1676E+00   max: 0.1041E+01   T at   81  2
       a =  0.500      CL =  0.1029
      Cm =  0.0208     CD =  0.00826   =>   CDf =  0.00545    CDp =  0.00281

 Side 1  free  transition at x/c =  0.4702   50
 Side 2  free  transition at x/c =  0.8380   69
 idif Ue xi dudx           1  0.13392732      2.22158432E-03   60.284595    
 Uenew xinew           2  1.02838585E-02  1.70588493E-04

  77   rms: 0.6997E-01   max: -.5622E+00   D at   71  2   RLX: 0.889
       a =  0.500      CL =  0.0638
      Cm =  0.0278     CD =  0.00921   =>   CDf =  0.00569    CDp =  0.00351

 MRCHDU: Convergence failed at  72  side 2    Res =  0.4534E+01
 MRCHDU: Convergence failed at  73  side 2    Res =  0.2860E+01
 MRCHDU: Convergence failed at  74  side 2    Res =  0.4848E+01
 MRCHDU: Convergence failed at  75  side 2    Res =  0.8246E+01
 MRCHDU: Convergence failed at  76  side 2    Res =  0.9951E+01
 MRCHDU: Convergence failed at  77  side 2    Res =  0.9754E+01
 MRCHDU: Convergence failed at  78  side 2    Res =  0.9073E+01
 MRCHDU: Convergence failed at  79  side 2    Res =  0.8495E+01
 MRCHDU: Convergence failed at  80  side 2    Res =  0.8191E+01
 MRCHDU: Convergence failed at  81  side 2    Res =  0.7056E+01
 Side 1  free  transition at x/c =  0.4738   50
 Side 2  free  transition at x/c =  0.8670   72

  78   rms: 0.1676E+00   max: 0.1041E+01   T at   81  2
       a =  0.500      CL =  0.1029
      Cm =  0.0208     CD =  0.00826   =>   CDf =  0.00545    CDp =  0.00281

 Side 1  free  transition at x/c =  0.4702   50
 Side 2  free  transition at x/c =  0.8380   69
 idif Ue xi dudx           1  0.13392708      2.22158432E-03   60.284489    
 Uenew xinew           2  1.02838399E-02  1.70588493E-04

  79   rms: 0.6997E-01   max: -.5622E+00   D at   71  2   RLX: 0.889
       a =  0.500      CL =  0.0638
      Cm =  0.0278     CD =  0.00921   =>   CDf =  0.00569    CDp =  0.00351

 MRCHDU: Convergence failed at  72  side 2    Res =  0.4534E+01
 MRCHDU: Convergence failed at  73  side 2    Res =  0.2860E+01
 MRCHDU: Convergence failed at  74  side 2    Res =  0.4848E+01
 MRCHDU: Convergence failed at  75  side 2    Res =  0.8247E+01
 MRCHDU: Convergence failed at  76  side 2    Res =  0.9952E+01
 MRCHDU: Convergence failed at  77  side 2    Res =  0.9754E+01
 MRCHDU: Convergence failed at  78  side 2    Res =  0.9073E+01
 MRCHDU: Convergence failed at  79  side 2    Res =  0.8495E+01
 MRCHDU: Convergence failed at  80  side 2    Res =  0.8191E+01
 MRCHDU: Convergence failed at  81  side 2    Res =  0.7056E+01
 Side 1  free  transition at x/c =  0.4738   50
 Side 2  free  transition at x/c =  0.8670   72

  80   rms: 0.1676E+00   max: 0.1041E+01   T at   81  2
       a =  0.500      CL =  0.1029
      Cm =  0.0208     CD =  0.00826   =>   CDf =  0.00545    CDp =  0.00281

 Side 1  free  transition at x/c =  0.4702   50
 Side 2  free  transition at x/c =  0.8380   69
[...]
      Cm =  0.0369     CD =  0.02124   =>   CDf =  0.00578    CDp =  0.01545
 plradd ia,ip,cpol           39           0  7.39533640E-03

 Point added to stored polar  1
 Point written to save file  mh91_Re400k.base.pol                            
 Dump file unspecified or not available
 Calculating wake trajectory ...
 Calculating source influence matrix ...

 Solving BL system ...

 Side 1  free  transition at x/c =  0.1472   46
 Side 2 forced transition at x/c =  1.0000   64

   1   rms: 0.3430E-01   max: 0.1249E+00   T at   46  1
       a = 12.750      CL =  1.2791
      Cm =  0.0379     CD =  0.02196   =>   CDf =  0.00579    CDp =  0.01618

 Side 1  free  transition at x/c =  0.1422   46
 Side 2 forced transition at x/c =  1.0000   64

   2   rms: 0.4580E-02   max: -.3304E-01   D at   46  1
       a = 12.750      CL =  1.2763
      Cm =  0.0381     CD =  0.02208   =>   CDf =  0.00575    CDp =  0.01633

 Side 1  free  transition at x/c =  0.1427   46
 Side 2 forced transition at x/c =  1.0000   64

   3   rms: 0.1666E-03   max: -.9959E-03   D at   47  1
       a = 12.750      CL =  1.2764
      Cm =  0.0380     CD =  0.02207   =>   CDf =  0.00573    CDp =  0.01634

 Side 1  free  transition at x/c =  0.1427   46
 Side 2 forced transition at x/c =  1.0000   64

   4   rms: 0.1918E-05   max: -.9505E-05   D at   77  2
       a = 12.750      CL =  1.2764
      Cm =  0.0380     CD =  0.02207   =>   CDf =  0.00573    CDp =  0.01634
 plradd ia,ip,cpol           40           0  7.39533640E-03

 Point added to stored polar  1
 Point written to save file  mh91_Re400k.base.pol                            
 Dump file unspecified or not available
 Calculating wake trajectory ...
 Calculating source influence matrix ...

 Solving BL system ...

 Side 1  free  transition at x/c =  0.1427   46
 Side 2 forced transition at x/c =  1.0000   64

   1   rms: 0.3632E-01   max: -.1346E+00   D at   46  1
       a = 13.000      CL =  1.2853
      Cm =  0.0392     CD =  0.02312   =>   CDf =  0.00573    CDp =  0.01739

 Side 1  free  transition at x/c =  0.1384   46
 Side 2 forced transition at x/c =  1.0000   64

   2   rms: 0.4794E-02   max: 0.3320E-01   D at   85  1
       a = 13.000      CL =  1.2817
      Cm =  0.0393     CD =  0.02331   =>   CDf =  0.00576    CDp =  0.01755

 Side 1  free  transition at x/c =  0.1384   46
 Side 2 forced transition at x/c =  1.0000   64

   3   rms: 0.1467E-03   max: 0.2532E-02   D at   84  1
       a = 13.000      CL =  1.2817
      Cm =  0.0393     CD =  0.02330   =>   CDf =  0.00576    CDp =  0.01755

 Side 1  free  transition at x/c =  0.1384   46
 Side 2 forced transition at x/c =  1.0000   64

   4   rms: 0.1557E-05   max: 0.1716E-04   D at   84  1
       a = 13.000      CL =  1.2817
      Cm =  0.0393     CD =  0.02330   =>   CDf =  0.00576    CDp =  0.01755
 plradd ia,ip,cpol           41           0  7.39533640E-03

 Point added to stored polar  1
 Point written to save file  mh91_Re400k.base.pol                            
 Dump file unspecified or not available
 Calculating wake trajectory ...
 Calculating source influence matrix ...

 Solving BL system ...

 Side 1  free  transition at x/c =  0.1384   46
 Side 2 forced transition at x/c =  1.0000   64

   1   rms: 0.4061E-01   max: -.1348E+00   D at   46  1
       a = 13.250      CL =  1.2853
      Cm =  0.0406     CD =  0.02488   =>   CDf =  0.00576    CDp =  0.01912

 Side 1  free  transition at x/c =  0.1345   45
 Side 2 forced transition at x/c =  1.0000   64

   2   rms: 0.1535E-01   max: -.1531E+00   D at   45  1
       a = 13.250      CL =  1.2910
      Cm =  0.0402     CD =  0.02434   =>   CDf =  0.00569    CDp =  0.01865

 Side 1  free  transition at x/c =  0.1346   45
 Side 2 forced transition at x/c =  1.0000   64

   3   rms: 0.2974E-02   max: -.1418E-01   D at   83  1
       a = 13.250      CL =  1.2927
      Cm =  0.0401     CD =  0.02428   =>   CDf =  0.00565    CDp =  0.01864

 Side 1  free  transition at x/c =  0.1343   45
 Side 2 forced transition at x/c =  1.0000   64

   4   rms: 0.4908E-04   max: -.2451E-03   D at   45  1
       a = 13.250      CL =  1.2927
      Cm =  0.0401     CD =  0.02429   =>   CDf =  0.00565    CDp =  0.01864
 plradd ia,ip,cpol           42           0  3.16462433E-03

 Point added to stored polar  1
 Point written to save file  mh91_Re400k.base.pol                            
 Dump file unspecified or not available
 Calculating wake trajectory ...
 Calculating source influence matrix ...

 Solving BL system ...

 Side 1  free  transition at x/c =  0.1343   45
 Side 2 forced transition at x/c =  1.0000   64

   1   rms: 0.3466E-01   max: 0.1288E+00   T at   45  1
       a = 13.500      CL =  1.3045
      Cm =  0.0407     CD =  0.02536   =>   CDf =  0.00565    CDp =  0.01970

 Side 1  free  transition at x/c =  0.1292   45
 Side 2 forced transition at x/c =  1.0000   64

   2   rms: 0.5607E-02   max: -.3578E-01   T at   45  1
       a = 13.500      CL =  1.3010
      Cm =  0.0408     CD =  0.02552   =>   CDf =  0.00562    CDp =  0.01990

 Side 1  free  transition at x/c =  0.1298   45
 Side 2 forced transition at x/c =  1.0000   64

   3   rms: 0.1683E-03   max: -.1262E-02   D at   46  1
       a = 13.500      CL =  1.3010
      Cm =  0.0408     CD =  0.02551   =>   CDf =  0.00560    CDp =  0.01991

 Side 1  free  transition at x/c =  0.1298   45
 Side 2 forced transition at x/c =  1.0000   64

   4   rms: 0.6654E-05   max: -.2412E-04   D at   72  2
       a = 13.500      CL =  1.3010
      Cm =  0.0408     CD =  0.02551   =>   CDf =  0.00560    CDp =  0.01991
 plradd ia,ip,cpol           43           0  4.35894635E-03

 Point added to stored polar  1
 Point written to save file  mh91_Re400k.base.pol                            
 Dump file unspecified or not available
 Calculating wake trajectory ...
 Calculating source influence matrix ...

 Solving BL system ...

 Side 1  free  transition at x/c =  0.1298   45
 Side 2 forced transition at x/c =  1.0000   64

   1   rms: 0.3778E-01   max: -.1367E+00   D at   45  1
       a = 13.750      CL =  1.3079
      Cm =  0.0414     CD =  0.02702   =>   CDf =  0.00529    CDp =  0.02173

 Side 1  free  transition at x/c =  0.1256   46
 Side 2 forced transition at x/c =  1.0000   63

   2   rms: 0.5893E-02   max: 0.3642E-01   D at   81  1
       a = 13.750      CL =  1.3036
      Cm =  0.0415     CD =  0.02724   =>   CDf =  0.00562    CDp =  0.02162

 Side 1  free  transition at x/c =  0.1257   46
 Side 2 forced transition at x/c =  1.0000   63

   3   rms: 0.3447E-03   max: -.3895E-02   D at    4  1
       a = 13.750      CL =  1.3036
      Cm =  0.0416     CD =  0.02722   =>   CDf =  0.00561    CDp =  0.02161

 Side 1  free  transition at x/c =  0.1257   46
 Side 2 forced transition at x/c =  1.0000   63

   4   rms: 0.1671E-05   max: -.1027E-04   C at   63  2
       a = 13.750      CL =  1.3036
      Cm =  0.0416     CD =  0.02722   =>   CDf =  0.00561    CDp =  0.02161
 plradd ia,ip,cpol           44           0  4.35894635E-03

 Point added to stored polar  1
 Point written to save file  mh91_Re400k.base.pol                            
 Dump file unspecified or not available
 Calculating wake trajectory ...
 Calculating source influence matrix ...

 Solving BL system ...

 Side 1  free  transition at x/c =  0.1257   46
 Side 2 forced transition at x/c =  1.0000   63

   1   rms: 0.4261E-01   max: 0.1416E+00   D at   79  1
       a = 14.000      CL =  1.3044
      Cm =  0.0422     CD =  0.02935   =>   CDf =  0.00562    CDp =  0.02373

 Side 1  free  transition at x/c =  0.1217   45
 Side 2 forced transition at x/c =  1.0000   63

   2   rms: 0.1626E-01   max: -.1730E+00   D at   45  1
       a = 14.000      CL =  1.3103
      Cm =  0.0419     CD =  0.02867   =>   CDf =  0.00554    CDp =  0.02313

 Side 1  free  transition at x/c =  0.1221   45
 Side 2 forced transition at x/c =  1.0000   63

   3   rms: 0.3892E-02   max: -.1887E-01   D at   79  1
       a = 14.000      CL =  1.3125
      Cm =  0.0419     CD =  0.02855   =>   CDf =  0.00549    CDp =  0.02305

 Side 1  free  transition at x/c =  0.1217   45
 Side 2 forced transition at x/c =  1.0000   63

   4   rms: 0.9332E-04   max: 0.7793E-03   D at   79  1
       a = 14.000      CL =  1.3125
      Cm =  0.0419     CD =  0.02857   =>   CDf =  0.00550    CDp =  0.02307
 plradd ia,ip,cpol           45           0  3.16462433E-03

 Point added to stored polar  1
 Point written to save file  mh91_Re400k.base.pol                            
 Dump file unspecified or not available
 Calculating wake trajectory ...
 Calculating source influence matrix ...

 Solving BL system ...

 Side 1  free  transition at x/c =  0.1217   45
 Side 2 forced transition at x/c =  1.0000   63

   1   rms: 0.3531E-01   max: 0.1281E+00   T at   45  1
       a = 14.250      CL =  1.3220
      Cm =  0.0421     CD =  0.03010   =>   CDf =  0.00550    CDp =  0.02459

 Side 1  free  transition at x/c =  0.1162   45
 Side 2 forced transition at x/c =  1.0000   63

   2   rms: 0.8165E-02   max: 0.3506E-01   D at   46  1
       a = 14.250      CL =  1.3175
      Cm =  0.0421     CD =  0.03030   =>   CDf =  0.00549    CDp =  0.02481

 Side 1  free  transition at x/c =  0.1173   45
 Side 2 forced transition at x/c =  1.0000   63

   3   rms: 0.4155E-03   max: -.3597E-02   D at   45  1
       a = 14.250      CL =  1.3175
      Cm =  0.0421     CD =  0.03028   =>   CDf =  0.00546    CDp =  0.02482

 Side 1  free  transition at x/c =  0.1173   45
 Side 2 forced transition at x/c =  1.0000   63

   4   rms: 0.2967E-04   max: -.1194E-03   D at   72  2
       a = 14.250      CL =  1.3175
      Cm =  0.0421     CD =  0.03028   =>   CDf =  0.00546    CDp =  0.02482
 plradd ia,ip,cpol           46           0  2.17490993E-03

 Point added to stored polar  1
 Point written to save file  mh91_Re400k.base.pol                            
 Dump file unspecified or not available
 Calculating wake trajectory ...
 Calculating source influence matrix ...

 Solving BL system ...

 Side 1  free  transition at x/c =  0.1173   45
 Side 2 forced transition at x/c =  1.0000   63

   1   rms: 0.3930E-01   max: -.1365E+00   D at   45  1
       a = 14.500      CL =  1.3215
      Cm =  0.0422     CD =  0.03239   =>   CDf =  0.00546    CDp =  0.02693

 Side 1  free  transition at x/c =  0.1136   45
 Side 2 forced transition at x/c =  1.0000   63

   2   rms: 0.6533E-02   max: 0.4330E-01   D at   77  1
       a = 14.500      CL =  1.3166
      Cm =  0.0423     CD =  0.03259   =>   CDf =  0.00547    CDp =  0.02711

 Side 1  free  transition at x/c =  0.1137   45
 Side 2 forced transition at x/c =  1.0000   63

   3   rms: 0.1802E-03   max: 0.2026E-02   D at   76  1
       a = 14.500      CL =  1.3165
      Cm =  0.0424     CD =  0.03255   =>   CDf =  0.00547    CDp =  0.02709

 Side 1  free  transition at x/c =  0.1137   45
 Side 2 forced transition at x/c =  1.0000   63

   4   rms: 0.2491E-05   max: 0.2987E-04   D at   72  2
       a = 14.500      CL =  1.3165
      Cm =  0.0424     CD =  0.03255   =>   CDf =  0.00547    CDp =  0.02709
 plradd ia,ip,cpol           47           0  3.16462433E-03

 Point added to stored polar  1
 Point written to save file  mh91_Re400k.base.pol                            
 Dump file unspecified or not available
 Calculating wake trajectory ...
 Calculating source influence matrix ...

 Solving BL system ...

 Side 1  free  transition at x/c =  0.1137   45
 Side 2 forced transition at x/c =  1.0000   63

   1   rms: 0.4337E-01   max: 0.1564E+00   D at   75  1
       a = 14.750      CL =  1.3142
      Cm =  0.0424     CD =  0.03533   =>   CDf =  0.00547    CDp =  0.02986

 Side 1  free  transition at x/c =  0.1102   44
 Side 2 forced transition at x/c =  1.0000   63

   2   rms: 0.1511E-01   max: -.1650E+00   D at   44  1
       a = 14.750      CL =  1.3202
      Cm =  0.0423     CD =  0.03450   =>   CDf =  0.00539    CDp =  0.02911

 Side 1  free  transition at x/c =  0.1105   44
 Side 2 forced transition at x/c =  1.0000   63

   3   rms: 0.3887E-02   max: -.1901E-01   D at   75  1
       a = 14.750      CL =  1.3224
      Cm =  0.0423     CD =  0.03433   =>   CDf =  0.00534    CDp =  0.02899

 Side 1  free  transition at x/c =  0.1102   44
 Side 2 forced transition at x/c =  1.0000   63

   4   rms: 0.1834E-03   max: -.1008E-02   D at   72  2
       a = 14.750      CL =  1.3225
      Cm =  0.0423     CD =  0.03436   =>   CDf =  0.00535    CDp =  0.02901

 Side 1  free  transition at x/c =  0.1102   44
 Side 2 forced transition at x/c =  1.0000   63

   5   rms: 0.4132E-05   max: 0.2709E-04   C at   63  2
       a = 14.750      CL =  1.3225
      Cm =  0.0423     CD =  0.03436   =>   CDf =  0.00535    CDp =  0.02901
 plradd ia,ip,cpol           48           0  2.17490993E-03

 Point added to stored polar  1
 Point written to save file  mh91_Re400k.base.pol                            
 Dump file unspecified or not available
 Calculating wake trajectory ...
 Calculating source influence matrix ...

 Solving BL system ...

 Side 1  free  transition at x/c =  0.1102   44
 Side 2 forced transition at x/c =  1.0000   63

   1   rms: 0.3488E-01   max: 0.1137E+00   T at   44  1
       a = 15.000      CL =  1.3293
      Cm =  0.0421     CD =  0.03642   =>   CDf =  0.00535    CDp =  0.03107

 Side 1  free  transition at x/c =  0.1063   44
 Side 2 forced transition at x/c =  1.0000   63

   2   rms: 0.5950E-02   max: 0.3457E-01   D at   74  1
       a = 15.000      CL =  1.3252
      Cm =  0.0421     CD =  0.03655   =>   CDf =  0.00530    CDp =  0.03125

 Side 1  free  transition at x/c =  0.1068   44
 Side 2 forced transition at x/c =  1.0000   63

   3   rms: 0.1741E-03   max: 0.1335E-02   D at   73  2
       a = 15.000      CL =  1.3251
      Cm =  0.0421     CD =  0.03652   =>   CDf =  0.00528    CDp =  0.03124

 Side 1  free  transition at x/c =  0.1068   44
 Side 2 forced transition at x/c =  1.0000   63

   4   rms: 0.4661E-05   max: -.1876E-04   D at   73  1
       a = 15.000      CL =  1.3251
      Cm =  0.0421     CD =  0.03652   =>   CDf =  0.00528    CDp =  0.03124
 plradd ia,ip,cpol           49           0  2.17490993E-03

 Point added to stored polar  1
 Point written to save file  mh91_Re400k.base.pol                            
 Dump file unspecified or not available
 Calculating wake trajectory ...
 Calculating source influence matrix ...

 Solving BL system ...

 Side 1  free  transition at x/c =  0.1068   44
 Side 2 forced transition at x/c =  1.0000   63

   1   rms: 0.3763E-01   max: 0.1350E+00   D at   72  1   RLX: 0.950
       a = 15.250      CL =  1.3275
      Cm =  0.0417     CD =  0.03901   =>   CDf =  0.00495    CDp =  0.03407

 Side 1  free  transition at x/c =  0.1035   45
 Side 2 forced transition at x/c =  1.0000   62

   2   rms: 0.7478E-02   max: 0.5002E-01   D at   74  1
       a = 15.250      CL =  1.3228
      Cm =  0.0418     CD =  0.03928   =>   CDf =  0.00528    CDp =  0.03400

 Side 1  free  transition at x/c =  0.1037   45
 Side 2 forced transition at x/c =  1.0000   62

   3   rms: 0.3149E-03   max: 0.2932E-02   D at   72  2
       a = 15.250      CL =  1.3226
      Cm =  0.0418     CD =  0.03921   =>   CDf =  0.00526    CDp =  0.03395

 Side 1  free  transition at x/c =  0.1037   45
 Side 2 forced transition at x/c =  1.0000   62

   4   rms: 0.4036E-05   max: -.5029E-04   C at   62  2
       a = 15.250      CL =  1.3226
      Cm =  0.0418     CD =  0.03921   =>   CDf =  0.00526    CDp =  0.03395
 plradd ia,ip,cpol           50           0  2.17490993E-03

 Point added to stored polar  1
 Point written to save file  mh91_Re400k.base.pol                            
 Dump file unspecified or not available
 Calculating wake trajectory ...
 Calculating source influence matrix ...

 Solving BL system ...

 Side 1  free  transition at x/c =  0.1037   45
 Side 2 forced transition at x/c =  1.0000   62

   1   rms: 0.4044E-01   max: 0.1528E+00   D at   72  1   RLX: 0.889
       a = 15.500      CL =  1.3210
      Cm =  0.0413     CD =  0.04203   =>   CDf =  0.00526    CDp =  0.03676

 Side 1  free  transition at x/c =  0.1014   44
 Side 2 forced transition at x/c =  1.0000   62

   2   rms: 0.5477E-02   max: -.4991E-01   C at   44  1
       a = 15.500      CL =  1.3203
      Cm =  0.0414     CD =  0.04197   =>   CDf =  0.00524    CDp =  0.03673

 Side 1  free  transition at x/c =  0.1011   44
 Side 2 forced transition at x/c =  1.0000   62

   3   rms: 0.1779E-03   max: -.1685E-02   D at   73  1
       a = 15.500      CL =  1.3203
      Cm =  0.0415     CD =  0.04192   =>   CDf =  0.00521    CDp =  0.03671

 Side 1  free  transition at x/c =  0.1011   44
 Side 2 forced transition at x/c =  1.0000   62

   4   rms: 0.1108E-04   max: -.5126E-04   D at   73  2
       a = 15.500      CL =  1.3203
      Cm =  0.0415     CD =  0.04192   =>   CDf =  0.00521    CDp =  0.03671
 plradd ia,ip,cpol           51           0  1.37979165E-03

 Point added to stored polar  1
 Point written to save file  mh91_Re400k.base.pol                            
 Dump file unspecified or not available
 Calculating wake trajectory ...
 Calculating source influence matrix ...

 Solving BL system ...

 Side 1  free  transition at x/c =  0.1011   44
 Side 2 forced transition at x/c =  1.0000   62

   1   rms: 0.3373E-01   max: 0.1156E+00   D at   71  1   RLX: 0.852
       a = 15.750      CL =  1.3250
      Cm =  0.0409     CD =  0.04409   =>   CDf =  0.00522    CDp =  0.03888

 Side 1  free  transition at x/c =  0.0982   44
 Side 2 forced transition at x/c =  1.0000   62

   2   rms: 0.7377E-02   max: -.4110E-01   D at   44  1
       a = 15.750      CL =  1.3223
      Cm =  0.0408     CD =  0.04450   =>   CDf =  0.00512    CDp =  0.03938

 Side 1  free  transition at x/c =  0.0982   44
 Side 2 forced transition at x/c =  1.0000   62

   3   rms: 0.6884E-03   max: 0.5160E-02   D at   73  2
       a = 15.750      CL =  1.3218
      Cm =  0.0409     CD =  0.04443   =>   CDf =  0.00509    CDp =  0.03934

 Side 1  free  transition at x/c =  0.0982   44
 Side 2 forced transition at x/c =  1.0000   62

   4   rms: 0.3709E-04   max: 0.2537E-03   D at   73  2
       a = 15.750      CL =  1.3218
      Cm =  0.0409     CD =  0.04443   =>   CDf =  0.00509    CDp =  0.03934
 plradd ia,ip,cpol           52           0  1.37979165E-03

 Point added to stored polar  1
 Point written to save file  mh91_Re400k.base.pol                            
 Dump file unspecified or not available
 Calculating wake trajectory ...
 Calculating source influence matrix ...

 Solving BL system ...

 Side 1  free  transition at x/c =  0.0982   44
 Side 2 forced transition at x/c =  1.0000   62

   1   rms: 0.3492E-01   max: 0.1299E+00   D at   70  1   RLX: 0.809
       a = 16.000      CL =  1.3236
      Cm =  0.0402     CD =  0.04684   =>   CDf =  0.00510    CDp =  0.04175

 Side 1  free  transition at x/c =  0.0956   44
 Side 2 forced transition at x/c =  1.0000   62

   2   rms: 0.9401E-02   max: 0.5217E-01   D at   70  1
       a = 16.000      CL =  1.3202
      Cm =  0.0401     CD =  0.04745   =>   CDf =  0.00505    CDp =  0.04240

 Side 1  free  transition at x/c =  0.0955   44
 Side 2 forced transition at x/c =  1.0000   62

   3   rms: 0.9571E-03   max: 0.4737E-02   D at   74  2
       a = 16.000      CL =  1.3194
      Cm =  0.0401     CD =  0.04736   =>   CDf =  0.00503    CDp =  0.04233

 Side 1  free  transition at x/c =  0.0955   44
 Side 2 forced transition at x/c =  1.0000   62

   4   rms: 0.4600E-04   max: 0.2894E-03   D at   74  2
       a = 16.000      CL =  1.3194
      Cm =  0.0401     CD =  0.04735   =>   CDf =  0.00503    CDp =  0.04232
 plradd ia,ip,cpol           53           0  2.17490993E-03

 Point added to stored polar  1
 Point written to save file  mh91_Re400k.base.pol                            
 Dump file unspecified or not available

.OPERva   c>  
 Polar accumulation disabled

.OPERv   c>  
 XFOIL   c>  
 XFOIL   c>  