
 ===================================================
  XFOIL Version 6.99
  Copyright (C) 2000   Mark Drela, Harold Youngren

  This software comes with ABSOLUTELY NO WARRANTY,
    subject to the GNU General Public License.

  Caveat computor
 ===================================================

 File  xfoil.def  not found

   QUIT    Exit program

  .OPER    Direct operating point(s)
  .MDES    Complex mapping design routine
  .QDES    Surface speed design routine
  .GDES    Geometry design routine

   SAVE f  Write airfoil to labeled coordinate file
   PSAV f  Write airfoil to plain coordinate file
   ISAV f  Write airfoil to ISES coordinate file
   MSAV f  Write airfoil to MSES coordinate file
   REVE    Reverse written-airfoil node ordering

   LOAD f  Read buffer airfoil from coordinate file
   NACA i  Set NACA 4,5-digit airfoil and buffer airfoil
   INTE    Set buffer airfoil by interpolating two airfoils
   NORM    Buffer airfoil normalization toggle
   XYCM rr Change CM reference location, currently  0.25000 0.00000

   BEND    Display structural properties of current airfoil

   PCOP    Set current-airfoil panel nodes directly from buffer airfoil points
   PANE    Set current-airfoil panel nodes ( 160 ) based on curvature
  .PPAR    Show/change paneling

  .PLOP    Plotting options

   WDEF f  Write  current-settings file
   RDEF f  Reread current-settings file
   NAME s  Specify new airfoil name
   NINC    Increment name version number

   Z       Zoom    | (available in all menus)
   U       Unzoom  | 

 XFOIL   c>  
 Labeled airfoil file.  Name:  MH 92  15.49%                                   

 Number of input coordinate points:  68
 Counterclockwise ordering
 Max thickness =     0.154895  at x =   0.274
 Max camber    =     0.016808  at x =   0.151

  LE  x,y  =  -0.00000  -0.00002  |   Chord =   1.00000
  TE  x,y  =   1.00000   0.00000  |

 Current airfoil nodes set from buffer airfoil nodes (  68 )

 XFOIL   c>  
 XFOIL   c>  
 Sharp trailing edge

 Paneling parameters used...
   Number of panel nodes       160
   Panel bunching parameter    1.000
   TE/LE panel density ratio   0.150
   Refined-area/LE panel density ratio    0.200
   Top    side refined area x/c limits  1.000 1.000
   Bottom side refined area x/c limits  1.000 1.000

 XFOIL   c>  
.OPERi   c>  
 Xtr/c     =  1.0000    top    side
 Xtr/c     =  1.0000    bottom side
 Ncrit     =    9.00   ( 0.070 % turb. level )
 Vacc      =  0.0100

 Klag  =  5.6000     Uxwt  =    1.00
 A     =  6.7000     B     =  0.7500       KCt = 0.01485
 CtiniK=  1.8000     CtiniX=  3.3000

..VPAR   c>  
..VPAR   c>  
.OPERi   c>  
 M  =    0.0000
 Re =    400000

.OPERv   c>  
.OPERv   c>  
.OPERv   c>  
 Polar  1 newly created for accumulation
 Airfoil archived with polar: MH 92  15.49%                                   

Enter  polar save filename  OR  <return> for no file   s>  
 New polar save file available

Enter  polar dump filename  OR  <return> for no file   s>  
 Polar dump file will NOT be written

 Polar accumulation enabled

.OPERva   c>   Calculating unit vorticity distributions ...
 Calculating wake trajectory ...
 Calculating source influence matrix ...

 Solving BL system ...

 Initializing BL ...
    side            1  ...
 MRCHUE: Inverse mode at  44     Hk =   4.283
 MRCHUE: Inverse mode at  45     Hk =   4.971
 MRCHUE: Inverse mode at  46     Hk =   5.644
 MRCHUE: Inverse mode at  47     Hk =   6.307
 MRCHUE: Inverse mode at  48     Hk =   6.962
 MRCHUE: Inverse mode at  49     Hk =   7.610
 MRCHUE: Inverse mode at  50     Hk =   8.253
 MRCHUE: Inverse mode at  51     Hk =   6.466
 MRCHUE: Inverse mode at  52     Hk =   4.188
 MRCHUE: Inverse mode at  53     Hk =   2.704
    side            2  ...
 MRCHUE: Inverse mode at  18     Hk =   3.996
 MRCHUE: Inverse mode at  19     Hk =   4.720
 MRCHUE: Inverse mode at  20     Hk =   5.412
 MRCHUE: Inverse mode at  21     Hk =   6.093
 MRCHUE: Inverse mode at  22     Hk =   6.779
 MRCHUE: Inverse mode at  23     Hk =   7.479
 MRCHUE: Inverse mode at  24     Hk =   8.204
 MRCHUE: Inverse mode at  25     Hk =   8.964
 MRCHUE: Inverse mode at  26     Hk =   9.767
 MRCHUE: Inverse mode at  27     Hk =   5.576
 MRCHUE: Inverse mode at  28     Hk =   3.554
 MRCHUE: Inverse mode at  29     Hk =   2.500
 MRCHUE: Inverse mode at  84     Hk =   2.500
 MRCHUE: Inverse mode at  85     Hk =   2.500
 MRCHUE: Inverse mode at  86     Hk =   2.500
 MRCHUE: Inverse mode at  87     Hk =   2.500
 MRCHUE: Inverse mode at  88     Hk =   2.500

 Side 1  free  transition at x/c =  0.6158   51
 Side 2  free  transition at x/c =  0.0346   27

   1   rms: 0.3383E+00   max: -.4010E+01   T at   27  2   RLX: 0.125
       a = -4.000      CL = -0.4902
      Cm =  0.0399     CD =  0.01304   =>   CDf =  0.00821    CDp =  0.00483

 Side 1  free  transition at x/c =  0.6196   51
 Side 2  free  transition at x/c =  0.0366   27

   2   rms: 0.2608E+00   max: -.3996E+01   T at   27  2   RLX: 0.125
       a = -4.000      CL = -0.4787
      Cm =  0.0377     CD =  0.01375   =>   CDf =  0.00823    CDp =  0.00553

 Side 1  free  transition at x/c =  0.6234   51
 Side 2  free  transition at x/c =  0.0411   28

   3   rms: 0.2911E+00   max: -.3808E+01   T at   28  2   RLX: 0.131
       a = -4.000      CL = -0.4715
      Cm =  0.0360     CD =  0.01281   =>   CDf =  0.00816    CDp =  0.00465

 Side 1  free  transition at x/c =  0.6273   52
 Side 2  free  transition at x/c =  0.0447   28

   4   rms: 0.3251E+00   max: -.5056E+01   T at   28  2   RLX: 0.099
       a = -4.000      CL = -0.4606
      Cm =  0.0343     CD =  0.01350   =>   CDf =  0.00837    CDp =  0.00514

 Side 1  free  transition at x/c =  0.6295   53
 Side 2  free  transition at x/c =  0.0493   28

   5   rms: 0.3412E+00   max: -.3562E+01   T at   28  2   RLX: 0.140
       a = -4.000      CL = -0.4555
      Cm =  0.0327     CD =  0.01203   =>   CDf =  0.00813    CDp =  0.00390

 Side 1  free  transition at x/c =  0.6329   53
 Side 2  free  transition at x/c =  0.0547   29

   6   rms: 0.3232E+00   max: -.2518E+01   C at   29  2   RLX: 0.199
       a = -4.000      CL = -0.4501
      Cm =  0.0315     CD =  0.01184   =>   CDf =  0.00811    CDp =  0.00373

 Side 1  free  transition at x/c =  0.6383   53
 Side 2  free  transition at x/c =  0.0687   30

   7   rms: 0.1878E+00   max: -.2378E+01   T at   30  2   RLX: 0.210
       a = -4.000      CL = -0.4433
      Cm =  0.0297     CD =  0.01216   =>   CDf =  0.00807    CDp =  0.00409

 Side 1  free  transition at x/c =  0.6435   53
 Side 2  free  transition at x/c =  0.0790   31

   8   rms: 0.1596E+00   max: -.1984E+01   T at   31  2   RLX: 0.252
       a = -4.000      CL = -0.4347
      Cm =  0.0283     CD =  0.01217   =>   CDf =  0.00801    CDp =  0.00416

 Side 1  free  transition at x/c =  0.6504   54
 Side 2  free  transition at x/c =  0.0946   33

   9   rms: 0.2969E+00   max: -.5141E+01   C at   33  2   RLX: 0.097
       a = -4.000      CL = -0.4317
      Cm =  0.0279     CD =  0.01170   =>   CDf =  0.00780    CDp =  0.00390

 Side 1  free  transition at x/c =  0.6521   54
 Side 2  free  transition at x/c =  0.1032   34

  10   rms: 0.2483E+00   max: -.3473E+01   C at   34  2   RLX: 0.144
       a = -4.000      CL = -0.4295
      Cm =  0.0276     CD =  0.01159   =>   CDf =  0.00772    CDp =  0.00386

 Side 1  free  transition at x/c =  0.6545   54
 Side 2  free  transition at x/c =  0.2337   42

  11   rms: 0.9908E+00   max: -.2181E+02   C at   42  2   RLX: 0.023
       a = -4.000      CL = -0.4318
      Cm =  0.0276     CD =  0.01067   =>   CDf =  0.00693    CDp =  0.00375

 Side 1  free  transition at x/c =  0.6549   54
 Side 2  free  transition at x/c =  0.2412   42

  12   rms: 0.9716E+00   max: -.2108E+02   C at   42  2   RLX: 0.024
       a = -4.000      CL = -0.4317
      Cm =  0.0276     CD =  0.01064   =>   CDf =  0.00688    CDp =  0.00376

 Side 1  free  transition at x/c =  0.6552   54
 Side 2  free  transition at x/c =  0.2482   43

  13   rms: 0.7975E+00   max: -.1741E+02   C at   43  2   RLX: 0.029
       a = -4.000      CL = -0.4321
      Cm =  0.0276     CD =  0.01057   =>   CDf =  0.00684    CDp =  0.00373

 Side 1  free  transition at x/c =  0.6557   54
 Side 2  free  transition at x/c =  0.2595   44

  14   rms: 0.8068E+00   max: -.1734E+02   C at   44  2   RLX: 0.029
       a = -4.000      CL = -0.4330
      Cm =  0.0277     CD =  0.01046   =>   CDf =  0.00675    CDp =  0.00371

 Side 1  free  transition at x/c =  0.6562   54
 Side 2  free  transition at x/c =  0.2737   44

  15   rms: 0.7490E+00   max: -.1598E+02   C at   44  2   RLX: 0.031
       a = -4.000      CL = -0.4333
      Cm =  0.0276     CD =  0.01042   =>   CDf =  0.00669    CDp =  0.00373

 Side 1  free  transition at x/c =  0.6567   54
 Side 2  free  transition at x/c =  0.2900   45

  16   rms: 0.4064E+00   max: -.8652E+01   C at   45  2   RLX: 0.058
       a = -4.000      CL = -0.4339
      Cm =  0.0276     CD =  0.01033   =>   CDf =  0.00661    CDp =  0.00372

 Side 1  free  transition at x/c =  0.6575   54
 Side 2  free  transition at x/c =  0.3184   47

  17   rms: 0.2842E+00   max: -.5801E+01   C at   47  2   RLX: 0.086
       a = -4.000      CL = -0.4358
      Cm =  0.0275     CD =  0.01016   =>   CDf =  0.00647    CDp =  0.00369

 Side 1  free  transition at x/c =  0.6587   54
 Side 2  free  transition at x/c =  0.3410   48

  18   rms: 0.1075E+00   max: -.1740E+01   C at   48  2   RLX: 0.287
       a = -4.000      CL = -0.4353
      Cm =  0.0268     CD =  0.01009   =>   CDf =  0.00636    CDp =  0.00372

 Side 1  free  transition at x/c =  0.6623   54
 Side 2  free  transition at x/c =  0.3905   51

  19   rms: 0.3822E-01   max: 0.1991E+00   D at   48  2
       a = -4.000      CL = -0.4341
      Cm =  0.0252     CD =  0.00999   =>   CDf =  0.00616    CDp =  0.00383

 Side 1  free  transition at x/c =  0.6755   55
 Side 2  free  transition at x/c =  0.3914   51

  20   rms: 0.2219E-01   max: -.3309E+00   C at   51  2
       a = -4.000      CL = -0.4332
      Cm =  0.0250     CD =  0.00996   =>   CDf =  0.00605    CDp =  0.00391

 Side 1  free  transition at x/c =  0.6728   55
 Side 2  free  transition at x/c =  0.4026   52

  21   rms: 0.6762E-02   max: 0.1271E+00   C at   52  2
       a = -4.000      CL = -0.4339
      Cm =  0.0251     CD =  0.00991   =>   CDf =  0.00595    CDp =  0.00397

 Side 1  free  transition at x/c =  0.6722   55
 Side 2  free  transition at x/c =  0.3980   52

  22   rms: 0.2758E-03   max: -.4955E-02   C at   52  2
       a = -4.000      CL = -0.4339
      Cm =  0.0251     CD =  0.00992   =>   CDf =  0.00598    CDp =  0.00394

 Side 1  free  transition at x/c =  0.6722   55
 Side 2  free  transition at x/c =  0.3981   52

  23   rms: 0.1229E-05   max: -.4511E-05   D at   85  2
       a = -4.000      CL = -0.4339
      Cm =  0.0251     CD =  0.00992   =>   CDf =  0.00598    CDp =  0.00394
 plradd ia,ip,cpol            1           0  1.20282348E-03

 Point added to stored polar  1
 Point written to save file  mh92_Re400k.base.pol                            
 Dump file unspecified or not available
 Calculating wake trajectory ...
 Calculating source influence matrix ...

 Solving BL system ...

 Side 1  free  transition at x/c =  0.6722   55
 Side 2  free  transition at x/c =  0.3981   52

   1   rms: 0.1684E+00   max: -.2681E+01   C at   52  2   RLX: 0.186
       a = -3.500      CL = -0.4261
      Cm =  0.0256     CD =  0.00972   =>   CDf =  0.00598    CDp =  0.00375

 Side 1  free  transition at x/c =  0.6677   55
 Side 2  free  transition at x/c =  0.4129   52

   2   rms: 0.8737E-01   max: -.9366E+00   C at   52  2   RLX: 0.534
       a = -3.500      CL = -0.4024
      Cm =  0.0258     CD =  0.00971   =>   CDf =  0.00597    CDp =  0.00374

 Side 1  free  transition at x/c =  0.6590   54
 Side 2  free  transition at x/c =  0.4738   56

   3   rms: 0.6063E-01   max: -.9983E+00   C at   56  2   RLX: 0.501
       a = -3.500      CL = -0.3973
      Cm =  0.0269     CD =  0.00926   =>   CDf =  0.00575    CDp =  0.00351

 Side 1  free  transition at x/c =  0.6537   54
 Side 2  free  transition at x/c =  0.4854   57

   4   rms: 0.3263E-01   max: -.4815E+00   C at   57  2
       a = -3.500      CL = -0.3887
      Cm =  0.0272     CD =  0.00915   =>   CDf =  0.00574    CDp =  0.00341

 Side 1  free  transition at x/c =  0.6494   54
 Side 2  free  transition at x/c =  0.5007   57

   5   rms: 0.9713E-02   max: -.1763E+00   C at   57  2
       a = -3.500      CL = -0.3876
      Cm =  0.0270     CD =  0.00924   =>   CDf =  0.00571    CDp =  0.00353

 Side 1  free  transition at x/c =  0.6496   54
 Side 2  free  transition at x/c =  0.5075   58

   6   rms: 0.1727E-02   max: 0.2472E-01   C at   58  2
       a = -3.500      CL = -0.3881
      Cm =  0.0271     CD =  0.00921   =>   CDf =  0.00563    CDp =  0.00358

 Side 1  free  transition at x/c =  0.6496   54
 Side 2  free  transition at x/c =  0.5062   58

   7   rms: 0.1399E-04   max: -.2676E-03   D at   60  2
       a = -3.500      CL = -0.3881
      Cm =  0.0271     CD =  0.00921   =>   CDf =  0.00564    CDp =  0.00357
 plradd ia,ip,cpol            2           0  1.20282348E-03

 Point added to stored polar  1
 Point written to save file  mh92_Re400k.base.pol                            
 Dump file unspecified or not available
 Calculating wake trajectory ...
 Calculating source influence matrix ...

 Solving BL system ...

 Side 1  free  transition at x/c =  0.6496   54
 Side 2  free  transition at x/c =  0.5062   58

   1   rms: 0.1399E+00   max: -.2001E+01   C at   58  2   RLX: 0.250
       a = -3.000      CL = -0.3769
      Cm =  0.0277     CD =  0.00905   =>   CDf =  0.00572    CDp =  0.00333

 Side 1  free  transition at x/c =  0.6445   54
 Side 2  free  transition at x/c =  0.5242   58

   2   rms: 0.1672E+00   max: -.2336E+01   T at    2  1   RLX: 0.214
       a = -3.000      CL = -0.3682
      Cm =  0.0277     CD =  0.00902   =>   CDf =  0.00564    CDp =  0.00339

 Side 1  free  transition at x/c =  0.6404   54
 Side 2  free  transition at x/c =  0.5361   58

   3   rms: 0.5737E-01   max: -.2566E+00   T at   58  2
       a = -3.000      CL = -0.3354
      Cm =  0.0280     CD =  0.00897   =>   CDf =  0.00563    CDp =  0.00334

 Side 1  free  transition at x/c =  0.6252   53
 Side 2  free  transition at x/c =  0.6231   63

   4   rms: 0.2763E-01   max: -.3907E+00   C at   63  2
       a = -3.000      CL = -0.3420
      Cm =  0.0294     CD =  0.00858   =>   CDf =  0.00543    CDp =  0.00315

 Side 1  free  transition at x/c =  0.6275   54
 Side 2  free  transition at x/c =  0.6002   62

   5   rms: 0.7111E-02   max: -.7075E-01   D at   63  2
       a = -3.000      CL = -0.3402
      Cm =  0.0290     CD =  0.00871   =>   CDf =  0.00543    CDp =  0.00328

 Side 1  free  transition at x/c =  0.6277   54
 Side 2  free  transition at x/c =  0.5967   62

   6   rms: 0.4314E-03   max: -.5283E-02   D at   55  1
       a = -3.000      CL = -0.3401
      Cm =  0.0290     CD =  0.00872   =>   CDf =  0.00541    CDp =  0.00332

 Side 1  free  transition at x/c =  0.6276   54
 Side 2  free  transition at x/c =  0.5967   62

   7   rms: 0.2342E-05   max: -.3565E-04   D at   55  1
       a = -3.000      CL = -0.3401
      Cm =  0.0290     CD =  0.00872   =>   CDf =  0.00541    CDp =  0.00331
 plradd ia,ip,cpol            3           0  2.42630276E-03

 Point added to stored polar  1
 Point written to save file  mh92_Re400k.base.pol                            
 Dump file unspecified or not available
 Calculating wake trajectory ...
 Calculating source influence matrix ...

 Solving BL system ...

 Side 1  free  transition at x/c =  0.6276   54
 Side 2  free  transition at x/c =  0.5967   62

   1   rms: 0.1214E+00   max: -.1523E+01   C at   62  2   RLX: 0.328
       a = -2.500      CL = -0.3245
      Cm =  0.0297     CD =  0.00860   =>   CDf =  0.00541    CDp =  0.00319

 Side 1  free  transition at x/c =  0.6216   53
 Side 2  free  transition at x/c =  0.6169   63

   2   rms: 0.7581E-01   max: -.8125E+00   C at   63  2   RLX: 0.615
       a = -2.500      CL = -0.3022
      Cm =  0.0299     CD =  0.00846   =>   CDf =  0.00545    CDp =  0.00301

 Side 1  free  transition at x/c =  0.6093   54
 Side 2  free  transition at x/c =  0.6460   64

   3   rms: 0.4834E-01   max: -.6154E+00   C at   64  2   RLX: 0.812
       a = -2.500      CL = -0.2928
      Cm =  0.0306     CD =  0.00836   =>   CDf =  0.00539    CDp =  0.00297

 Side 1  free  transition at x/c =  0.6068   53
 Side 2  free  transition at x/c =  0.6612   64

   4   rms: 0.1795E-01   max: -.2245E+00   D at   65  2
       a = -2.500      CL = -0.2890
      Cm =  0.0303     CD =  0.00852   =>   CDf =  0.00541    CDp =  0.00311

 Side 1  free  transition at x/c =  0.6051   53
 Side 2  free  transition at x/c =  0.6875   66

   5   rms: 0.1731E-01   max: 0.3035E+00   C at   66  2
       a = -2.500      CL = -0.2900
      Cm =  0.0306     CD =  0.00840   =>   CDf =  0.00512    CDp =  0.00328

 Side 1  free  transition at x/c =  0.6052   53
 Side 2  free  transition at x/c =  0.6790   66

   6   rms: 0.1444E-02   max: -.2252E-01   D at   68  2
       a = -2.500      CL = -0.2900
      Cm =  0.0306     CD =  0.00841   =>   CDf =  0.00520    CDp =  0.00321

 Side 1  free  transition at x/c =  0.6052   53
 Side 2  free  transition at x/c =  0.6785   65

   7   rms: 0.1283E-03   max: 0.1808E-02   D at   66  2
       a = -2.500      CL = -0.2901
      Cm =  0.0307     CD =  0.00841   =>   CDf =  0.00520    CDp =  0.00321

 Side 1  free  transition at x/c =  0.6052   53
 Side 2  free  transition at x/c =  0.6784   65

   8   rms: 0.1040E-05   max: -.1386E-04   C at   65  2
       a = -2.500      CL = -0.2901
      Cm =  0.0307     CD =  0.00841   =>   CDf =  0.00520    CDp =  0.00321
 plradd ia,ip,cpol            4           0  2.42630276E-03

 Point added to stored polar  1
 Point written to save file  mh92_Re400k.base.pol                            
 Dump file unspecified or not available
 Calculating wake trajectory ...
 Calculating source influence matrix ...

 Solving BL system ...

 Side 1  free  transition at x/c =  0.6052   53
 Side 2  free  transition at x/c =  0.6784   65

   1   rms: 0.8867E-01   max: 0.3518E+00   D at   66  2
       a = -2.000      CL = -0.2365
      Cm =  0.0316     CD =  0.00834   =>   CDf =  0.00520    CDp =  0.00314

 Side 1  free  transition at x/c =  0.5798   52
 Side 2  free  transition at x/c =  0.7161   68

   2   rms: 0.2625E-01   max: -.2568E+00   C at   68  2
       a = -2.000      CL = -0.2365
      Cm =  0.0318     CD =  0.00827   =>   CDf =  0.00533    CDp =  0.00294

 Side 1  free  transition at x/c =  0.5836   52
 Side 2  free  transition at x/c =  0.7263   68

   3   rms: 0.6427E-02   max: -.8355E-01   C at   68  2
       a = -2.000      CL = -0.2366
      Cm =  0.0317     CD =  0.00834   =>   CDf =  0.00519    CDp =  0.00315

 Side 1  free  transition at x/c =  0.5824   52
 Side 2  free  transition at x/c =  0.7291   68

   4   rms: 0.2395E-03   max: -.3008E-02   D at   71  2
       a = -2.000      CL = -0.2366
      Cm =  0.0318     CD =  0.00834   =>   CDf =  0.00517    CDp =  0.00318

 Side 1  free  transition at x/c =  0.5824   52
 Side 2  free  transition at x/c =  0.7288   68

   5   rms: 0.7507E-05   max: -.9362E-04   D at    4  2
       a = -2.000      CL = -0.2366
      Cm =  0.0318     CD =  0.00834   =>   CDf =  0.00517    CDp =  0.00318
 plradd ia,ip,cpol            5           0  2.42630276E-03

 Point added to stored polar  1
 Point written to save file  mh92_Re400k.base.pol                            
 Dump file unspecified or not available
 Calculating wake trajectory ...
 Calculating source influence matrix ...

 Solving BL system ...

 Side 1  free  transition at x/c =  0.5824   52
 Side 2  free  transition at x/c =  0.7288   68

   1   rms: 0.8366E-01   max: -.2741E+00   T at   68  2
       a = -1.500      CL = -0.1823
      Cm =  0.0325     CD =  0.00839   =>   CDf =  0.00522    CDp =  0.00317

 Side 1  free  transition at x/c =  0.5586   52
 Side 2  free  transition at x/c =  0.7653   69

   2   rms: 0.1982E-01   max: -.2699E+00   D at   52  1
       a = -1.500      CL = -0.1820
      Cm =  0.0326     CD =  0.00837   =>   CDf =  0.00533    CDp =  0.00305

 Side 1  free  transition at x/c =  0.5609   52
 Side 2  free  transition at x/c =  0.7659   69

   3   rms: 0.3482E-02   max: 0.4776E-01   C at   52  1
       a = -1.500      CL = -0.1820
      Cm =  0.0326     CD =  0.00840   =>   CDf =  0.00522    CDp =  0.00318

 Side 1  free  transition at x/c =  0.5597   52
 Side 2  free  transition at x/c =  0.7653   69

   4   rms: 0.7707E-04   max: -.1085E-02   D at   54  1
       a = -1.500      CL = -0.1820
      Cm =  0.0326     CD =  0.00840   =>   CDf =  0.00524    CDp =  0.00316
 plradd ia,ip,cpol            6           0  2.42630276E-03

 Point added to stored polar  1
 Point written to save file  mh92_Re400k.base.pol                            
 Dump file unspecified or not available
 Calculating wake trajectory ...
 Calculating source influence matrix ...

 Solving BL system ...

 Side 1  free  transition at x/c =  0.5596   52
 Side 2  free  transition at x/c =  0.7653   69

   1   rms: 0.8455E-01   max: -.3424E+00   T at   69  2
       a = -1.000      CL = -0.1284
      Cm =  0.0334     CD =  0.00856   =>   CDf =  0.00528    CDp =  0.00328

 Side 1  free  transition at x/c =  0.5391   52
 Side 2  free  transition at x/c =  0.8009   70

   2   rms: 0.2449E-01   max: -.2950E+00   D at   52  1
       a = -1.000      CL = -0.1260
      Cm =  0.0333     CD =  0.00849   =>   CDf =  0.00534    CDp =  0.00315

 Side 1  free  transition at x/c =  0.5386   52
 Side 2  free  transition at x/c =  0.7917   70

   3   rms: 0.5082E-02   max: -.4159E-01   C at   70  2
       a = -1.000      CL = -0.1268
      Cm =  0.0334     CD =  0.00853   =>   CDf =  0.00532    CDp =  0.00321

 Side 1  free  transition at x/c =  0.5376   52
 Side 2  free  transition at x/c =  0.7935   70

   4   rms: 0.1555E-03   max: -.2171E-02   D at   72  2
       a = -1.000      CL = -0.1268
      Cm =  0.0334     CD =  0.00854   =>   CDf =  0.00532    CDp =  0.00321

 Side 1  free  transition at x/c =  0.5376   52
 Side 2  free  transition at x/c =  0.7935   70

   5   rms: 0.1172E-05   max: -.1017E-04   D at   53  1
       a = -1.000      CL = -0.1268
      Cm =  0.0334     CD =  0.00854   =>   CDf =  0.00532    CDp =  0.00321
 plradd ia,ip,cpol            7           0  0.15879034    

 Point added to stored polar  1
 Point written to save file  mh92_Re400k.base.pol                            
 Dump file unspecified or not available
 Calculating wake trajectory ...
 Calculating source influence matrix ...

 Solving BL system ...

 Side 1  free  transition at x/c =  0.5376   52
 Side 2  free  transition at x/c =  0.7935   70

   1   rms: 0.8532E-01   max: -.3174E+00   T at   70  2
       a = -0.500      CL = -0.0728
      Cm =  0.0343     CD =  0.00881   =>   CDf =  0.00535    CDp =  0.00346

 Side 1  free  transition at x/c =  0.5169   51
 Side 2  free  transition at x/c =  0.8140   70

   2   rms: 0.1422E-01   max: 0.2041E+00   D at   52  1
       a = -0.500      CL = -0.0715
      Cm =  0.0340     CD =  0.00869   =>   CDf =  0.00543    CDp =  0.00326

 Side 1  free  transition at x/c =  0.5155   51
 Side 2  free  transition at x/c =  0.8163   70

   3   rms: 0.1247E-02   max: 0.1432E-01   C at   51  1
       a = -0.500      CL = -0.0715
      Cm =  0.0340     CD =  0.00868   =>   CDf =  0.00542    CDp =  0.00327

 Side 1  free  transition at x/c =  0.5150   51
 Side 2  free  transition at x/c =  0.8165   70

   4   rms: 0.1227E-04   max: -.1440E-03   D at   53  1
       a = -0.500      CL = -0.0715
      Cm =  0.0340     CD =  0.00868   =>   CDf =  0.00542    CDp =  0.00327
 plradd ia,ip,cpol            8           0  0.15879034    

 Point added to stored polar  1
 Point written to save file  mh92_Re400k.base.pol                            
 Dump file unspecified or not available
 Calculating wake trajectory ...
 Calculating source influence matrix ...

 Solving BL system ...

 Side 1  free  transition at x/c =  0.5150   51
 Side 2  free  transition at x/c =  0.8165   70

   1   rms: 0.7922E-01   max: -.3173E+00   T at   70  2
       a =  0.000      CL = -0.0169
      Cm =  0.0346     CD =  0.00878   =>   CDf =  0.00544    CDp =  0.00335

 Side 1  free  transition at x/c =  0.4908   51
 Side 2  free  transition at x/c =  0.8393   71

   2   rms: 0.1725E-01   max: -.2149E+00   D at   51  1
       a =  0.000      CL = -0.0167
      Cm =  0.0347     CD =  0.00884   =>   CDf =  0.00557    CDp =  0.00327

 Side 1  free  transition at x/c =  0.4938   51
 Side 2  free  transition at x/c =  0.8367   70

   3   rms: 0.3708E-02   max: 0.4106E-01   D at   71  2
       a =  0.000      CL = -0.0161
      Cm =  0.0346     CD =  0.00886   =>   CDf =  0.00551    CDp =  0.00335

 Side 1  free  transition at x/c =  0.4927   51
 Side 2  free  transition at x/c =  0.8355   70

   4   rms: 0.8874E-04   max: -.9999E-03   D at   71  2
       a =  0.000      CL = -0.0161
      Cm =  0.0346     CD =  0.00886   =>   CDf =  0.00552    CDp =  0.00334
 plradd ia,ip,cpol            9           0  0.14549720    

 Point added to stored polar  1
 Point written to save file  mh92_Re400k.base.pol                            
 Dump file unspecified or not available
 Calculating wake trajectory ...
 Calculating source influence matrix ...

 Solving BL system ...

 Side 1  free  transition at x/c =  0.4927   51
 Side 2  free  transition at x/c =  0.8355   70

   1   rms: 0.8081E-01   max: -.3334E+00   T at   70  2
       a =  0.500      CL =  0.0374
      Cm =  0.0353     CD =  0.00902   =>   CDf =  0.00552    CDp =  0.00350

 Side 1  free  transition at x/c =  0.4710   50
 Side 2  free  transition at x/c =  0.8571   72

   2   rms: 0.2059E-01   max: -.2517E+00   D at   50  1
       a =  0.500      CL =  0.0380
      Cm =  0.0354     CD =  0.00903   =>   CDf =  0.00564    CDp =  0.00338

 Side 1  free  transition at x/c =  0.4717   50
 Side 2  free  transition at x/c =  0.8537   71

   3   rms: 0.5574E-02   max: 0.7107E-01   D at   72  2
       a =  0.500      CL =  0.0393
      Cm =  0.0353     CD =  0.00908   =>   CDf =  0.00561    CDp =  0.00347

 Side 1  free  transition at x/c =  0.4707   50
 Side 2  free  transition at x/c =  0.8513   71

   4   rms: 0.3205E-03   max: -.3972E-02   D at   72  2
       a =  0.500      CL =  0.0392
      Cm =  0.0353     CD =  0.00907   =>   CDf =  0.00562    CDp =  0.00346

 Side 1  free  transition at x/c =  0.4707   50
 Side 2  free  transition at x/c =  0.8515   71

   5   rms: 0.1898E-05   max: -.1917E-04   D at   72  2
       a =  0.500      CL =  0.0392
      Cm =  0.0353     CD =  0.00907   =>   CDf =  0.00562    CDp =  0.00346
 plradd ia,ip,cpol           10           0  0.13272384    

 Point added to stored polar  1
 Point written to save file  mh92_Re400k.base.pol                            
 Dump file unspecified or not available
 Calculating wake trajectory ...
 Calculating source influence matrix ...

 Solving BL system ...

 Side 1  free  transition at x/c =  0.4707   50
 Side 2  free  transition at x/c =  0.8515   71

   1   rms: 0.8110E-01   max: -.2981E+00   T at   71  2
       a =  1.000      CL =  0.0926
      Cm =  0.0360     CD =  0.00931   =>   CDf =  0.00562    CDp =  0.00369

 Side 1  free  transition at x/c =  0.4503   50
 Side 2  free  transition at x/c =  0.8704   71

   2   rms: 0.3322E-01   max: -.3554E+00   D at   50  1
       a =  1.000      CL =  0.0925
      Cm =  0.0362     CD =  0.00917   =>   CDf =  0.00570    CDp =  0.00346

 Side 1  free  transition at x/c =  0.4515   50
 Side 2  free  transition at x/c =  0.8682   71

   3   rms: 0.7473E-02   max: 0.6975E-01   C at   50  1
       a =  1.000      CL =  0.0941
      Cm =  0.0359     CD =  0.00932   =>   CDf =  0.00569    CDp =  0.00363

 Side 1  free  transition at x/c =  0.4495   50
 Side 2  free  transition at x/c =  0.8655   71

   4   rms: 0.4616E-03   max: -.5483E-02   D at   72  2
       a =  1.000      CL =  0.0941
      Cm =  0.0359     CD =  0.00932   =>   CDf =  0.00573    CDp =  0.00359

 Side 1  free  transition at x/c =  0.4495   50
 Side 2  free  transition at x/c =  0.8656   71

   5   rms: 0.1712E-05   max: 0.1389E-04   D at   72  2
       a =  1.000      CL =  0.0941
      Cm =  0.0359     CD =  0.00932   =>   CDf =  0.00573    CDp =  0.00359
 plradd ia,ip,cpol           11           0  0.13272384    

 Point added to stored polar  1
 Point written to save file  mh92_Re400k.base.pol                            
 Dump file unspecified or not available
 Calculating wake trajectory ...
 Calculating source influence matrix ...

 Solving BL system ...

 Side 1  free  transition at x/c =  0.4495   50
 Side 2  free  transition at x/c =  0.8656   71

   1   rms: 0.8353E-01   max: -.2671E+00   T at   71  2
       a =  1.500      CL =  0.1473
      Cm =  0.0368     CD =  0.00971   =>   CDf =  0.00573    CDp =  0.00398

 Side 1  free  transition at x/c =  0.4311   50
 Side 2  free  transition at x/c =  0.8792   71

   2   rms: 0.1551E-01   max: -.2166E+00   D at   51  1
       a =  1.500      CL =  0.1482
      Cm =  0.0367     CD =  0.00958   =>   CDf =  0.00583    CDp =  0.00374

 Side 1  free  transition at x/c =  0.4300   49
 Side 2  free  transition at x/c =  0.8793   71

   3   rms: 0.1809E-02   max: -.2892E-01   D at   51  1
       a =  1.500      CL =  0.1484
      Cm =  0.0367     CD =  0.00956   =>   CDf =  0.00583    CDp =  0.00373

 Side 1  free  transition at x/c =  0.4292   49
 Side 2  free  transition at x/c =  0.8792   71

   4   rms: 0.2767E-04   max: -.3581E-03   C at   49  1
       a =  1.500      CL =  0.1484
      Cm =  0.0367     CD =  0.00956   =>   CDf =  0.00582    CDp =  0.00374
 plradd ia,ip,cpol           12           0  0.12052625    

 Point added to stored polar  1
 Point written to save file  mh92_Re400k.base.pol                            
 Dump file unspecified or not available
 Calculating wake trajectory ...
 Calculating source influence matrix ...

 Solving BL system ...

 Side 1  free  transition at x/c =  0.4292   49
 Side 2  free  transition at x/c =  0.8792   71

   1   rms: 0.7945E-01   max: -.2677E+00   T at   71  2
       a =  2.000      CL =  0.2044
      Cm =  0.0372     CD =  0.00971   =>   CDf =  0.00581    CDp =  0.00390

 Side 1  free  transition at x/c =  0.4068   49
 Side 2  free  transition at x/c =  0.8905   70

   2   rms: 0.2491E-01   max: -.1944E+00   D at   71  2
       a =  2.000      CL =  0.2003
      Cm =  0.0376     CD =  0.00983   =>   CDf =  0.00597    CDp =  0.00386

 Side 1  free  transition at x/c =  0.4102   49
 Side 2  free  transition at x/c =  0.8975   71

   3   rms: 0.1833E-01   max: 0.2682E+00   D at   71  2
       a =  2.000      CL =  0.2002
      Cm =  0.0378     CD =  0.00976   =>   CDf =  0.00588    CDp =  0.00389

 Side 1  free  transition at x/c =  0.4095   49
 Side 2  free  transition at x/c =  0.8944   71

   4   rms: 0.3222E-02   max: -.3246E-01   D at   74  2
       a =  2.000      CL =  0.2015
      Cm =  0.0376     CD =  0.00981   =>   CDf =  0.00589    CDp =  0.00392

 Side 1  free  transition at x/c =  0.4094   49
 Side 2  free  transition at x/c =  0.8935   71

   5   rms: 0.1772E-03   max: -.2114E-02   D at   74  2
       a =  2.000      CL =  0.2015
      Cm =  0.0376     CD =  0.00982   =>   CDf =  0.00590    CDp =  0.00392

 Side 1  free  transition at x/c =  0.4094   49
 Side 2  free  transition at x/c =  0.8935   71

   6   rms: 0.6019E-06   max: 0.4003E-05   D at   75  2
       a =  2.000      CL =  0.2015
      Cm =  0.0376     CD =  0.00982   =>   CDf =  0.00590    CDp =  0.00392
 plradd ia,ip,cpol           13           0  0.12052625    

 Point added to stored polar  1
 Point written to save file  mh92_Re400k.base.pol                            
 Dump file unspecified or not available
 Calculating wake trajectory ...
 Calculating source influence matrix ...

 Solving BL system ...

 Side 1  free  transition at x/c =  0.4094   49
 Side 2  free  transition at x/c =  0.8935   71

   1   rms: 0.8142E-01   max: -.3187E+00   T at   71  2
       a =  2.500      CL =  0.2573
      Cm =  0.0384     CD =  0.01003   =>   CDf =  0.00590    CDp =  0.00413

 Side 1  free  transition at x/c =  0.3891   48
 Side 2  free  transition at x/c =  0.9021   71

   2   rms: 0.2768E-01   max: -.2359E+00   D at   71  2
       a =  2.500      CL =  0.2540
      Cm =  0.0387     CD =  0.01013   =>   CDf =  0.00602    CDp =  0.00411

 Side 1  free  transition at x/c =  0.3916   48
 Side 2  free  transition at x/c =  0.9075   71

   3   rms: 0.2955E-02   max: 0.2536E-01   D at   72  2
       a =  2.500      CL =  0.2546
      Cm =  0.0386     CD =  0.01011   =>   CDf =  0.00596    CDp =  0.00415

 Side 1  free  transition at x/c =  0.3908   48
 Side 2  free  transition at x/c =  0.9065   71

   4   rms: 0.9156E-04   max: -.1195E-02   D at   72  2
       a =  2.500      CL =  0.2546
      Cm =  0.0386     CD =  0.01011   =>   CDf =  0.00597    CDp =  0.00415
 plradd ia,ip,cpol           14           0  0.12052625    

 Point added to stored polar  1
 Point written to save file  mh92_Re400k.base.pol                            
 Dump file unspecified or not available
 Calculating wake trajectory ...
 Calculating source influence matrix ...

 Solving BL system ...

 Side 1  free  transition at x/c =  0.3908   48
 Side 2  free  transition at x/c =  0.9066   71

   1   rms: 0.7648E-01   max: -.3772E+00   T at   71  2
       a =  3.000      CL =  0.3042
      Cm =  0.0399     CD =  0.01028   =>   CDf =  0.00594    CDp =  0.00434

 Side 1  free  transition at x/c =  0.3733   48
 Side 2  free  transition at x/c =  0.9234   71

   2   rms: 0.2865E-01   max: 0.3298E+00   D at   72  2
       a =  3.000      CL =  0.3145
      Cm =  0.0382     CD =  0.01045   =>   CDf =  0.00608    CDp =  0.00437

 Side 1  free  transition at x/c =  0.3732   48
 Side 2  free  transition at x/c =  0.9138   71

   3   rms: 0.9116E-02   max: -.7905E-01   T at   71  2
       a =  3.000      CL =  0.3090
      Cm =  0.0392     CD =  0.01039   =>   CDf =  0.00604    CDp =  0.00435

 Side 1  free  transition at x/c =  0.3734   48
 Side 2  free  transition at x/c =  0.9165   71

   4   rms: 0.9643E-03   max: -.1025E-01   D at   72  2
       a =  3.000      CL =  0.3091
      Cm =  0.0392     CD =  0.01039   =>   CDf =  0.00603    CDp =  0.00436

 Side 1  free  transition at x/c =  0.3733   48
 Side 2  free  transition at x/c =  0.9165   71

   5   rms: 0.2134E-05   max: 0.1930E-04   D at   73  2
       a =  3.000      CL =  0.3091
      Cm =  0.0392     CD =  0.01039   =>   CDf =  0.00603    CDp =  0.00436
 plradd ia,ip,cpol           15           0  0.10893592    

 Point added to stored polar  1
 Point written to save file  mh92_Re400k.base.pol                            
 Dump file unspecified or not available
 Calculating wake trajectory ...
 Calculating source influence matrix ...

 Solving BL system ...

 Side 1  free  transition at x/c =  0.3733   48
 Side 2  free  transition at x/c =  0.9165   71

   1   rms: 0.7773E-01   max: -.2442E+00   T at   71  2
       a =  3.500      CL =  0.3638
      Cm =  0.0397     CD =  0.01062   =>   CDf =  0.00600    CDp =  0.00462

 Side 1  free  transition at x/c =  0.3563   48
 Side 2  free  transition at x/c =  0.9255   70

   2   rms: 0.2756E-01   max: -.2343E+00   D at   72  2
       a =  3.500      CL =  0.3569
      Cm =  0.0407     CD =  0.01068   =>   CDf =  0.00615    CDp =  0.00453

 Side 1  free  transition at x/c =  0.3581   48
 Side 2  free  transition at x/c =  0.9336   71

   3   rms: 0.2934E-01   max: 0.3563E+00   D at   71  2
       a =  3.500      CL =  0.3563
      Cm =  0.0411     CD =  0.01054   =>   CDf =  0.00610    CDp =  0.00444

 Side 1  free  transition at x/c =  0.3578   48
 Side 2  free  transition at x/c =  0.9299   71

   4   rms: 0.7540E-02   max: 0.6692E-01   T at   71  2
       a =  3.500      CL =  0.3612
      Cm =  0.0401     CD =  0.01064   =>   CDf =  0.00610    CDp =  0.00454

 Side 1  free  transition at x/c =  0.3573   48
 Side 2  free  transition at x/c =  0.9278   71

   5   rms: 0.8807E-03   max: -.9627E-02   D at   71  2
       a =  3.500      CL =  0.3617
      Cm =  0.0400     CD =  0.01065   =>   CDf =  0.00610    CDp =  0.00454

 Side 1  free  transition at x/c =  0.3573   48
 Side 2  free  transition at x/c =  0.9278   71

   6   rms: 0.3885E-05   max: 0.4542E-04   D at   72  2
       a =  3.500      CL =  0.3617
      Cm =  0.0400     CD =  0.01064   =>   CDf =  0.00610    CDp =  0.00454
 plradd ia,ip,cpol           16           0  0.10893592    

 Point added to stored polar  1
 Point written to save file  mh92_Re400k.base.pol                            
 Dump file unspecified or not available
 Calculating wake trajectory ...
 Calculating source influence matrix ...

 Solving BL system ...

 Side 1  free  transition at x/c =  0.3573   48
 Side 2  free  transition at x/c =  0.9278   71

   1   rms: 0.8111E-01   max: -.2411E+00   T at   71  2
       a =  4.000      CL =  0.4217
      Cm =  0.0394     CD =  0.01085   =>   CDf =  0.00610    CDp =  0.00475

 Side 1  free  transition at x/c =  0.3407   47
 Side 2  free  transition at x/c =  0.9345   71

   2   rms: 0.1781E-01   max: -.1384E+00   D at   47  1
       a =  4.000      CL =  0.4181
      Cm =  0.0399     CD =  0.01097   =>   CDf =  0.00621    CDp =  0.00476

 Side 1  free  transition at x/c =  0.3419   47
 Side 2  free  transition at x/c =  0.9370   71

   3   rms: 0.1079E-02   max: 0.9864E-02   D at   73  2
       a =  4.000      CL =  0.4186
      Cm =  0.0399     CD =  0.01096   =>   CDf =  0.00617    CDp =  0.00479

 Side 1  free  transition at x/c =  0.3416   47
 Side 2  free  transition at x/c =  0.9367   71

   4   rms: 0.1539E-04   max: -.1337E-03   D at   72  2
       a =  4.000      CL =  0.4186
      Cm =  0.0399     CD =  0.01096   =>   CDf =  0.00617    CDp =  0.00479
 plradd ia,ip,cpol           17           0  9.79706496E-02

 Point added to stored polar  1
 Point written to save file  mh92_Re400k.base.pol                            
 Dump file unspecified or not available
 Calculating wake trajectory ...
 Calculating source influence matrix ...

 Solving BL system ...

 Side 1  free  transition at x/c =  0.3416   47
 Side 2  free  transition at x/c =  0.9367   71

   1   rms: 0.7551E-01   max: -.2807E+00   T at   71  2
       a =  4.500      CL =  0.4719
      Cm =  0.0404     CD =  0.01113   =>   CDf =  0.00612    CDp =  0.00501

 Side 1  free  transition at x/c =  0.3264   47
 Side 2  free  transition at x/c =  0.9484   71

   2   rms: 0.1600E-01   max: 0.1801E+00   D at   72  2
       a =  4.500      CL =  0.4757
      Cm =  0.0395     CD =  0.01128   =>   CDf =  0.00627    CDp =  0.00500

 Side 1  free  transition at x/c =  0.3273   47
 Side 2  free  transition at x/c =  0.9457   71

   3   rms: 0.6640E-03   max: 0.1074E-01   D at   72  2
       a =  4.500      CL =  0.4759
      Cm =  0.0395     CD =  0.01128   =>   CDf =  0.00624    CDp =  0.00505

 Side 1  free  transition at x/c =  0.3271   47
 Side 2  free  transition at x/c =  0.9456   71

   4   rms: 0.4097E-05   max: -.4992E-04   D at   71  2
       a =  4.500      CL =  0.4759
      Cm =  0.0395     CD =  0.01129   =>   CDf =  0.00624    CDp =  0.00505
 plradd ia,ip,cpol           18           0  9.79706496E-02

 Point added to stored polar  1
 Point written to save file  mh92_Re400k.base.pol                            
 Dump file unspecified or not available
 Calculating wake trajectory ...
 Calculating source influence matrix ...

 Solving BL system ...

 Side 1  free  transition at x/c =  0.3271   47
 Side 2  free  transition at x/c =  0.9456   71

   1   rms: 0.8392E-01   max: -.1856E+00   T at   71  2
       a =  5.000      CL =  0.5424
      Cm =  0.0374     CD =  0.01147   =>   CDf =  0.00618    CDp =  0.00529

 Side 1  free  transition at x/c =  0.3107   47
 Side 2  free  transition at x/c =  0.9516   70

   2   rms: 0.1549E-01   max: -.1150E+00   D at   71  2
       a =  5.000      CL =  0.5362
      Cm =  0.0384     CD =  0.01168   =>   CDf =  0.00633    CDp =  0.00534

 Side 1  free  transition at x/c =  0.3121   48
 Side 2  free  transition at x/c =  0.9542   70

   3   rms: 0.5907E-02   max: -.6468E-01   D at   47  1
       a =  5.000      CL =  0.5363
      Cm =  0.0384     CD =  0.01164   =>   CDf =  0.00633    CDp =  0.00530

 Side 1  free  transition at x/c =  0.3127   48
 Side 2  free  transition at x/c =  0.9543   70

   4   rms: 0.5057E-03   max: -.4529E-02   D at   49  1
       a =  5.000      CL =  0.5363
      Cm =  0.0384     CD =  0.01164   =>   CDf =  0.00629    CDp =  0.00535

 Side 1  free  transition at x/c =  0.3125   48
 Side 2  free  transition at x/c =  0.9543   70

   5   rms: 0.8036E-05   max: -.6800E-04   D at   49  1
       a =  5.000      CL =  0.5363
      Cm =  0.0384     CD =  0.01164   =>   CDf =  0.00629    CDp =  0.00535
 plradd ia,ip,cpol           19           0  8.76563042E-02

 Point added to stored polar  1
 Point written to save file  mh92_Re400k.base.pol                            
 Dump file unspecified or not available
 Calculating wake trajectory ...
 Calculating source influence matrix ...

 Solving BL system ...

 Side 1  free  transition at x/c =  0.3125   48
 Side 2  free  transition at x/c =  0.9543   70

   1   rms: 0.7742E-01   max: -.4324E+00   T at   70  2
       a =  5.500      CL =  0.5768
      Cm =  0.0411     CD =  0.01221   =>   CDf =  0.00630    CDp =  0.00592

 Side 1  free  transition at x/c =  0.3012   47
 Side 2  free  transition at x/c =  0.9722   72

   2   rms: 0.4487E-01   max: 0.4348E+00   D at   72  2
       a =  5.500      CL =  0.5858
      Cm =  0.0396     CD =  0.01173   =>   CDf =  0.00630    CDp =  0.00543

 Side 1  free  transition at x/c =  0.3013   47
 Side 2  free  transition at x/c =  0.9675   71

   3   rms: 0.4437E-01   max: 0.3916E+00   T at   71  2
       a =  5.500      CL =  0.6218
      Cm =  0.0321     CD =  0.01205   =>   CDf =  0.00618    CDp =  0.00588

 Side 1  free  transition at x/c =  0.2976   48
 Side 2  free  transition at x/c =  0.9542   69
 idif Ue xi dudx           1  0.14375560      2.87985802E-03   49.917599    
 Uenew xinew           2  2.31182426E-02  4.63128090E-04

   4   rms: 0.1941E+00   max: -.1695E+01   T at   69  2   RLX: 0.295
       a =  5.500      CL =  0.5753
      Cm =  0.0414     CD =  0.01232   =>   CDf =  0.00640    CDp =  0.00592

 MRCHDU: Convergence failed at  73  side 2    Res =  0.1239E+01
 MRCHDU: Convergence failed at  74  side 2    Res =  0.1896E+01
 Side 1  free  transition at x/c =  0.3012   47
 Side 2  free  transition at x/c =  0.9740   72

   5   rms: 0.5817E-01   max: 0.6373E+00   T at   74  2
       a =  5.500      CL =  0.5855
      Cm =  0.0396     CD =  0.01136   =>   CDf =  0.00627    CDp =  0.00510

 Side 1  free  transition at x/c =  0.3004   47
 Side 2  free  transition at x/c =  0.9680   71

   6   rms: 0.5082E-01   max: 0.4872E+00   T at   71  2
       a =  5.500      CL =  0.6292
      Cm =  0.0305     CD =  0.01209   =>   CDf =  0.00619    CDp =  0.00589

 Side 1  free  transition at x/c =  0.2970   48
 Side 2  free  transition at x/c =  0.9521   69
 idif Ue xi dudx           1  0.13940060      2.81262398E-03   49.562473    
 Uenew xinew           2  1.96214877E-02  3.95894051E-04

   7   rms: 0.8339E-01   max: -.7180E+00   T at   69  2   RLX: 0.696
       a =  5.500      CL =  0.5807
      Cm =  0.0404     CD =  0.01210   =>   CDf =  0.00641    CDp =  0.00569

 Side 1  free  transition at x/c =  0.3010   47
 Side 2  free  transition at x/c =  0.9715   72

   8   rms: 0.3217E-01   max: 0.3742E+00   D at   72  2
       a =  5.500      CL =  0.5859
      Cm =  0.0396     CD =  0.01186   =>   CDf =  0.00627    CDp =  0.00559

 Side 1  free  transition at x/c =  0.3004   47
 Side 2  free  transition at x/c =  0.9673   71

   9   rms: 0.4247E-01   max: 0.3732E+00   T at   71  2
       a =  5.500      CL =  0.6205
      Cm =  0.0323     CD =  0.01206   =>   CDf =  0.00619    CDp =  0.00587

 Side 1  free  transition at x/c =  0.2977   48
 Side 2  free  transition at x/c =  0.9546   69
 idif Ue xi dudx           1  0.14447169      2.89165974E-03   49.961510    
 Uenew xinew           2  2.37282105E-02  4.74929810E-04

  10   rms: 0.2785E+00   max: -.2385E+01   T at   69  2   RLX: 0.210
       a =  5.500      CL =  0.5745
      Cm =  0.0416     CD =  0.01235   =>   CDf =  0.00640    CDp =  0.00595

 MRCHDU: Convergence failed at  73  side 2    Res =  0.1321E+01
 MRCHDU: Convergence failed at  74  side 2    Res =  0.2002E+01
 Side 1  free  transition at x/c =  0.3013   47
 Side 2  free  transition at x/c =  0.9743   72

  11   rms: 0.5956E-01   max: 0.6484E+00   T at   74  2
       a =  5.500      CL =  0.5849
      Cm =  0.0398     CD =  0.01134   =>   CDf =  0.00626    CDp =  0.00507

 Side 1  free  transition at x/c =  0.3004   47
 Side 2  free  transition at x/c =  0.9682   71

  12   rms: 0.5370E-01   max: 0.5172E+00   T at   71  2
       a =  5.500      CL =  0.6312
      Cm =  0.0301     CD =  0.01209   =>   CDf =  0.00619    CDp =  0.00590

 Side 1  free  transition at x/c =  0.2968   48
 Side 2  free  transition at x/c =  0.9515   69
 idif Ue xi dudx           1  0.13816339      2.79355049E-03   49.457989    
 Uenew xinew           2  1.86367873E-02  3.76820564E-04

  13   rms: 0.7655E-01   max: -.6467E+00   T at   69  2   RLX: 0.773
       a =  5.500      CL =  0.5823
      Cm =  0.0401     CD =  0.01205   =>   CDf =  0.00642    CDp =  0.00563

 Side 1  free  transition at x/c =  0.3009   47
 Side 2  free  transition at x/c =  0.9708   72

  14   rms: 0.2796E-01   max: 0.3254E+00   D at   72  2
       a =  5.500      CL =  0.5862
      Cm =  0.0395     CD =  0.01190   =>   CDf =  0.00627    CDp =  0.00563

 Side 1  free  transition at x/c =  0.3003   47
 Side 2  free  transition at x/c =  0.9671   71

  15   rms: 0.4087E-01   max: 0.3530E+00   T at   71  2
       a =  5.500      CL =  0.6192
      Cm =  0.0326     CD =  0.01206   =>   CDf =  0.00619    CDp =  0.00586

 Side 1  free  transition at x/c =  0.2978   48
 Side 2  free  transition at x/c =  0.9550   69
 idif Ue xi dudx           1  0.14049423      2.81703472E-03   49.873089    
 Uenew xinew           2  1.99644361E-02  4.00304794E-04

  16   rms: 0.5478E+00   max: -.5273E+01   T at    2  1   RLX: 0.095
       a =  5.500      CL =  0.5802
      Cm =  0.0404     CD =  0.01242   =>   CDf =  0.00640    CDp =  0.00603

 Side 1  free  transition at x/c =  0.3009   47
 Side 2  free  transition at x/c =  0.9712   72

  17   rms: 0.2925E-01   max: 0.3391E+00   D at   72  2
       a =  5.500      CL =  0.5859
      Cm =  0.0396     CD =  0.01188   =>   CDf =  0.00627    CDp =  0.00561

 Side 1  free  transition at x/c =  0.3004   47
 Side 2  free  transition at x/c =  0.9672   71

  18   rms: 0.4192E-01   max: 0.3659E+00   T at   71  2
       a =  5.500      CL =  0.6201
      Cm =  0.0324     CD =  0.01206   =>   CDf =  0.00619    CDp =  0.00587

 Side 1  free  transition at x/c =  0.2977   48
 Side 2  free  transition at x/c =  0.9547   69
 idif Ue xi dudx           1  0.14314744      2.86650658E-03   49.937943    
 Uenew xinew           2  2.24609207E-02  4.49776649E-04

  19   rms: 0.3387E+00   max: -.3014E+01   D at    2  1   RLX: 0.166
       a =  5.500      CL =  0.5764
      Cm =  0.0412     CD =  0.01238   =>   CDf =  0.00640    CDp =  0.00598

 MRCHDU: Convergence failed at  73  side 2    Res =  0.2625E+01
 MRCHDU: Convergence failed at  74  side 2    Res =  0.1905E+01
 Side 1  free  transition at x/c =  0.3011   47
 Side 2  free  transition at x/c =  0.9732   72

  20   rms: 0.5574E-01   max: 0.6164E+00   T at   74  2
       a =  5.500      CL =  0.5867
      Cm =  0.0394     CD =  0.01142   =>   CDf =  0.00627    CDp =  0.00515

 Side 1  free  transition at x/c =  0.3003   47
 Side 2  free  transition at x/c =  0.9676   71

  21   rms: 0.4606E-01   max: 0.4372E+00   T at   71  2
       a =  5.500      CL =  0.6258
      Cm =  0.0312     CD =  0.01208   =>   CDf =  0.00620    CDp =  0.00588

 Side 1  free  transition at x/c =  0.2973   48
 Side 2  free  transition at x/c =  0.9531   69
 idif Ue xi dudx           1  0.14138740      2.84302235E-03   49.731373    
 Uenew xinew           2  2.12001074E-02  4.26292419E-04

  22   rms: 0.1057E+00   max: -.9311E+00   T at   69  2   RLX: 0.537
       a =  5.500      CL =  0.5782
      Cm =  0.0409     CD =  0.01220   =>   CDf =  0.00641    CDp =  0.00579

 Side 1  free  transition at x/c =  0.3011   47
 Side 2  free  transition at x/c =  0.9727   72

  23   rms: 0.3862E-01   max: 0.4417E+00   D at   72  2
       a =  5.500      CL =  0.5854
      Cm =  0.0397     CD =  0.01180   =>   CDf =  0.00627    CDp =  0.00553

 Side 1  free  transition at x/c =  0.3004   47
 Side 2  free  transition at x/c =  0.9676   71

  24   rms: 0.4523E-01   max: 0.4067E+00   T at   71  2
       a =  5.500      CL =  0.6228
      Cm =  0.0319     CD =  0.01207   =>   CDf =  0.00619    CDp =  0.00587

 Side 1  free  transition at x/c =  0.2975   48
 Side 2  free  transition at x/c =  0.9540   69
 idif Ue xi dudx           1  0.14317076      2.87091732E-03   49.869343    
 Uenew xinew           2  2.26500276E-02  4.54187393E-04

  25   rms: 0.1557E+00   max: -.1370E+01   T at   69  2   RLX: 0.365
       a =  5.500      CL =  0.5760
      Cm =  0.0413     CD =  0.01229   =>   CDf =  0.00640    CDp =  0.00588

 MRCHDU: Convergence failed at  73  side 2    Res =  0.2390E+01
 MRCHDU: Convergence failed at  74  side 2    Res =  0.1808E+01
 Side 1  free  transition at x/c =  0.3012   47
 Side 2  free  transition at x/c =  0.9736   72

  26   rms: 0.5710E-01   max: 0.6275E+00   T at   74  2
       a =  5.500      CL =  0.5861
      Cm =  0.0395     CD =  0.01139   =>   CDf =  0.00627    CDp =  0.00512

 Side 1  free  transition at x/c =  0.3003   47
 Side 2  free  transition at x/c =  0.9678   71

  27   rms: 0.4854E-01   max: 0.4634E+00   T at   71  2
       a =  5.500      CL =  0.6276
      Cm =  0.0309     CD =  0.01208   =>   CDf =  0.00620    CDp =  0.00589

 Side 1  free  transition at x/c =  0.2971   48
 Side 2  free  transition at x/c =  0.9526   69
 idif Ue xi dudx           1  0.14035010      2.82704830E-03   49.645458    
 Uenew xinew           2  2.03704443E-02  4.10318375E-04

  28   rms: 0.9175E-01   max: -.8005E+00   T at   69  2   RLX: 0.625
       a =  5.500      CL =  0.5795
      Cm =  0.0407     CD =  0.01215   =>   CDf =  0.00641    CDp =  0.00573

 Side 1  free  transition at x/c =  0.3010   47
 Side 2  free  transition at x/c =  0.9721   72

  29   rms: 0.3531E-01   max: 0.4082E+00   D at   72  2
       a =  5.500      CL =  0.5857
      Cm =  0.0396     CD =  0.01183   =>   CDf =  0.00627    CDp =  0.00556

 Side 1  free  transition at x/c =  0.3004   47
 Side 2  free  transition at x/c =  0.9674   71

  30   rms: 0.4374E-01   max: 0.3888E+00   T at   71  2
       a =  5.500      CL =  0.6216
      Cm =  0.0321     CD =  0.01206   =>   CDf =  0.00619    CDp =  0.00587

 Side 1  free  transition at x/c =  0.2976   48
 Side 2  free  transition at x/c =  0.9543   69
 idif Ue xi dudx           1  0.14387192      2.88200378E-03   49.920795    
 Uenew xinew           2  2.32268404E-02  4.65273857E-04

  31   rms: 0.2021E+00   max: -.1759E+01   T at   69  2   RLX: 0.284
       a =  5.500      CL =  0.5752
      Cm =  0.0415     CD =  0.01232   =>   CDf =  0.00640    CDp =  0.00592

 MRCHDU: Convergence failed at  73  side 2    Res =  0.1249E+01
 MRCHDU: Convergence failed at  74  side 2    Res =  0.1910E+01
 Side 1  free  transition at x/c =  0.3013   47
 Side 2  free  transition at x/c =  0.9740   72

  32   rms: 0.5843E-01   max: 0.6388E+00   T at   74  2
       a =  5.500      CL =  0.5855
      Cm =  0.0396     CD =  0.01136   =>   CDf =  0.00627    CDp =  0.00509

 Side 1  free  transition at x/c =  0.3004   47
 Side 2  free  transition at x/c =  0.9680   71

  33   rms: 0.5119E-01   max: 0.4912E+00   T at   71  2
       a =  5.500      CL =  0.6295
      Cm =  0.0305     CD =  0.01209   =>   CDf =  0.00619    CDp =  0.00589

 Side 1  free  transition at x/c =  0.2970   48
 Side 2  free  transition at x/c =  0.9520   69
 idif Ue xi dudx           1  0.13923831      2.81012058E-03   49.548874    
 Uenew xinew           2  1.94920637E-02  3.93390656E-04

  34   rms: 0.8229E-01   max: -.7069E+00   T at   69  2   RLX: 0.707
       a =  5.500      CL =  0.5809
      Cm =  0.0404     CD =  0.01209   =>   CDf =  0.00642    CDp =  0.00568

 Side 1  free  transition at x/c =  0.3010   47
 Side 2  free  transition at x/c =  0.9714   72

  35   rms: 0.3162E-01   max: 0.3681E+00   D at   72  2
       a =  5.500      CL =  0.5860
      Cm =  0.0395     CD =  0.01187   =>   CDf =  0.00627    CDp =  0.00560

 Side 1  free  transition at x/c =  0.3003   47
 Side 2  free  transition at x/c =  0.9673   71

  36   rms: 0.4226E-01   max: 0.3705E+00   T at   71  2
       a =  5.500      CL =  0.6204
      Cm =  0.0324     CD =  0.01206   =>   CDf =  0.00619    CDp =  0.00587

 Side 1  free  transition at x/c =  0.2977   48
 Side 2  free  transition at x/c =  0.9546   69
 idif Ue xi dudx           1  0.14410217      2.88450718E-03   49.957294    
 Uenew xinew           2  2.33688857E-02  4.67777252E-04

  37   rms: 0.2975E+00   max: -.2574E+01   T at    2  1   RLX: 0.194
       a =  5.500      CL =  0.5750
      Cm =  0.0415     CD =  0.01236   =>   CDf =  0.00640    CDp =  0.00596

 MRCHDU: Convergence failed at  73  side 2    Res =  0.1291E+01
 MRCHDU: Convergence failed at  74  side 2    Res =  0.1967E+01
 Side 1  free  transition at x/c =  0.3013   47
 Side 2  free  transition at x/c =  0.9740   72

  38   rms: 0.5846E-01   max: 0.6393E+00   T at   74  2
       a =  5.500      CL =  0.5854
      Cm =  0.0396     CD =  0.01136   =>   CDf =  0.00627    CDp =  0.00509

 Side 1  free  transition at x/c =  0.3004   47
 Side 2  free  transition at x/c =  0.9680   71

  39   rms: 0.5125E-01   max: 0.4918E+00   T at   71  2
       a =  5.500      CL =  0.6295
      Cm =  0.0305     CD =  0.01209   =>   CDf =  0.00619    CDp =  0.00589

 Side 1  free  transition at x/c =  0.2970   48
 Side 2  free  transition at x/c =  0.9520   69
 idif Ue xi dudx           1  0.13921179      2.80976295E-03   49.545742    
 Uenew xinew           2  1.94731131E-02  3.93033028E-04

  40   rms: 0.8211E-01   max: -.7051E+00   T at   69  2   RLX: 0.709
       a =  5.500      CL =  0.5810
      Cm =  0.0404     CD =  0.01209   =>   CDf =  0.00642    CDp =  0.00568

 Side 1  free  transition at x/c =  0.3010   47
 Side 2  free  transition at x/c =  0.9714   72

  41   rms: 0.3153E-01   max: 0.3670E+00   D at   72  2
       a =  5.500      CL =  0.5860
      Cm =  0.0395     CD =  0.01187   =>   CDf =  0.00627    CDp =  0.00560

 Side 1  free  transition at x/c =  0.3003   47
 Side 2  free  transition at x/c =  0.9673   71

  42   rms: 0.4222E-01   max: 0.3701E+00   T at   71  2
       a =  5.500      CL =  0.6203
      Cm =  0.0324     CD =  0.01206   =>   CDf =  0.00619    CDp =  0.00587

 Side 1  free  transition at x/c =  0.2977   48
 Side 2  free  transition at x/c =  0.9547   69
 idif Ue xi dudx           1  0.14400369      2.88271904E-03   49.954121    
 Uenew xinew           2  2.32780762E-02  4.65989113E-04

  43   rms: 0.3011E+00   max: -.2612E+01   T at    2  1   RLX: 0.191
       a =  5.500      CL =  0.5752
      Cm =  0.0414     CD =  0.01236   =>   CDf =  0.00640    CDp =  0.00596

 MRCHDU: Convergence failed at  73  side 2    Res =  0.2093E+01
 MRCHDU: Convergence failed at  74  side 2    Res =  0.1984E+01
 Side 1  free  transition at x/c =  0.3012   47
 Side 2  free  transition at x/c =  0.9740   72

  44   rms: 0.5818E-01   max: 0.6370E+00   T at   74  2
       a =  5.500      CL =  0.5856
      Cm =  0.0396     CD =  0.01136   =>   CDf =  0.00627    CDp =  0.00510

 Side 1  free  transition at x/c =  0.3004   47
 Side 2  free  transition at x/c =  0.9680   71

  45   rms: 0.5066E-01   max: 0.4856E+00   T at   71  2
       a =  5.500      CL =  0.6291
      Cm =  0.0306     CD =  0.01209   =>   CDf =  0.00619    CDp =  0.00589

 Side 1  free  transition at x/c =  0.2970   48
 Side 2  free  transition at x/c =  0.9521   69
 idif Ue xi dudx           1  0.13946693      2.81369686E-03   49.567146    
 Uenew xinew           2  1.96765177E-02  3.96966934E-04

  46   rms: 0.8385E-01   max: -.7226E+00   T at   69  2   RLX: 0.692
       a =  5.500      CL =  0.5806
      Cm =  0.0405     CD =  0.01210   =>   CDf =  0.00641    CDp =  0.00569

 Side 1  free  transition at x/c =  0.3010   47
 Side 2  free  transition at x/c =  0.9716   72

  47   rms: 0.3239E-01   max: 0.3766E+00   D at   72  2
       a =  5.500      CL =  0.5859
      Cm =  0.0396     CD =  0.01186   =>   CDf =  0.00627    CDp =  0.00559

 Side 1  free  transition at x/c =  0.3004   47
 Side 2  free  transition at x/c =  0.9673   71

  48   rms: 0.4255E-01   max: 0.3742E+00   T at   71  2
       a =  5.500      CL =  0.6206
      Cm =  0.0323     CD =  0.01206   =>   CDf =  0.00619    CDp =  0.00587

 Side 1  free  transition at x/c =  0.2977   48
 Side 2  free  transition at x/c =  0.9546   69
 idif Ue xi dudx           1  0.14443132      2.89094448E-03   49.959908    
 Uenew xinew           2  2.36917157E-02  4.74214554E-04

  49   rms: 0.2716E+00   max: -.2328E+01   T at   69  2   RLX: 0.215
       a =  5.500      CL =  0.5745
      Cm =  0.0416     CD =  0.01235   =>   CDf =  0.00640    CDp =  0.00595

 MRCHDU: Convergence failed at  73  side 2    Res =  0.1317E+01
 MRCHDU: Convergence failed at  74  side 2    Res =  0.1996E+01
 Side 1  free  transition at x/c =  0.3013   47
 Side 2  free  transition at x/c =  0.9743   72

  50   rms: 0.5948E-01   max: 0.6478E+00   T at   74  2
       a =  5.500      CL =  0.5849
      Cm =  0.0398     CD =  0.01134   =>   CDf =  0.00626    CDp =  0.00507

 Side 1  free  transition at x/c =  0.3004   47
 Side 2  free  transition at x/c =  0.9682   71

  51   rms: 0.5353E-01   max: 0.5154E+00   T at   71  2
       a =  5.500      CL =  0.6311
      Cm =  0.0301     CD =  0.01209   =>   CDf =  0.00619    CDp =  0.00590

 Side 1  free  transition at x/c =  0.2968   48
 Side 2  free  transition at x/c =  0.9515   69
 idif Ue xi dudx           1  0.13823466      2.79462337E-03   49.464504    
 Uenew xinew           2  1.86923128E-02  3.77893448E-04

  52   rms: 0.7686E-01   max: -.6501E+00   T at   69  2   RLX: 0.769
       a =  5.500      CL =  0.5822
      Cm =  0.0402     CD =  0.01205   =>   CDf =  0.00642    CDp =  0.00563

 Side 1  free  transition at x/c =  0.3009   47
 Side 2  free  transition at x/c =  0.9708   72

  53   rms: 0.2821E-01   max: 0.3283E+00   D at   72  2
       a =  5.500      CL =  0.5862
      Cm =  0.0395     CD =  0.01190   =>   CDf =  0.00627    CDp =  0.00563

 Side 1  free  transition at x/c =  0.3003   47
 Side 2  free  transition at x/c =  0.9671   71

  54   rms: 0.4096E-01   max: 0.3542E+00   T at   71  2
       a =  5.500      CL =  0.6193
      Cm =  0.0326     CD =  0.01206   =>   CDf =  0.00619    CDp =  0.00586

 Side 1  free  transition at x/c =  0.2978   48
 Side 2  free  transition at x/c =  0.9550   69
 idif Ue xi dudx           1  0.14075436      2.82180309E-03   49.881001    
 Uenew xinew           2  2.02054549E-02  4.05073166E-04

  55   rms: 0.5188E+00   max: -.4956E+01   D at    2  1   RLX: 0.101
       a =  5.500      CL =  0.5798
      Cm =  0.0405     CD =  0.01242   =>   CDf =  0.00640    CDp =  0.00602

 Side 1  free  transition at x/c =  0.3009   47
 Side 2  free  transition at x/c =  0.9714   72

  56   rms: 0.3042E-01   max: 0.3522E+00   D at   72  2
       a =  5.500      CL =  0.5859
      Cm =  0.0396     CD =  0.01187   =>   CDf =  0.00627    CDp =  0.00560

 Side 1  free  transition at x/c =  0.3004   47
 Side 2  free  transition at x/c =  0.9673   71

  57   rms: 0.4233E-01   max: 0.3711E+00   T at   71  2
       a =  5.500      CL =  0.6204
      Cm =  0.0324     CD =  0.01206   =>   CDf =  0.00619    CDp =  0.00587

 Side 1  free  transition at x/c =  0.2977   48
 Side 2  free  transition at x/c =  0.9546   69
 idif Ue xi dudx           1  0.14421944      2.88677216E-03   49.958721    
 Uenew xinew           2  2.34827083E-02  4.70042229E-04

  58   rms: 0.2929E+00   max: -.2525E+01   D at    2  1   RLX: 0.198
       a =  5.500      CL =  0.5749
      Cm =  0.0415     CD =  0.01236   =>   CDf =  0.00640    CDp =  0.00596

 MRCHDU: Convergence failed at  73  side 2    Res =  0.1301E+01
 MRCHDU: Convergence failed at  74  side 2    Res =  0.1979E+01
 Side 1  free  transition at x/c =  0.3013   47
 Side 2  free  transition at x/c =  0.9741   72

  59   rms: 0.5879E-01   max: 0.6421E+00   T at   74  2
       a =  5.500      CL =  0.5853
      Cm =  0.0397     CD =  0.01135   =>   CDf =  0.00627    CDp =  0.00509

 Side 1  free  transition at x/c =  0.3004   47
 Side 2  free  transition at x/c =  0.9681   71

  60   rms: 0.5197E-01   max: 0.4993E+00   T at   71  2
       a =  5.500      CL =  0.6300
      Cm =  0.0304     CD =  0.01209   =>   CDf =  0.00619    CDp =  0.00589

 Side 1  free  transition at x/c =  0.2969   48
 Side 2  free  transition at x/c =  0.9518   69
 idif Ue xi dudx           1  0.13890593      2.80499458E-03   49.520924    
 Uenew xinew           2  1.92272235E-02  3.88264656E-04

  61   rms: 0.8023E-01   max: -.6857E+00   T at   69  2   RLX: 0.729
       a =  5.500      CL =  0.5814
      Cm =  0.0403     CD =  0.01208   =>   CDf =  0.00642    CDp =  0.00566

 Side 1  free  transition at x/c =  0.3010   47
 Side 2  free  transition at x/c =  0.9712   72

  62   rms: 0.3050E-01   max: 0.3552E+00   D at   72  2
       a =  5.500      CL =  0.5860
      Cm =  0.0395     CD =  0.01188   =>   CDf =  0.00627    CDp =  0.00561

 Side 1  free  transition at x/c =  0.3003   47
 Side 2  free  transition at x/c =  0.9672   71

  63   rms: 0.4182E-01   max: 0.3651E+00   T at   71  2
       a =  5.500      CL =  0.6200
      Cm =  0.0324     CD =  0.01206   =>   CDf =  0.00619    CDp =  0.00587

 Side 1  free  transition at x/c =  0.2977   48
 Side 2  free  transition at x/c =  0.9547   69
 idif Ue xi dudx           1  0.14298598      2.86340714E-03   49.935612    
 Uenew xinew           2  2.23050993E-02  4.46677208E-04

  64   rms: 0.3474E+00   max: -.3105E+01   D at    2  1   RLX: 0.161
       a =  5.500      CL =  0.5766
      Cm =  0.0411     CD =  0.01238   =>   CDf =  0.00640    CDp =  0.00598

 MRCHDU: Convergence failed at  73  side 2    Res =  0.2841E+01
 MRCHDU: Convergence failed at  74  side 2    Res =  0.1891E+01
 Side 1  free  transition at x/c =  0.3011   47
 Side 2  free  transition at x/c =  0.9731   72

  65   rms: 0.5529E-01   max: 0.6126E+00   T at   74  2
       a =  5.500      CL =  0.5869
      Cm =  0.0393     CD =  0.01143   =>   CDf =  0.00627    CDp =  0.00516

 Side 1  free  transition at x/c =  0.3003   47
 Side 2  free  transition at x/c =  0.9675   71

  66   rms: 0.4530E-01   max: 0.4291E+00   T at   71  2
       a =  5.500      CL =  0.6253
      Cm =  0.0314     CD =  0.01208   =>   CDf =  0.00620    CDp =  0.00588

 Side 1  free  transition at x/c =  0.2973   48
 Side 2  free  transition at x/c =  0.9532   69
 idif Ue xi dudx           1  0.14170378      2.84790993E-03   49.757114    
 Uenew xinew           2  2.14542728E-02  4.31180000E-04

  67   rms: 0.1118E+00   max: -.9866E+00   T at   69  2   RLX: 0.507
       a =  5.500      CL =  0.5778
      Cm =  0.0410     CD =  0.01221   =>   CDf =  0.00641    CDp =  0.00580

 Side 1  free  transition at x/c =  0.3011   47
 Side 2  free  transition at x/c =  0.9729   72

  68   rms: 0.3961E-01   max: 0.4513E+00   D at   72  2
       a =  5.500      CL =  0.5853
      Cm =  0.0397     CD =  0.01179   =>   CDf =  0.00627    CDp =  0.00552

 Side 1  free  transition at x/c =  0.3004   47
 Side 2  free  transition at x/c =  0.9676   71

  69   rms: 0.4575E-01   max: 0.4128E+00   T at   71  2
       a =  5.500      CL =  0.6232
      Cm =  0.0318     CD =  0.01207   =>   CDf =  0.00619    CDp =  0.00587

 Side 1  free  transition at x/c =  0.2975   48
 Side 2  free  transition at x/c =  0.9538   69
 idif Ue xi dudx           1  0.14293681      2.86722183E-03   49.852024    
 Uenew xinew           2  2.24579331E-02  4.50491905E-04

  70   rms: 0.1450E+00   max: -.1278E+01   T at   69  2   RLX: 0.391
       a =  5.500      CL =  0.5763
      Cm =  0.0413     CD =  0.01227   =>   CDf =  0.00640    CDp =  0.00587

 MRCHDU: Convergence failed at  73  side 2    Res =  0.2623E+01
 MRCHDU: Convergence failed at  74  side 2    Res =  0.1774E+01
 Side 1  free  transition at x/c =  0.3012   47
 Side 2  free  transition at x/c =  0.9735   72

  71   rms: 0.5664E-01   max: 0.6236E+00   T at   74  2
       a =  5.500      CL =  0.5863
      Cm =  0.0395     CD =  0.01140   =>   CDf =  0.00627    CDp =  0.00513

 Side 1  free  transition at x/c =  0.3003   47
 Side 2  free  transition at x/c =  0.9677   71

  72   rms: 0.4772E-01   max: 0.4548E+00   T at   71  2
       a =  5.500      CL =  0.6270
      Cm =  0.0310     CD =  0.01208   =>   CDf =  0.00620    CDp =  0.00589

 Side 1  free  transition at x/c =  0.2972   48
 Side 2  free  transition at x/c =  0.9527   69
 idif Ue xi dudx           1  0.14069410      2.83229351E-03   49.674969    
 Uenew xinew           2  2.06431076E-02  4.15563583E-04

  73   rms: 0.9575E-01   max: -.8387E+00   T at   69  2   RLX: 0.596
       a =  5.500      CL =  0.5791
      Cm =  0.0407     CD =  0.01216   =>   CDf =  0.00641    CDp =  0.00575

 Side 1  free  transition at x/c =  0.3011   47
 Side 2  free  transition at x/c =  0.9723   72

  74   rms: 0.3642E-01   max: 0.4198E+00   D at   72  2
       a =  5.500      CL =  0.5856
      Cm =  0.0396     CD =  0.01182   =>   CDf =  0.00627    CDp =  0.00555

 Side 1  free  transition at x/c =  0.3004   47
 Side 2  free  transition at x/c =  0.9675   71

  75   rms: 0.4422E-01   max: 0.3946E+00   T at   71  2
       a =  5.500      CL =  0.6220
      Cm =  0.0320     CD =  0.01206   =>   CDf =  0.00619    CDp =  0.00587

 Side 1  free  transition at x/c =  0.2976   48
 Side 2  free  transition at x/c =  0.9542   69
 idif Ue xi dudx           1  0.14365037      2.87854671E-03   49.903782    
 Uenew xinew           2  2.30464041E-02  4.61816788E-04

  76   rms: 0.1840E+00   max: -.1608E+01   T at   69  2   RLX: 0.311
       a =  5.500      CL =  0.5755
      Cm =  0.0414     CD =  0.01231   =>   CDf =  0.00640    CDp =  0.00591

 MRCHDU: Convergence failed at  73  side 2    Res =  0.1223E+01
 MRCHDU: Convergence failed at  74  side 2    Res =  0.1876E+01
 Side 1  free  transition at x/c =  0.3012   47
 Side 2  free  transition at x/c =  0.9739   72

  77   rms: 0.5801E-01   max: 0.6352E+00   T at   74  2
       a =  5.500      CL =  0.5857
      Cm =  0.0396     CD =  0.01137   =>   CDf =  0.00627    CDp =  0.00510

 Side 1  free  transition at x/c =  0.3004   47
 Side 2  free  transition at x/c =  0.9679   71

  78   rms: 0.5032E-01   max: 0.4821E+00   T at   71  2
       a =  5.500      CL =  0.6288
      Cm =  0.0306     CD =  0.01209   =>   CDf =  0.00619    CDp =  0.00589

 Side 1  free  transition at x/c =  0.2970   48
 Side 2  free  transition at x/c =  0.9522   69
 idif Ue xi dudx           1  0.13959852      2.81560421E-03   49.580307    
 Uenew xinew           2  1.97763089E-02  3.98874283E-04

  79   rms: 0.8492E-01   max: -.7336E+00   T at   69  2   RLX: 0.682
       a =  5.500      CL =  0.5805
      Cm =  0.0405     CD =  0.01211   =>   CDf =  0.00641    CDp =  0.00570

 Side 1  free  transition at x/c =  0.3010   47
 Side 2  free  transition at x/c =  0.9716   72

  80   rms: 0.3283E-01   max: 0.3815E+00   D at   72  2
       a =  5.500      CL =  0.5859
      Cm =  0.0396     CD =  0.01185   =>   CDf =  0.00627    CDp =  0.00558

 Side 1  free  transition at x/c =  0.3004   47
 Side 2  free  transition at x/c =  0.9673   71

  81   rms: 0.4272E-01   max: 0.3764E+00   T at   71  2
       a =  5.500      CL =  0.6208
      Cm =  0.0323     CD =  0.01206   =>   CDf =  0.00619    CDp =  0.00587

 Side 1  free  transition at x/c =  0.2976   48
 Side 2  free  transition at x/c =  0.9545   69
 idif Ue xi dudx           1  0.14434816      2.88963318E-03   49.953800    
 Uenew xinew           2  2.36233138E-02  4.72903252E-04

  82   rms: 0.2583E+00   max: -.2221E+01   T at   69  2   RLX: 0.225
       a =  5.500      CL =  0.5746
      Cm =  0.0416     CD =  0.01235   =>   CDf =  0.00640    CDp =  0.00595

 MRCHDU: Convergence failed at  73  side 2    Res =  0.1307E+01
 MRCHDU: Convergence failed at  74  side 2    Res =  0.1983E+01
 Side 1  free  transition at x/c =  0.3013   47
 Side 2  free  transition at x/c =  0.9743   72

  83   rms: 0.5933E-01   max: 0.6465E+00   T at   74  2
       a =  5.500      CL =  0.5850
      Cm =  0.0397     CD =  0.01134   =>   CDf =  0.00626    CDp =  0.00508

 Side 1  free  transition at x/c =  0.3004   47
 Side 2  free  transition at x/c =  0.9682   71

  84   rms: 0.5317E-01   max: 0.5117E+00   T at   71  2
       a =  5.500      CL =  0.6309
      Cm =  0.0302     CD =  0.01209   =>   CDf =  0.00619    CDp =  0.00590

 Side 1  free  transition at x/c =  0.2969   48
 Side 2  free  transition at x/c =  0.9516   69
 idif Ue xi dudx           1  0.13838992      2.79700756E-03   49.477848    
 Uenew xinew           2  1.88153181E-02  3.80277634E-04

  85   rms: 0.7756E-01   max: -.6576E+00   T at   69  2   RLX: 0.760
       a =  5.500      CL =  0.5820
      Cm =  0.0402     CD =  0.01206   =>   CDf =  0.00642    CDp =  0.00564

 Side 1  free  transition at x/c =  0.3009   47
 Side 2  free  transition at x/c =  0.9709   72

  86   rms: 0.2874E-01   max: 0.3347E+00   D at   72  2
       a =  5.500      CL =  0.5861
      Cm =  0.0395     CD =  0.01190   =>   CDf =  0.00627    CDp =  0.00563

 Side 1  free  transition at x/c =  0.3003   47
 Side 2  free  transition at x/c =  0.9671   71

  87   rms: 0.4115E-01   max: 0.3566E+00   T at   71  2
       a =  5.500      CL =  0.6195
      Cm =  0.0326     CD =  0.01206   =>   CDf =  0.00619    CDp =  0.00586

 Side 1  free  transition at x/c =  0.2977   48
 Side 2  free  transition at x/c =  0.9549   69
 idif Ue xi dudx           1  0.14123115      2.83074379E-03   49.891888    
 Uenew xinew           2  2.06559338E-02  4.14013863E-04

  88   rms: 0.4664E+00   max: -.4392E+01   D at    2  1   RLX: 0.114
       a =  5.500      CL =  0.5791
      Cm =  0.0406     CD =  0.01241   =>   CDf =  0.00640    CDp =  0.00601

 Side 1  free  transition at x/c =  0.3009   47
 Side 2  free  transition at x/c =  0.9717   72

  89   rms: 0.3257E-01   max: 0.3755E+00   D at   72  2
       a =  5.500      CL =  0.5857
      Cm =  0.0396     CD =  0.01185   =>   CDf =  0.00627    CDp =  0.00558

 Side 1  free  transition at x/c =  0.3004   47
 Side 2  free  transition at x/c =  0.9674   71

  90   rms: 0.4312E-01   max: 0.3810E+00   T at   71  2
       a =  5.500      CL =  0.6211
      Cm =  0.0322     CD =  0.01206   =>   CDf =  0.00619    CDp =  0.00587

 Side 1  free  transition at x/c =  0.2976   48
 Side 2  free  transition at x/c =  0.9544   69
 idif Ue xi dudx           1  0.14417014      2.88677216E-03   49.941639    
 Uenew xinew           2  2.34746784E-02  4.70042229E-04

  91   rms: 0.2336E+00   max: -.2019E+01   T at   69  2   RLX: 0.248
       a =  5.500      CL =  0.5748
      Cm =  0.0415     CD =  0.01234   =>   CDf =  0.00640    CDp =  0.00594

 MRCHDU: Convergence failed at  73  side 2    Res =  0.1286E+01
 MRCHDU: Convergence failed at  74  side 2    Res =  0.1955E+01
 Side 1  free  transition at x/c =  0.3013   47
 Side 2  free  transition at x/c =  0.9742   72

  92   rms: 0.5899E-01   max: 0.6436E+00   T at   74  2
       a =  5.500      CL =  0.5852
      Cm =  0.0397     CD =  0.01135   =>   CDf =  0.00626    CDp =  0.00508

 Side 1  free  transition at x/c =  0.3004   47
 Side 2  free  transition at x/c =  0.9681   71

  93   rms: 0.5241E-01   max: 0.5038E+00   T at   71  2
       a =  5.500      CL =  0.6303
      Cm =  0.0303     CD =  0.01209   =>   CDf =  0.00619    CDp =  0.00589

 Side 1  free  transition at x/c =  0.2969   48
 Side 2  free  transition at x/c =  0.9517   69
 idif Ue xi dudx           1  0.13871951      2.80213356E-03   49.504963    
 Uenew xinew           2  1.90793928E-02  3.85403633E-04

  94   rms: 0.7920E-01   max: -.6749E+00   T at   69  2   RLX: 0.741
       a =  5.500      CL =  0.5816
      Cm =  0.0403     CD =  0.01207   =>   CDf =  0.00642    CDp =  0.00565

 Side 1  free  transition at x/c =  0.3010   47
 Side 2  free  transition at x/c =  0.9711   72

  95   rms: 0.2987E-01   max: 0.3479E+00   D at   72  2
       a =  5.500      CL =  0.5861
      Cm =  0.0395     CD =  0.01188   =>   CDf =  0.00627    CDp =  0.00561

 Side 1  free  transition at x/c =  0.3003   47
 Side 2  free  transition at x/c =  0.9672   71

  96   rms: 0.4157E-01   max: 0.3619E+00   T at   71  2
       a =  5.500      CL =  0.6198
      Cm =  0.0325     CD =  0.01206   =>   CDf =  0.00619    CDp =  0.00586

 Side 1  free  transition at x/c =  0.2977   48
 Side 2  free  transition at x/c =  0.9548   69
 idif Ue xi dudx           1  0.14232937      2.85112858E-03   49.920361    
 Uenew xinew           2  2.16853376E-02  4.34398651E-04

  97   rms: 0.3844E+00   max: -.3503E+01   D at    2  1   RLX: 0.143
       a =  5.500      CL =  0.5776
      Cm =  0.0409     CD =  0.01239   =>   CDf =  0.00640    CDp =  0.00600

 Side 1  free  transition at x/c =  0.3011   47
 Side 2  free  transition at x/c =  0.9726   72

  98   rms: 0.3755E-01   max: 0.4266E+00   D at   72  2
       a =  5.500      CL =  0.5853
      Cm =  0.0397     CD =  0.01180   =>   CDf =  0.00627    CDp =  0.00553

 Side 1  free  transition at x/c =  0.3004   47
 Side 2  free  transition at x/c =  0.9676   71

  99   rms: 0.4520E-01   max: 0.4062E+00   T at   71  2
       a =  5.500      CL =  0.6227
      Cm =  0.0319     CD =  0.01207   =>   CDf =  0.00619    CDp =  0.00587

 Side 1  free  transition at x/c =  0.2975   48
 Side 2  free  transition at x/c =  0.9540   69
 idif Ue xi dudx           1  0.14319231      2.87127495E-03   49.870636    
 Uenew xinew           2  2.26684492E-02  4.54545021E-04

 100   rms: 0.1566E+00   max: -.1377E+01   T at   69  2   RLX: 0.363
       a =  5.500      CL =  0.5760
      Cm =  0.0413     CD =  0.01229   =>   CDf =  0.00640    CDp =  0.00588

 MRCHDU: Convergence failed at  73  side 2    Res =  0.2377E+01
 MRCHDU: Convergence failed at  74  side 2    Res =  0.1810E+01
 Side 1  free  transition at x/c =  0.3012   47
 Side 2  free  transition at x/c =  0.9736   72

 101   rms: 0.5713E-01   max: 0.6278E+00   T at   74  2
       a =  5.500      CL =  0.5861
      Cm =  0.0395     CD =  0.01139   =>   CDf =  0.00627    CDp =  0.00512

 Side 1  free  transition at x/c =  0.3003   47
 Side 2  free  transition at x/c =  0.9678   71

 102   rms: 0.4861E-01   max: 0.4641E+00   T at   71  2
       a =  5.500      CL =  0.6276
      Cm =  0.0309     CD =  0.01208   =>   CDf =  0.00620    CDp =  0.00589

 Side 1  free  transition at x/c =  0.2971   48
 Side 2  free  transition at x/c =  0.9525   69
 idif Ue xi dudx           1  0.14032249      2.82669067E-03   49.641968    
 Uenew xinew           2  2.03512590E-02  4.09960747E-04

 103   rms: 0.9145E-01   max: -.7976E+00   T at   69  2   RLX: 0.627
       a =  5.500      CL =  0.5796
      Cm =  0.0407     CD =  0.01214   =>   CDf =  0.00641    CDp =  0.00573

 MRCHDU: Convergence failed at  47  side 1    Res =  0.8027E-05
 Side 1  free  transition at x/c =  0.3010   47
 Side 2  free  transition at x/c =  0.9721   72

 104   rms: 0.3522E-01   max: 0.4073E+00   D at   72  2
       a =  5.500      CL =  0.5857
      Cm =  0.0396     CD =  0.01183   =>   CDf =  0.00627    CDp =  0.00556

 Side 1  free  transition at x/c =  0.3004   47
 Side 2  free  transition at x/c =  0.9674   71

 105   rms: 0.4370E-01   max: 0.3884E+00   T at   71  2
       a =  5.500      CL =  0.6215
      Cm =  0.0321     CD =  0.01206   =>   CDf =  0.00619    CDp =  0.00587

 Side 1  free  transition at x/c =  0.2976   48
 Side 2  free  transition at x/c =  0.9543   69
 idif Ue xi dudx           1  0.14389037      2.88236141E-03   49.921001    
 Uenew xinew           2  2.32447907E-02  4.65631485E-04

 106   rms: 0.2038E+00   max: -.1774E+01   T at   69  2   RLX: 0.282
       a =  5.500      CL =  0.5752
      Cm =  0.0415     CD =  0.01232   =>   CDf =  0.00640    CDp =  0.00592

 MRCHDU: Convergence failed at  73  side 2    Res =  0.1252E+01
 MRCHDU: Convergence failed at  74  side 2    Res =  0.1912E+01
 Side 1  free  transition at x/c =  0.3013   47
 Side 2  free  transition at x/c =  0.9740   72

 107   rms: 0.5846E-01   max: 0.6391E+00   T at   74  2
       a =  5.500      CL =  0.5854
      Cm =  0.0396     CD =  0.01136   =>   CDf =  0.00627    CDp =  0.00509

 Side 1  free  transition at x/c =  0.3004   47
 Side 2  free  transition at x/c =  0.9680   71

 108   rms: 0.5127E-01   max: 0.4920E+00   T at   71  2
       a =  5.500      CL =  0.6295
      Cm =  0.0305     CD =  0.01209   =>   CDf =  0.00619    CDp =  0.00589

 Side 1  free  transition at x/c =  0.2970   48
 Side 2  free  transition at x/c =  0.9520   69
 idif Ue xi dudx           1  0.13920544      2.80964375E-03   49.545586    
 Uenew xinew           2  1.94671452E-02  3.92913818E-04

 109   rms: 0.8207E-01   max: -.7047E+00   T at   69  2   RLX: 0.710
       a =  5.500      CL =  0.5810
      Cm =  0.0404     CD =  0.01209   =>   CDf =  0.00642    CDp =  0.00568

 Side 1  free  transition at x/c =  0.3010   47
 Side 2  free  transition at x/c =  0.9714   72

 110   rms: 0.3151E-01   max: 0.3668E+00   D at   72  2
       a =  5.500      CL =  0.5860
      Cm =  0.0395     CD =  0.01187   =>   CDf =  0.00627    CDp =  0.00560

 Side 1  free  transition at x/c =  0.3003   47
 Side 2  free  transition at x/c =  0.9673   71

 111   rms: 0.4221E-01   max: 0.3700E+00   T at   71  2
       a =  5.500      CL =  0.6203
      Cm =  0.0324     CD =  0.01206   =>   CDf =  0.00619    CDp =  0.00587

 Side 1  free  transition at x/c =  0.2977   48
 Side 2  free  transition at x/c =  0.9547   69
 idif Ue xi dudx           1  0.14398582      2.88236141E-03   49.954117    
 Uenew xinew           2  2.32602097E-02  4.65631485E-04

 112   rms: 0.3021E+00   max: -.2622E+01   T at    2  1   RLX: 0.191
       a =  5.500      CL =  0.5752
      Cm =  0.0414     CD =  0.01236   =>   CDf =  0.00640    CDp =  0.00596

 MRCHDU: Convergence failed at  73  side 2    Res =  0.2100E+01
 MRCHDU: Convergence failed at  74  side 2    Res =  0.1983E+01
 Side 1  free  transition at x/c =  0.3012   47
 Side 2  free  transition at x/c =  0.9739   72

 113   rms: 0.5812E-01   max: 0.6365E+00   T at   74  2
       a =  5.500      CL =  0.5856
      Cm =  0.0396     CD =  0.01136   =>   CDf =  0.00627    CDp =  0.00510

 Side 1  free  transition at x/c =  0.3004   47
 Side 2  free  transition at x/c =  0.9680   71

 114   rms: 0.5054E-01   max: 0.4844E+00   T at   71  2
       a =  5.500      CL =  0.6290
      Cm =  0.0306     CD =  0.01209   =>   CDf =  0.00619    CDp =  0.00589

 Side 1  free  transition at x/c =  0.2970   48
 Side 2  free  transition at x/c =  0.9521   69
 idif Ue xi dudx           1  0.13950227      2.81417370E-03   49.571308    
 Uenew xinew           2  1.97018068E-02  3.97443771E-04

 115   rms: 0.8419E-01   max: -.7263E+00   T at   69  2   RLX: 0.688
       a =  5.500      CL =  0.5806
      Cm =  0.0405     CD =  0.01211   =>   CDf =  0.00641    CDp =  0.00569

[...]
      Cm =  0.0410     CD =  0.02129   =>   CDf =  0.00579    CDp =  0.01550

 Side 1  free  transition at x/c =  0.1571   47
 Side 2 forced transition at x/c =  1.0000   64

   4   rms: 0.5880E-05   max: -.3148E-04   D at   70  2
       a = 12.500      CL =  1.2476
      Cm =  0.0410     CD =  0.02129   =>   CDf =  0.00579    CDp =  0.01550
 plradd ia,ip,cpol           39           0  9.14662611E-03

 Point added to stored polar  1
 Point written to save file  mh92_Re400k.base.pol                            
 Dump file unspecified or not available
 Calculating wake trajectory ...
 Calculating source influence matrix ...

 Solving BL system ...

 Side 1  free  transition at x/c =  0.1571   47
 Side 2 forced transition at x/c =  1.0000   64

   1   rms: 0.3364E-01   max: 0.1225E+00   T at   47  1
       a = 12.750      CL =  1.2613
      Cm =  0.0419     CD =  0.02197   =>   CDf =  0.00579    CDp =  0.01618

 Side 1  free  transition at x/c =  0.1524   47
 Side 2 forced transition at x/c =  1.0000   64

   2   rms: 0.3288E-02   max: -.3078E-01   D at   47  1
       a = 12.750      CL =  1.2594
      Cm =  0.0420     CD =  0.02205   =>   CDf =  0.00571    CDp =  0.01634

 Side 1  free  transition at x/c =  0.1528   47
 Side 2 forced transition at x/c =  1.0000   64

   3   rms: 0.1557E-03   max: -.7852E-03   D at   87  1
       a = 12.750      CL =  1.2595
      Cm =  0.0420     CD =  0.02205   =>   CDf =  0.00570    CDp =  0.01635

 Side 1  free  transition at x/c =  0.1528   47
 Side 2 forced transition at x/c =  1.0000   64

   4   rms: 0.1195E-05   max: -.9034E-05   C at   64  2
       a = 12.750      CL =  1.2595
      Cm =  0.0420     CD =  0.02205   =>   CDf =  0.00570    CDp =  0.01635
 plradd ia,ip,cpol           40           0  9.14662611E-03

 Point added to stored polar  1
 Point written to save file  mh92_Re400k.base.pol                            
 Dump file unspecified or not available
 Calculating wake trajectory ...
 Calculating source influence matrix ...

 Solving BL system ...

 Side 1  free  transition at x/c =  0.1528   47
 Side 2 forced transition at x/c =  1.0000   64

   1   rms: 0.3491E-01   max: 0.1164E+00   T at   47  1
       a = 13.000      CL =  1.2701
      Cm =  0.0430     CD =  0.02299   =>   CDf =  0.00570    CDp =  0.01728

 Side 1  free  transition at x/c =  0.1482   47
 Side 2 forced transition at x/c =  1.0000   64

   2   rms: 0.4223E-02   max: 0.2548E-01   D at   84  1
       a = 13.000      CL =  1.2673
      Cm =  0.0431     CD =  0.02312   =>   CDf =  0.00571    CDp =  0.01741

 Side 1  free  transition at x/c =  0.1486   47
 Side 2 forced transition at x/c =  1.0000   64

   3   rms: 0.1836E-03   max: -.1184E-02   D at   85  1
       a = 13.000      CL =  1.2673
      Cm =  0.0431     CD =  0.02311   =>   CDf =  0.00569    CDp =  0.01742

 Side 1  free  transition at x/c =  0.1486   47
 Side 2 forced transition at x/c =  1.0000   64

   4   rms: 0.2004E-05   max: -.1504E-04   C at   64  2
       a = 13.000      CL =  1.2673
      Cm =  0.0431     CD =  0.02311   =>   CDf =  0.00569    CDp =  0.01742
 plradd ia,ip,cpol           41           0  9.14662611E-03

 Point added to stored polar  1
 Point written to save file  mh92_Re400k.base.pol                            
 Dump file unspecified or not available
 Calculating wake trajectory ...
 Calculating source influence matrix ...

 Solving BL system ...

 Side 1  free  transition at x/c =  0.1486   47
 Side 2 forced transition at x/c =  1.0000   64

   1   rms: 0.3758E-01   max: -.1467E+00   D at   47  1
       a = 13.250      CL =  1.2741
      Cm =  0.0441     CD =  0.02440   =>   CDf =  0.00569    CDp =  0.01871

 Side 1  free  transition at x/c =  0.1450   46
 Side 2 forced transition at x/c =  1.0000   64

   2   rms: 0.3615E-02   max: -.3721E-01   C at   46  1
       a = 13.250      CL =  1.2737
      Cm =  0.0441     CD =  0.02436   =>   CDf =  0.00569    CDp =  0.01867

 Side 1  free  transition at x/c =  0.1445   46
 Side 2 forced transition at x/c =  1.0000   64

   3   rms: 0.2846E-03   max: -.1607E-02   D at   83  1
       a = 13.250      CL =  1.2739
      Cm =  0.0441     CD =  0.02436   =>   CDf =  0.00568    CDp =  0.01868

 Side 1  free  transition at x/c =  0.1445   46
 Side 2 forced transition at x/c =  1.0000   64

   4   rms: 0.4093E-05   max: -.2196E-04   D at   71  2
       a = 13.250      CL =  1.2739
      Cm =  0.0441     CD =  0.02436   =>   CDf =  0.00568    CDp =  0.01868
 plradd ia,ip,cpol           42           0  7.30943400E-03

 Point added to stored polar  1
 Point written to save file  mh92_Re400k.base.pol                            
 Dump file unspecified or not available
 Calculating wake trajectory ...
 Calculating source influence matrix ...

 Solving BL system ...

 Side 1  free  transition at x/c =  0.1445   46
 Side 2 forced transition at x/c =  1.0000   64

   1   rms: 0.3427E-01   max: -.1407E+00   C at   46  1
       a = 13.500      CL =  1.2869
      Cm =  0.0446     CD =  0.02534   =>   CDf =  0.00539    CDp =  0.01995

 Side 1  free  transition at x/c =  0.1400   47
 Side 2 forced transition at x/c =  1.0000   63

   2   rms: 0.4534E-02   max: -.5137E-01   D at    2  1
       a = 13.500      CL =  1.2844
      Cm =  0.0447     CD =  0.02543   =>   CDf =  0.00557    CDp =  0.01986

 Side 1  free  transition at x/c =  0.1403   47
 Side 2 forced transition at x/c =  1.0000   63

   3   rms: 0.8438E-03   max: -.1097E-01   D at    4  1
       a = 13.500      CL =  1.2845
      Cm =  0.0447     CD =  0.02542   =>   CDf =  0.00556    CDp =  0.01986

 Side 1  free  transition at x/c =  0.1403   47
 Side 2 forced transition at x/c =  1.0000   63

   4   rms: 0.2250E-05   max: 0.1598E-04   D at    8  1
       a = 13.500      CL =  1.2845
      Cm =  0.0447     CD =  0.02542   =>   CDf =  0.00556    CDp =  0.01986
 plradd ia,ip,cpol           43           0  5.70714474E-03

 Point added to stored polar  1
 Point written to save file  mh92_Re400k.base.pol                            
 Dump file unspecified or not available
 Calculating wake trajectory ...
 Calculating source influence matrix ...

 Solving BL system ...

 Side 1  free  transition at x/c =  0.1403   47
 Side 2 forced transition at x/c =  1.0000   63

   1   rms: 0.3583E-01   max: 0.1154E+00   T at   47  1
       a = 13.750      CL =  1.2940
      Cm =  0.0452     CD =  0.02673   =>   CDf =  0.00557    CDp =  0.02116

 Side 1  free  transition at x/c =  0.1357   47
 Side 2 forced transition at x/c =  1.0000   63

   2   rms: 0.5127E-02   max: 0.3224E-01   D at   81  1
       a = 13.750      CL =  1.2907
      Cm =  0.0453     CD =  0.02686   =>   CDf =  0.00556    CDp =  0.02131

 Side 1  free  transition at x/c =  0.1362   47
 Side 2 forced transition at x/c =  1.0000   63

   3   rms: 0.2302E-03   max: -.1424E-02   D at   82  1
       a = 13.750      CL =  1.2908
      Cm =  0.0453     CD =  0.02684   =>   CDf =  0.00554    CDp =  0.02131

 Side 1  free  transition at x/c =  0.1362   47
 Side 2 forced transition at x/c =  1.0000   63

   4   rms: 0.6556E-05   max: -.3360E-04   D at   71  2
       a = 13.750      CL =  1.2908
      Cm =  0.0453     CD =  0.02684   =>   CDf =  0.00554    CDp =  0.02131
 plradd ia,ip,cpol           44           0  4.32040915E-03

 Point added to stored polar  1
 Point written to save file  mh92_Re400k.base.pol                            
 Dump file unspecified or not available
 Calculating wake trajectory ...
 Calculating source influence matrix ...

 Solving BL system ...

 Side 1  free  transition at x/c =  0.1362   47
 Side 2 forced transition at x/c =  1.0000   63

   1   rms: 0.3882E-01   max: -.1509E+00   D at   47  1
       a = 14.000      CL =  1.2958
      Cm =  0.0457     CD =  0.02858   =>   CDf =  0.00554    CDp =  0.02305

 Side 1  free  transition at x/c =  0.1323   46
 Side 2 forced transition at x/c =  1.0000   63

   2   rms: 0.3674E-02   max: -.2491E-01   C at   46  1
       a = 14.000      CL =  1.2936
      Cm =  0.0458     CD =  0.02860   =>   CDf =  0.00555    CDp =  0.02305

 Side 1  free  transition at x/c =  0.1321   46
 Side 2 forced transition at x/c =  1.0000   63

   3   rms: 0.1606E-03   max: -.1233E-02   D at   80  1
       a = 14.000      CL =  1.2937
      Cm =  0.0458     CD =  0.02859   =>   CDf =  0.00554    CDp =  0.02305

 Side 1  free  transition at x/c =  0.1321   46
 Side 2 forced transition at x/c =  1.0000   63

   4   rms: 0.4239E-05   max: 0.2860E-04   C at   63  2
       a = 14.000      CL =  1.2937
      Cm =  0.0458     CD =  0.02859   =>   CDf =  0.00554    CDp =  0.02305
 plradd ia,ip,cpol           45           0  3.13985138E-03

 Point added to stored polar  1
 Point written to save file  mh92_Re400k.base.pol                            
 Dump file unspecified or not available
 Calculating wake trajectory ...
 Calculating source influence matrix ...

 Solving BL system ...

 Side 1  free  transition at x/c =  0.1321   46
 Side 2 forced transition at x/c =  1.0000   63

   1   rms: 0.3518E-01   max: -.1638E+00   C at   46  1
       a = 14.250      CL =  1.3053
      Cm =  0.0459     CD =  0.02994   =>   CDf =  0.00554    CDp =  0.02439

 Side 1  free  transition at x/c =  0.1279   46
 Side 2 forced transition at x/c =  1.0000   63

   2   rms: 0.4039E-02   max: 0.2411E-01   D at   78  1
       a = 14.250      CL =  1.3021
      Cm =  0.0460     CD =  0.03004   =>   CDf =  0.00543    CDp =  0.02461

 Side 1  free  transition at x/c =  0.1282   46
 Side 2 forced transition at x/c =  1.0000   63

   3   rms: 0.7879E-04   max: 0.6175E-03   D at   78  1
       a = 14.250      CL =  1.3021
      Cm =  0.0461     CD =  0.03002   =>   CDf =  0.00542    CDp =  0.02460
 plradd ia,ip,cpol           46           0  3.13985138E-03

 Point added to stored polar  1
 Point written to save file  mh92_Re400k.base.pol                            
 Dump file unspecified or not available
 Calculating wake trajectory ...
 Calculating source influence matrix ...

 Solving BL system ...

 Side 1  free  transition at x/c =  0.1282   46
 Side 2 forced transition at x/c =  1.0000   63

   1   rms: 0.3581E-01   max: 0.1182E+00   T at   46  1
       a = 14.500      CL =  1.3098
      Cm =  0.0461     CD =  0.03177   =>   CDf =  0.00542    CDp =  0.02635

 Side 1  free  transition at x/c =  0.1232   46
 Side 2 forced transition at x/c =  1.0000   63

   2   rms: 0.7039E-02   max: 0.3887E-01   D at   77  1
       a = 14.500      CL =  1.3055
      Cm =  0.0462     CD =  0.03194   =>   CDf =  0.00542    CDp =  0.02652

 Side 1  free  transition at x/c =  0.1241   46
 Side 2 forced transition at x/c =  1.0000   63

   3   rms: 0.4391E-03   max: -.2771E-02   D at   78  1
       a = 14.500      CL =  1.3056
      Cm =  0.0462     CD =  0.03190   =>   CDf =  0.00538    CDp =  0.02651

 Side 1  free  transition at x/c =  0.1241   46
 Side 2 forced transition at x/c =  1.0000   63

   4   rms: 0.3068E-04   max: -.1427E-03   D at   72  2
       a = 14.500      CL =  1.3056
      Cm =  0.0462     CD =  0.03190   =>   CDf =  0.00539    CDp =  0.02651
 plradd ia,ip,cpol           47           0  3.13985138E-03

 Point added to stored polar  1
 Point written to save file  mh92_Re400k.base.pol                            
 Dump file unspecified or not available
 Calculating wake trajectory ...
 Calculating source influence matrix ...

 Solving BL system ...

 Side 1  free  transition at x/c =  0.1241   46
 Side 2 forced transition at x/c =  1.0000   63

   1   rms: 0.3891E-01   max: 0.1332E+00   D at   75  1
       a = 14.750      CL =  1.3085
      Cm =  0.0461     CD =  0.03416   =>   CDf =  0.00539    CDp =  0.02878

 Side 1  free  transition at x/c =  0.1199   45
 Side 2 forced transition at x/c =  1.0000   63

   2   rms: 0.6083E-02   max: 0.3534E-01   D at   76  1
       a = 14.750      CL =  1.3042
      Cm =  0.0463     CD =  0.03427   =>   CDf =  0.00541    CDp =  0.02886

 Side 1  free  transition at x/c =  0.1202   45
 Side 2 forced transition at x/c =  1.0000   63

   3   rms: 0.1522E-03   max: 0.1676E-02   D at   75  1
       a = 14.750      CL =  1.3042
      Cm =  0.0463     CD =  0.03424   =>   CDf =  0.00540    CDp =  0.02884

 Side 1  free  transition at x/c =  0.1202   45
 Side 2 forced transition at x/c =  1.0000   63

   4   rms: 0.8819E-05   max: 0.5830E-04   C at   63  2
       a = 14.750      CL =  1.3042
      Cm =  0.0463     CD =  0.03424   =>   CDf =  0.00540    CDp =  0.02884
 plradd ia,ip,cpol           48           0  2.15929421E-03

 Point added to stored polar  1
 Point written to save file  mh92_Re400k.base.pol                            
 Dump file unspecified or not available
 Calculating wake trajectory ...
 Calculating source influence matrix ...

 Solving BL system ...

 Side 1  free  transition at x/c =  0.1202   45
 Side 2 forced transition at x/c =  1.0000   63

   1   rms: 0.3553E-01   max: -.1828E+00   C at   45  1   RLX: 0.999
       a = 15.000      CL =  1.3135
      Cm =  0.0460     CD =  0.03608   =>   CDf =  0.00508    CDp =  0.03100

 Side 1  free  transition at x/c =  0.1163   46
 Side 2 forced transition at x/c =  1.0000   62

   2   rms: 0.4679E-02   max: -.2628E-01   D at    2  1
       a = 15.000      CL =  1.3098
      Cm =  0.0461     CD =  0.03614   =>   CDf =  0.00527    CDp =  0.03087

 Side 1  free  transition at x/c =  0.1166   46
 Side 2 forced transition at x/c =  1.0000   62

   3   rms: 0.5871E-03   max: -.7075E-02   D at    4  1
       a = 15.000      CL =  1.3097
      Cm =  0.0461     CD =  0.03612   =>   CDf =  0.00527    CDp =  0.03086

 Side 1  free  transition at x/c =  0.1166   46
 Side 2 forced transition at x/c =  1.0000   62

   4   rms: 0.5085E-05   max: -.3973E-04   C at   62  2
       a = 15.000      CL =  1.3097
      Cm =  0.0461     CD =  0.03612   =>   CDf =  0.00527    CDp =  0.03086
 plradd ia,ip,cpol           49           0  3.13985138E-03

 Point added to stored polar  1
 Point written to save file  mh92_Re400k.base.pol                            
 Dump file unspecified or not available
 Calculating wake trajectory ...
 Calculating source influence matrix ...

 Solving BL system ...

 Side 1  free  transition at x/c =  0.1166   46
 Side 2 forced transition at x/c =  1.0000   62

   1   rms: 0.3540E-01   max: 0.1190E+00   D at   73  1   RLX: 0.946
       a = 15.250      CL =  1.3147
      Cm =  0.0458     CD =  0.03828   =>   CDf =  0.00527    CDp =  0.03302

 Side 1  free  transition at x/c =  0.1125   46
 Side 2 forced transition at x/c =  1.0000   62

   2   rms: 0.6933E-02   max: 0.4312E-01   D at   74  1
       a = 15.250      CL =  1.3105
      Cm =  0.0458     CD =  0.03854   =>   CDf =  0.00524    CDp =  0.03329

 Side 1  free  transition at x/c =  0.1129   46
 Side 2 forced transition at x/c =  1.0000   62

   3   rms: 0.2538E-03   max: 0.3239E-02   D at   72  2
       a = 15.250      CL =  1.3104
      Cm =  0.0459     CD =  0.03848   =>   CDf =  0.00522    CDp =  0.03326

 Side 1  free  transition at x/c =  0.1129   46
 Side 2 forced transition at x/c =  1.0000   62

   4   rms: 0.5912E-05   max: -.2909E-04   D at   75  2
       a = 15.250      CL =  1.3104
      Cm =  0.0459     CD =  0.03848   =>   CDf =  0.00522    CDp =  0.03326
 plradd ia,ip,cpol           50           0  2.15929421E-03

 Point added to stored polar  1
 Point written to save file  mh92_Re400k.base.pol                            
 Dump file unspecified or not available
 Calculating wake trajectory ...
 Calculating source influence matrix ...

 Solving BL system ...

 Side 1  free  transition at x/c =  0.1129   46
 Side 2 forced transition at x/c =  1.0000   62

   1   rms: 0.3831E-01   max: 0.1422E+00   D at   72  1   RLX: 0.889
       a = 15.500      CL =  1.3111
      Cm =  0.0453     CD =  0.04099   =>   CDf =  0.00522    CDp =  0.03577

 Side 1  free  transition at x/c =  0.1099   46
 Side 2 forced transition at x/c =  1.0000   62

   2   rms: 0.8924E-02   max: 0.5545E-01   D at   73  1
       a = 15.500      CL =  1.3062
      Cm =  0.0454     CD =  0.04144   =>   CDf =  0.00523    CDp =  0.03621

 Side 1  free  transition at x/c =  0.1096   46
 Side 2 forced transition at x/c =  1.0000   62

   3   rms: 0.4872E-03   max: 0.3317E-02   D at   73  2
       a = 15.500      CL =  1.3058
      Cm =  0.0455     CD =  0.04135   =>   CDf =  0.00523    CDp =  0.03613

 Side 1  free  transition at x/c =  0.1096   46
 Side 2 forced transition at x/c =  1.0000   62

   4   rms: 0.9640E-05   max: 0.8513E-04   D at   73  2
       a = 15.500      CL =  1.3058
      Cm =  0.0455     CD =  0.04135   =>   CDf =  0.00523    CDp =  0.03613
 plradd ia,ip,cpol           51           0  2.15929421E-03

 Point added to stored polar  1
 Point written to save file  mh92_Re400k.base.pol                            
 Dump file unspecified or not available
 Calculating wake trajectory ...
 Calculating source influence matrix ...

 Solving BL system ...

 Side 1  free  transition at x/c =  0.1096   46
 Side 2 forced transition at x/c =  1.0000   62

   1   rms: 0.3959E-01   max: 0.1555E+00   D at   71  1   RLX: 0.832
       a = 15.750      CL =  1.3026
      Cm =  0.0450     CD =  0.04413   =>   CDf =  0.00523    CDp =  0.03890

 Side 1  free  transition at x/c =  0.1071   45
 Side 2 forced transition at x/c =  1.0000   62

   2   rms: 0.1040E-01   max: -.1142E+00   D at   45  1
       a = 15.750      CL =  1.3056
      Cm =  0.0449     CD =  0.04399   =>   CDf =  0.00517    CDp =  0.03882

 Side 1  free  transition at x/c =  0.1067   45
 Side 2 forced transition at x/c =  1.0000   62

   3   rms: 0.1690E-02   max: -.1051E-01   D at   72  1
       a = 15.750      CL =  1.3064
      Cm =  0.0450     CD =  0.04382   =>   CDf =  0.00512    CDp =  0.03871

 Side 1  free  transition at x/c =  0.1066   45
 Side 2 forced transition at x/c =  1.0000   62

   4   rms: 0.1383E-03   max: -.7224E-03   D at   73  2
       a = 15.750      CL =  1.3065
      Cm =  0.0450     CD =  0.04384   =>   CDf =  0.00512    CDp =  0.03872

 Side 1  free  transition at x/c =  0.1066   45
 Side 2 forced transition at x/c =  1.0000   62

   5   rms: 0.3824E-05   max: 0.3441E-04   C at   62  2
       a = 15.750      CL =  1.3065
      Cm =  0.0450     CD =  0.04384   =>   CDf =  0.00512    CDp =  0.03872
 plradd ia,ip,cpol           52           0  2.15929421E-03

 Point added to stored polar  1
 Point written to save file  mh92_Re400k.base.pol                            
 Dump file unspecified or not available
 Calculating wake trajectory ...
 Calculating source influence matrix ...

 Solving BL system ...

 Side 1  free  transition at x/c =  0.1066   45
 Side 2 forced transition at x/c =  1.0000   62

   1   rms: 0.3428E-01   max: 0.1252E+00   D at   70  1   RLX: 0.803
       a = 16.000      CL =  1.3093
      Cm =  0.0444     CD =  0.04609   =>   CDf =  0.00512    CDp =  0.04097

 Side 1  free  transition at x/c =  0.1038   45
 Side 2 forced transition at x/c =  1.0000   62

   2   rms: 0.8903E-02   max: 0.4346E-01   D at   70  1
       a = 16.000      CL =  1.3064
      Cm =  0.0443     CD =  0.04664   =>   CDf =  0.00505    CDp =  0.04158

 Side 1  free  transition at x/c =  0.1035   45
 Side 2 forced transition at x/c =  1.0000   62

   3   rms: 0.1022E-02   max: 0.7360E-02   D at   70  1
       a = 16.000      CL =  1.3057
      Cm =  0.0443     CD =  0.04657   =>   CDf =  0.00503    CDp =  0.04154

 Side 1  free  transition at x/c =  0.1035   45
 Side 2 forced transition at x/c =  1.0000   62

   4   rms: 0.6459E-04   max: 0.3362E-03   D at   73  2
       a = 16.000      CL =  1.3056
      Cm =  0.0444     CD =  0.04656   =>   CDf =  0.00503    CDp =  0.04153
 plradd ia,ip,cpol           53           0  1.37039809E-03

 Point added to stored polar  1
 Point written to save file  mh92_Re400k.base.pol                            
 Dump file unspecified or not available

.OPERva   c>  
 Polar accumulation disabled

.OPERv   c>  
 XFOIL   c>  
 XFOIL   c>  